MODEL 1
REMARK VINA RESULT:    -5.711      0.000      0.000
REMARK INTER + INTRA:          -6.547
REMARK INTER:                  -6.378
REMARK INTRA:                  -0.169
REMARK UNBOUND:                -0.169
REMARK  Name = 1550473
REMARK  2 active torsions:
REMARK  status: ('A' for Active; 'I' for Inactive)
REMARK    1  A    between atoms: N_1  and  C_4
REMARK    2  A    between atoms: C_4  and  C_5
REMARK                            x       y       z     vdW  Elec       q    Type
REMARK                         _______ _______ _______ _____ _____    ______ ____
ROOT
ATOM      1  N   UNL     1       4.468  15.815  -0.219  0.00  0.00    -0.354 N 
ATOM      2  N   UNL     1       5.614  17.390   1.035  0.00  0.00    -0.372 N 
ATOM      3  N   UNL     1       3.690  18.019  -0.046  0.00  0.00    -0.372 N 
ATOM      4  C   UNL     1       4.581  17.066   0.247  0.00  0.00    +0.166 C 
ATOM      5  H   UNL     1       5.193  15.147   0.016  0.00  0.00    +0.163 HD
ATOM      6  H   UNL     1       5.724  18.325   1.404  0.00  0.00    +0.159 HD
ATOM      7  H   UNL     1       6.312  16.708   1.305  0.00  0.00    +0.159 HD
ATOM      8  H   UNL     1       2.891  17.840  -0.640  0.00  0.00    +0.159 HD
ATOM      9  H   UNL     1       3.789  18.963   0.304  0.00  0.00    +0.159 HD
ENDROOT
BRANCH   1  10
ATOM     10  C   UNL     1       3.353  15.346  -1.039  0.00  0.00    +0.151 C 
BRANCH  10  11
ATOM     11  C   UNL     1       2.524  14.382  -0.236  0.00  0.00    -0.028 A 
ATOM     12  C   UNL     1       1.464  14.844   0.558  0.00  0.00    +0.005 A 
ATOM     13  C   UNL     1       2.789  13.004  -0.270  0.00  0.00    +0.005 A 
ATOM     14  C   UNL     1       0.675  13.946   1.280  0.00  0.00    +0.000 A 
ATOM     15  C   UNL     1       1.999  12.111   0.454  0.00  0.00    +0.000 A 
ATOM     16  C   UNL     1       0.941  12.582   1.227  0.00  0.00    +0.000 A 
ENDBRANCH  10  11
ENDBRANCH   1  10
TORSDOF 2
ENDMDL
MODEL 2
REMARK VINA RESULT:    -5.657      0.137      1.459
REMARK INTER + INTRA:          -6.488
REMARK INTER:                  -6.329
REMARK INTRA:                  -0.159
REMARK UNBOUND:                -0.169
REMARK  Name = 1550473
REMARK  2 active torsions:
REMARK  status: ('A' for Active; 'I' for Inactive)
REMARK    1  A    between atoms: N_1  and  C_4
REMARK    2  A    between atoms: C_4  and  C_5
REMARK                            x       y       z     vdW  Elec       q    Type
REMARK                         _______ _______ _______ _____ _____    ______ ____
ROOT
ATOM      1  N   UNL     1       4.461  15.815  -0.213  0.00  0.00    -0.354 N 
ATOM      2  N   UNL     1       5.559  17.420   1.045  0.00  0.00    -0.372 N 
ATOM      3  N   UNL     1       3.701  18.031  -0.154  0.00  0.00    -0.372 N 
ATOM      4  C   UNL     1       4.565  17.080   0.217  0.00  0.00    +0.166 C 
ATOM      5  H   UNL     1       5.166  15.148   0.080  0.00  0.00    +0.163 HD
ATOM      6  H   UNL     1       5.661  18.365   1.389  0.00  0.00    +0.159 HD
ATOM      7  H   UNL     1       6.235  16.741   1.373  0.00  0.00    +0.159 HD
ATOM      8  H   UNL     1       2.932  17.841  -0.782  0.00  0.00    +0.159 HD
ATOM      9  H   UNL     1       3.793  18.986   0.170  0.00  0.00    +0.159 HD
ENDROOT
BRANCH   1  10
ATOM     10  C   UNL     1       3.384  15.330  -1.075  0.00  0.00    +0.151 C 
BRANCH  10  11
ATOM     11  C   UNL     1       2.565  14.323  -0.316  0.00  0.00    -0.028 A 
ATOM     12  C   UNL     1       2.909  12.963  -0.339  0.00  0.00    +0.005 A 
ATOM     13  C   UNL     1       1.447  14.722   0.432  0.00  0.00    +0.005 A 
ATOM     14  C   UNL     1       2.166  12.031   0.389  0.00  0.00    +0.000 A 
ATOM     15  C   UNL     1       0.707  13.788   1.157  0.00  0.00    +0.000 A 
ATOM     16  C   UNL     1       1.069  12.443   1.138  0.00  0.00    +0.000 A 
ENDBRANCH  10  11
ENDBRANCH   1  10
TORSDOF 2
ENDMDL
MODEL 3
REMARK VINA RESULT:    -4.994     25.966     27.746
REMARK INTER + INTRA:          -5.747
REMARK INTER:                  -5.569
REMARK INTRA:                  -0.178
REMARK UNBOUND:                -0.169
REMARK  Name = 1550473
REMARK  2 active torsions:
REMARK  status: ('A' for Active; 'I' for Inactive)
REMARK    1  A    between atoms: N_1  and  C_4
REMARK    2  A    between atoms: C_4  and  C_5
REMARK                            x       y       z     vdW  Elec       q    Type
REMARK                         _______ _______ _______ _____ _____    ______ ____
ROOT
ATOM      1  N   UNL     1       2.960 -10.617   4.509  0.00  0.00    -0.354 N 
ATOM      2  N   UNL     1       1.873  -8.627   4.979  0.00  0.00    -0.372 N 
ATOM      3  N   UNL     1       3.136  -9.616   6.620  0.00  0.00    -0.372 N 
ATOM      4  C   UNL     1       2.665  -9.633   5.369  0.00  0.00    +0.166 C 
ATOM      5  H   UNL     1       2.546 -10.588   3.584  0.00  0.00    +0.163 HD
ATOM      6  H   UNL     1       1.636  -7.869   5.605  0.00  0.00    +0.159 HD
ATOM      7  H   UNL     1       1.499  -8.576   4.040  0.00  0.00    +0.159 HD
ATOM      8  H   UNL     1       3.734 -10.349   6.978  0.00  0.00    +0.159 HD
ATOM      9  H   UNL     1       2.900  -8.872   7.265  0.00  0.00    +0.159 HD
ENDROOT
BRANCH   1  10
ATOM     10  C   UNL     1       3.855 -11.731   4.816  0.00  0.00    +0.151 C 
BRANCH  10  11
ATOM     11  C   UNL     1       3.034 -12.923   5.223  0.00  0.00    -0.028 A 
ATOM     12  C   UNL     1       2.193 -13.558   4.298  0.00  0.00    +0.005 A 
ATOM     13  C   UNL     1       3.096 -13.426   6.532  0.00  0.00    +0.005 A 
ATOM     14  C   UNL     1       1.453 -14.684   4.667  0.00  0.00    +0.000 A 
ATOM     15  C   UNL     1       2.355 -14.550   6.897  0.00  0.00    +0.000 A 
ATOM     16  C   UNL     1       1.535 -15.180   5.964  0.00  0.00    +0.000 A 
ENDBRANCH  10  11
ENDBRANCH   1  10
TORSDOF 2
ENDMDL
MODEL 4
REMARK VINA RESULT:    -4.984     23.147     24.632
REMARK INTER + INTRA:          -5.736
REMARK INTER:                  -5.610
REMARK INTRA:                  -0.126
REMARK UNBOUND:                -0.169
REMARK  Name = 1550473
REMARK  2 active torsions:
REMARK  status: ('A' for Active; 'I' for Inactive)
REMARK    1  A    between atoms: N_1  and  C_4
REMARK    2  A    between atoms: C_4  and  C_5
REMARK                            x       y       z     vdW  Elec       q    Type
REMARK                         _______ _______ _______ _____ _____    ______ ____
ROOT
ATOM      1  N   UNL     1       0.260  -4.648 -12.042  0.00  0.00    -0.354 N 
ATOM      2  N   UNL     1      -1.408  -4.015 -10.566  0.00  0.00    -0.372 N 
ATOM      3  N   UNL     1      -1.978  -5.221 -12.433  0.00  0.00    -0.372 N 
ATOM      4  C   UNL     1      -1.033  -4.633 -11.692  0.00  0.00    +0.166 C 
ATOM      5  H   UNL     1       0.924  -4.157 -11.454  0.00  0.00    +0.163 HD
ATOM      6  H   UNL     1      -2.376  -3.990 -10.274  0.00  0.00    +0.159 HD
ATOM      7  H   UNL     1      -0.736  -3.565  -9.956  0.00  0.00    +0.159 HD
ATOM      8  H   UNL     1      -1.761  -5.700 -13.297  0.00  0.00    +0.159 HD
ATOM      9  H   UNL     1      -2.954  -5.198 -12.163  0.00  0.00    +0.159 HD
ENDROOT
BRANCH   1  10
ATOM     10  C   UNL     1       0.781  -5.339 -13.221  0.00  0.00    +0.151 C 
BRANCH  10  11
ATOM     11  C   UNL     1       2.057  -6.043 -12.853  0.00  0.00    -0.028 A 
ATOM     12  C   UNL     1       2.048  -7.095 -11.925  0.00  0.00    +0.005 A 
ATOM     13  C   UNL     1       3.279  -5.668 -13.433  0.00  0.00    +0.005 A 
ATOM     14  C   UNL     1       3.229  -7.770 -11.606  0.00  0.00    +0.000 A 
ATOM     15  C   UNL     1       4.456  -6.343 -13.111  0.00  0.00    +0.000 A 
ATOM     16  C   UNL     1       4.430  -7.396 -12.199  0.00  0.00    +0.000 A 
ENDBRANCH  10  11
ENDBRANCH   1  10
TORSDOF 2
ENDMDL
MODEL 5
REMARK VINA RESULT:    -4.977     16.555     18.316
REMARK INTER + INTRA:          -5.729
REMARK INTER:                  -5.564
REMARK INTRA:                  -0.164
REMARK UNBOUND:                -0.169
REMARK  Name = 1550473
REMARK  2 active torsions:
REMARK  status: ('A' for Active; 'I' for Inactive)
REMARK    1  A    between atoms: N_1  and  C_4
REMARK    2  A    between atoms: C_4  and  C_5
REMARK                            x       y       z     vdW  Elec       q    Type
REMARK                         _______ _______ _______ _____ _____    ______ ____
ROOT
ATOM      1  N   UNL     1      -4.548   4.261  10.746  0.00  0.00    -0.354 N 
ATOM      2  N   UNL     1      -4.665   4.791   8.495  0.00  0.00    -0.372 N 
ATOM      3  N   UNL     1      -6.023   3.133   9.316  0.00  0.00    -0.372 N 
ATOM      4  C   UNL     1      -5.080   4.056   9.534  0.00  0.00    +0.166 C 
ATOM      5  H   UNL     1      -3.815   4.955  10.839  0.00  0.00    +0.163 HD
ATOM      6  H   UNL     1      -5.051   4.662   7.569  0.00  0.00    +0.159 HD
ATOM      7  H   UNL     1      -3.966   5.516   8.600  0.00  0.00    +0.159 HD
ATOM      8  H   UNL     1      -6.374   2.542  10.057  0.00  0.00    +0.159 HD
ATOM      9  H   UNL     1      -6.412   2.981   8.395  0.00  0.00    +0.159 HD
ENDROOT
BRANCH   1  10
ATOM     10  C   UNL     1      -4.967   3.552  11.954  0.00  0.00    +0.151 C 
BRANCH  10  11
ATOM     11  C   UNL     1      -4.064   2.368  12.166  0.00  0.00    -0.028 A 
ATOM     12  C   UNL     1      -4.603   1.104  12.452  0.00  0.00    +0.005 A 
ATOM     13  C   UNL     1      -2.670   2.501  12.077  0.00  0.00    +0.005 A 
ATOM     14  C   UNL     1      -3.766  -0.002  12.619  0.00  0.00    +0.000 A 
ATOM     15  C   UNL     1      -1.838   1.394  12.246  0.00  0.00    +0.000 A 
ATOM     16  C   UNL     1      -2.387   0.143  12.515  0.00  0.00    +0.000 A 
ENDBRANCH  10  11
ENDBRANCH   1  10
TORSDOF 2
ENDMDL
MODEL 6
REMARK VINA RESULT:    -4.930      2.261      3.212
REMARK INTER + INTRA:          -5.675
REMARK INTER:                  -5.532
REMARK INTRA:                  -0.143
REMARK UNBOUND:                -0.169
REMARK  Name = 1550473
REMARK  2 active torsions:
REMARK  status: ('A' for Active; 'I' for Inactive)
REMARK    1  A    between atoms: N_1  and  C_4
REMARK    2  A    between atoms: C_4  and  C_5
REMARK                            x       y       z     vdW  Elec       q    Type
REMARK                         _______ _______ _______ _____ _____    ______ ____
ROOT
ATOM      1  N   UNL     1       1.345  16.726  -1.252  0.00  0.00    -0.354 N 
ATOM      2  N   UNL     1       0.289  17.544  -3.144  0.00  0.00    -0.372 N 
ATOM      3  N   UNL     1       2.507  16.973  -3.272  0.00  0.00    -0.372 N 
ATOM      4  C   UNL     1       1.390  17.075  -2.544  0.00  0.00    +0.166 C 
ATOM      5  H   UNL     1       0.475  16.856  -0.748  0.00  0.00    +0.163 HD
ATOM      6  H   UNL     1       0.291  17.813  -4.119  0.00  0.00    +0.159 HD
ATOM      7  H   UNL     1      -0.591  17.630  -2.650  0.00  0.00    +0.159 HD
ATOM      8  H   UNL     1       3.374  16.632  -2.877  0.00  0.00    +0.159 HD
ATOM      9  H   UNL     1       2.533  17.248  -4.246  0.00  0.00    +0.159 HD
ENDROOT
BRANCH   1  10
ATOM     10  C   UNL     1       2.474  16.154  -0.520  0.00  0.00    +0.151 C 
BRANCH  10  11
ATOM     11  C   UNL     1       2.122  14.757  -0.088  0.00  0.00    -0.028 A 
ATOM     12  C   UNL     1       2.955  13.679  -0.421  0.00  0.00    +0.005 A 
ATOM     13  C   UNL     1       0.961  14.506   0.659  0.00  0.00    +0.005 A 
ATOM     14  C   UNL     1       2.645  12.385   0.005  0.00  0.00    +0.000 A 
ATOM     15  C   UNL     1       0.654  13.213   1.082  0.00  0.00    +0.000 A 
ATOM     16  C   UNL     1       1.498  12.153   0.757  0.00  0.00    +0.000 A 
ENDBRANCH  10  11
ENDBRANCH   1  10
TORSDOF 2
ENDMDL
MODEL 7
REMARK VINA RESULT:    -4.915      1.536      2.365
REMARK INTER + INTRA:          -5.658
REMARK INTER:                  -5.561
REMARK INTRA:                  -0.097
REMARK UNBOUND:                -0.169
REMARK  Name = 1550473
REMARK  2 active torsions:
REMARK  status: ('A' for Active; 'I' for Inactive)
REMARK    1  A    between atoms: N_1  and  C_4
REMARK    2  A    between atoms: C_4  and  C_5
REMARK                            x       y       z     vdW  Elec       q    Type
REMARK                         _______ _______ _______ _____ _____    ______ ____
ROOT
ATOM      1  N   UNL     1       1.726  17.105   0.135  0.00  0.00    -0.354 N 
ATOM      2  N   UNL     1       3.247  18.783  -0.352  0.00  0.00    -0.372 N 
ATOM      3  N   UNL     1       2.965  18.142   1.833  0.00  0.00    -0.372 N 
ATOM      4  C   UNL     1       2.636  17.999   0.544  0.00  0.00    +0.166 C 
ATOM      5  H   UNL     1       1.500  17.067  -0.852  0.00  0.00    +0.163 HD
ATOM      6  H   UNL     1       3.940  19.464  -0.074  0.00  0.00    +0.159 HD
ATOM      7  H   UNL     1       3.052  18.710  -1.344  0.00  0.00    +0.159 HD
ATOM      8  H   UNL     1       2.536  17.585   2.560  0.00  0.00    +0.159 HD
ATOM      9  H   UNL     1       3.648  18.827   2.133  0.00  0.00    +0.159 HD
ENDROOT
BRANCH   1  10
ATOM     10  C   UNL     1       1.043  16.168   1.025  0.00  0.00    +0.151 C 
BRANCH  10  11
ATOM     11  C   UNL     1       1.472  14.767   0.684  0.00  0.00    -0.028 A 
ATOM     12  C   UNL     1       2.594  14.543  -0.126  0.00  0.00    +0.005 A 
ATOM     13  C   UNL     1       0.763  13.659   1.175  0.00  0.00    +0.005 A 
ATOM     14  C   UNL     1       3.010  13.241  -0.418  0.00  0.00    +0.000 A 
ATOM     15  C   UNL     1       1.181  12.362   0.881  0.00  0.00    +0.000 A 
ATOM     16  C   UNL     1       2.306  12.153   0.086  0.00  0.00    +0.000 A 
ENDBRANCH  10  11
ENDBRANCH   1  10
TORSDOF 2
ENDMDL
MODEL 8
REMARK VINA RESULT:    -4.760      1.930      2.632
REMARK INTER + INTRA:          -5.485
REMARK INTER:                  -5.328
REMARK INTRA:                  -0.158
REMARK UNBOUND:                -0.169
REMARK  Name = 1550473
REMARK  2 active torsions:
REMARK  status: ('A' for Active; 'I' for Inactive)
REMARK    1  A    between atoms: N_1  and  C_4
REMARK    2  A    between atoms: C_4  and  C_5
REMARK                            x       y       z     vdW  Elec       q    Type
REMARK                         _______ _______ _______ _____ _____    ______ ____
ROOT
ATOM      1  N   UNL     1       2.674  17.063   0.006  0.00  0.00    -0.354 N 
ATOM      2  N   UNL     1       1.505  18.784   1.024  0.00  0.00    -0.372 N 
ATOM      3  N   UNL     1       2.202  17.009   2.301  0.00  0.00    -0.372 N 
ATOM      4  C   UNL     1       2.135  17.606   1.106  0.00  0.00    +0.166 C 
ATOM      5  H   UNL     1       2.562  17.550  -0.876  0.00  0.00    +0.163 HD
ATOM      6  H   UNL     1       1.092  19.219   1.837  0.00  0.00    +0.159 HD
ATOM      7  H   UNL     1       1.435  19.291   0.150  0.00  0.00    +0.159 HD
ATOM      8  H   UNL     1       2.659  16.116   2.428  0.00  0.00    +0.159 HD
ATOM      9  H   UNL     1       1.785  17.424   3.124  0.00  0.00    +0.159 HD
ENDROOT
BRANCH   1  10
ATOM     10  C   UNL     1       3.427  15.810  -0.003  0.00  0.00    +0.151 C 
BRANCH  10  11
ATOM     11  C   UNL     1       2.538  14.706  -0.505  0.00  0.00    -0.028 A 
ATOM     12  C   UNL     1       2.706  13.392  -0.044  0.00  0.00    +0.005 A 
ATOM     13  C   UNL     1       1.522  14.968  -1.436  0.00  0.00    +0.005 A 
ATOM     14  C   UNL     1       1.862  12.371  -0.487  0.00  0.00    +0.000 A 
ATOM     15  C   UNL     1       0.681  13.946  -1.877  0.00  0.00    +0.000 A 
ATOM     16  C   UNL     1       0.850  12.648  -1.400  0.00  0.00    +0.000 A 
ENDBRANCH  10  11
ENDBRANCH   1  10
TORSDOF 2
ENDMDL
MODEL 9
REMARK VINA RESULT:    -4.705      2.696      3.217
REMARK INTER + INTRA:          -5.424
REMARK INTER:                  -5.284
REMARK INTRA:                  -0.141
REMARK UNBOUND:                -0.169
REMARK  Name = 1550473
REMARK  2 active torsions:
REMARK  status: ('A' for Active; 'I' for Inactive)
REMARK    1  A    between atoms: N_1  and  C_4
REMARK    2  A    between atoms: C_4  and  C_5
REMARK                            x       y       z     vdW  Elec       q    Type
REMARK                         _______ _______ _______ _____ _____    ______ ____
ROOT
ATOM      1  N   UNL     1       2.250  16.405  -3.061  0.00  0.00    -0.354 N 
ATOM      2  N   UNL     1       2.958  18.611  -3.090  0.00  0.00    -0.372 N 
ATOM      3  N   UNL     1       0.706  18.168  -3.077  0.00  0.00    -0.372 N 
ATOM      4  C   UNL     1       1.964  17.714  -3.076  0.00  0.00    +0.166 C 
ATOM      5  H   UNL     1       3.224  16.125  -3.092  0.00  0.00    +0.163 HD
ATOM      6  H   UNL     1       2.772  19.605  -3.098  0.00  0.00    +0.159 HD
ATOM      7  H   UNL     1       3.930  18.329  -3.075  0.00  0.00    +0.159 HD
ATOM      8  H   UNL     1      -0.089  17.543  -3.073  0.00  0.00    +0.159 HD
ATOM      9  H   UNL     1       0.500  19.159  -3.097  0.00  0.00    +0.159 HD
ENDROOT
BRANCH   1  10
ATOM     10  C   UNL     1       1.243  15.349  -2.991  0.00  0.00    +0.151 C 
BRANCH  10  11
ATOM     11  C   UNL     1       1.655  14.346  -1.949  0.00  0.00    -0.028 A 
ATOM     12  C   UNL     1       2.907  14.441  -1.325  0.00  0.00    +0.005 A 
ATOM     13  C   UNL     1       0.795  13.301  -1.577  0.00  0.00    +0.005 A 
ATOM     14  C   UNL     1       3.278  13.527  -0.336  0.00  0.00    +0.000 A 
ATOM     15  C   UNL     1       1.169  12.390  -0.590  0.00  0.00    +0.000 A 
ATOM     16  C   UNL     1       2.410  12.505   0.033  0.00  0.00    +0.000 A 
ENDBRANCH  10  11
ENDBRANCH   1  10
TORSDOF 2
ENDMDL
