MODEL 1
REMARK VINA RESULT:    -7.131      0.000      0.000
REMARK INTER + INTRA:          -8.098
REMARK INTER:                  -7.965
REMARK INTRA:                  -0.133
REMARK UNBOUND:                -0.133
REMARK  Name = 1550473
REMARK  2 active torsions:
REMARK  status: ('A' for Active; 'I' for Inactive)
REMARK    1  A    between atoms: N_1  and  C_4
REMARK    2  A    between atoms: C_4  and  C_5
REMARK                            x       y       z     vdW  Elec       q    Type
REMARK                         _______ _______ _______ _____ _____    ______ ____
ROOT
ATOM      1  N   UNL     1       6.381   3.705   0.150  0.00  0.00    -0.354 N 
ATOM      2  N   UNL     1       4.829   5.408   0.385  0.00  0.00    -0.372 N 
ATOM      3  N   UNL     1       4.662   3.561   1.737  0.00  0.00    -0.372 N 
ATOM      4  C   UNL     1       5.300   4.211   0.758  0.00  0.00    +0.166 C 
ATOM      5  H   UNL     1       6.800   4.234  -0.606  0.00  0.00    +0.163 HD
ATOM      6  H   UNL     1       4.017   5.817   0.828  0.00  0.00    +0.159 HD
ATOM      7  H   UNL     1       5.278   5.955  -0.339  0.00  0.00    +0.159 HD
ATOM      8  H   UNL     1       4.964   2.652   2.060  0.00  0.00    +0.159 HD
ATOM      9  H   UNL     1       3.841   3.949   2.184  0.00  0.00    +0.159 HD
ENDROOT
BRANCH   1  10
ATOM     10  C   UNL     1       7.005   2.435   0.517  0.00  0.00    +0.151 C 
BRANCH  10  11
ATOM     11  C   UNL     1       8.443   2.682   0.882  0.00  0.00    -0.028 A 
ATOM     12  C   UNL     1       9.303   3.333  -0.014  0.00  0.00    +0.005 A 
ATOM     13  C   UNL     1       8.950   2.271   2.124  0.00  0.00    +0.005 A 
ATOM     14  C   UNL     1      10.631   3.589   0.336  0.00  0.00    +0.000 A 
ATOM     15  C   UNL     1      10.277   2.528   2.470  0.00  0.00    +0.000 A 
ATOM     16  C   UNL     1      11.116   3.189   1.577  0.00  0.00    +0.000 A 
ENDBRANCH  10  11
ENDBRANCH   1  10
TORSDOF 2
ENDMDL
MODEL 2
REMARK VINA RESULT:    -6.847      2.184      3.287
REMARK INTER + INTRA:          -7.781
REMARK INTER:                  -7.640
REMARK INTRA:                  -0.141
REMARK UNBOUND:                -0.133
REMARK  Name = 1550473
REMARK  2 active torsions:
REMARK  status: ('A' for Active; 'I' for Inactive)
REMARK    1  A    between atoms: N_1  and  C_4
REMARK    2  A    between atoms: C_4  and  C_5
REMARK                            x       y       z     vdW  Elec       q    Type
REMARK                         _______ _______ _______ _____ _____    ______ ____
ROOT
ATOM      1  N   UNL     1       9.027   3.095   0.942  0.00  0.00    -0.354 N 
ATOM      2  N   UNL     1       6.910   3.684   0.210  0.00  0.00    -0.372 N 
ATOM      3  N   UNL     1       7.638   1.533  -0.118  0.00  0.00    -0.372 N 
ATOM      4  C   UNL     1       7.872   2.764   0.349  0.00  0.00    +0.166 C 
ATOM      5  H   UNL     1       9.154   4.054   1.247  0.00  0.00    +0.163 HD
ATOM      6  H   UNL     1       6.027   3.463  -0.230  0.00  0.00    +0.159 HD
ATOM      7  H   UNL     1       7.022   4.629   0.557  0.00  0.00    +0.159 HD
ATOM      8  H   UNL     1       8.326   0.795  -0.050  0.00  0.00    +0.159 HD
ATOM      9  H   UNL     1       6.766   1.295  -0.573  0.00  0.00    +0.159 HD
ENDROOT
BRANCH   1  10
ATOM     10  C   UNL     1      10.118   2.155   1.190  0.00  0.00    +0.151 C 
BRANCH  10  11
ATOM     11  C   UNL     1      11.375   2.682   0.555  0.00  0.00    -0.028 A 
ATOM     12  C   UNL     1      11.610   4.062   0.481  0.00  0.00    +0.005 A 
ATOM     13  C   UNL     1      12.337   1.805   0.031  0.00  0.00    +0.005 A 
ATOM     14  C   UNL     1      12.791   4.552  -0.082  0.00  0.00    +0.000 A 
ATOM     15  C   UNL     1      13.515   2.298  -0.532  0.00  0.00    +0.000 A 
ATOM     16  C   UNL     1      13.743   3.671  -0.585  0.00  0.00    +0.000 A 
ENDBRANCH  10  11
ENDBRANCH   1  10
TORSDOF 2
ENDMDL
MODEL 3
REMARK VINA RESULT:    -6.789      2.822      4.272
REMARK INTER + INTRA:          -7.716
REMARK INTER:                  -7.578
REMARK INTRA:                  -0.138
REMARK UNBOUND:                -0.133
REMARK  Name = 1550473
REMARK  2 active torsions:
REMARK  status: ('A' for Active; 'I' for Inactive)
REMARK    1  A    between atoms: N_1  and  C_4
REMARK    2  A    between atoms: C_4  and  C_5
REMARK                            x       y       z     vdW  Elec       q    Type
REMARK                         _______ _______ _______ _____ _____    ______ ____
ROOT
ATOM      1  N   UNL     1       9.733   3.633   0.287  0.00  0.00    -0.354 N 
ATOM      2  N   UNL     1       7.477   3.449  -0.202  0.00  0.00    -0.372 N 
ATOM      3  N   UNL     1       8.821   1.606  -0.457  0.00  0.00    -0.372 N 
ATOM      4  C   UNL     1       8.693   2.895  -0.122  0.00  0.00    +0.166 C 
ATOM      5  H   UNL     1       9.576   4.612   0.498  0.00  0.00    +0.163 HD
ATOM      6  H   UNL     1       6.673   2.916  -0.504  0.00  0.00    +0.159 HD
ATOM      7  H   UNL     1       7.314   4.415   0.053  0.00  0.00    +0.159 HD
ATOM      8  H   UNL     1       9.713   1.131  -0.424  0.00  0.00    +0.159 HD
ATOM      9  H   UNL     1       8.030   1.059  -0.773  0.00  0.00    +0.159 HD
ENDROOT
BRANCH   1  10
ATOM     10  C   UNL     1      11.088   3.111   0.461  0.00  0.00    +0.151 C 
BRANCH  10  11
ATOM     11  C   UNL     1      12.071   4.100  -0.103  0.00  0.00    -0.028 A 
ATOM     12  C   UNL     1      11.651   5.381  -0.487  0.00  0.00    +0.005 A 
ATOM     13  C   UNL     1      13.425   3.762  -0.251  0.00  0.00    +0.005 A 
ATOM     14  C   UNL     1      12.569   6.310  -0.984  0.00  0.00    +0.000 A 
ATOM     15  C   UNL     1      14.339   4.692  -0.748  0.00  0.00    +0.000 A 
ATOM     16  C   UNL     1      13.911   5.966  -1.111  0.00  0.00    +0.000 A 
ENDBRANCH  10  11
ENDBRANCH   1  10
TORSDOF 2
ENDMDL
MODEL 4
REMARK VINA RESULT:    -6.743     24.998     26.876
REMARK INTER + INTRA:          -7.664
REMARK INTER:                  -7.514
REMARK INTRA:                  -0.150
REMARK UNBOUND:                -0.133
REMARK  Name = 1550473
REMARK  2 active torsions:
REMARK  status: ('A' for Active; 'I' for Inactive)
REMARK    1  A    between atoms: N_1  and  C_4
REMARK    2  A    between atoms: C_4  and  C_5
REMARK                            x       y       z     vdW  Elec       q    Type
REMARK                         _______ _______ _______ _____ _____    ______ ____
ROOT
ATOM      1  N   UNL     1     -14.805  -2.678 -15.108  0.00  0.00    -0.354 N 
ATOM      2  N   UNL     1     -15.626  -4.492 -16.292  0.00  0.00    -0.372 N 
ATOM      3  N   UNL     1     -14.626  -2.777 -17.443  0.00  0.00    -0.372 N 
ATOM      4  C   UNL     1     -15.013  -3.302 -16.275  0.00  0.00    +0.166 C 
ATOM      5  H   UNL     1     -15.150  -3.115 -14.261  0.00  0.00    +0.163 HD
ATOM      6  H   UNL     1     -15.793  -4.988 -17.157  0.00  0.00    +0.159 HD
ATOM      7  H   UNL     1     -15.928  -4.947 -15.439  0.00  0.00    +0.159 HD
ATOM      8  H   UNL     1     -14.163  -1.880 -17.499  0.00  0.00    +0.159 HD
ATOM      9  H   UNL     1     -14.795  -3.253 -18.320  0.00  0.00    +0.159 HD
ENDROOT
BRANCH   1  10
ATOM     10  C   UNL     1     -14.099  -1.405 -14.976  0.00  0.00    +0.151 C 
BRANCH  10  11
ATOM     11  C   UNL     1     -12.824  -1.628 -14.211  0.00  0.00    -0.028 A 
ATOM     12  C   UNL     1     -11.689  -0.846 -14.475  0.00  0.00    +0.005 A 
ATOM     13  C   UNL     1     -12.745  -2.615 -13.217  0.00  0.00    +0.005 A 
ATOM     14  C   UNL     1     -10.514  -1.032 -13.744  0.00  0.00    +0.000 A 
ATOM     15  C   UNL     1     -11.569  -2.799 -12.490  0.00  0.00    +0.000 A 
ATOM     16  C   UNL     1     -10.454  -2.006 -12.752  0.00  0.00    +0.000 A 
ENDBRANCH  10  11
ENDBRANCH   1  10
TORSDOF 2
ENDMDL
MODEL 5
REMARK VINA RESULT:    -6.652      0.926      1.903
REMARK INTER + INTRA:          -7.563
REMARK INTER:                  -7.444
REMARK INTRA:                  -0.118
REMARK UNBOUND:                -0.133
REMARK  Name = 1550473
REMARK  2 active torsions:
REMARK  status: ('A' for Active; 'I' for Inactive)
REMARK    1  A    between atoms: N_1  and  C_4
REMARK    2  A    between atoms: C_4  and  C_5
REMARK                            x       y       z     vdW  Elec       q    Type
REMARK                         _______ _______ _______ _____ _____    ______ ____
ROOT
ATOM      1  N   UNL     1       6.181   2.421   0.101  0.00  0.00    -0.354 N 
ATOM      2  N   UNL     1       4.080   2.573   1.062  0.00  0.00    -0.372 N 
ATOM      3  N   UNL     1       5.149   4.500   0.422  0.00  0.00    -0.372 N 
ATOM      4  C   UNL     1       5.151   3.167   0.522  0.00  0.00    +0.166 C 
ATOM      5  H   UNL     1       6.135   1.417   0.232  0.00  0.00    +0.163 HD
ATOM      6  H   UNL     1       3.286   3.109   1.386  0.00  0.00    +0.159 HD
ATOM      7  H   UNL     1       4.016   1.566   1.150  0.00  0.00    +0.159 HD
ATOM      8  H   UNL     1       5.929   5.009   0.029  0.00  0.00    +0.159 HD
ATOM      9  H   UNL     1       4.368   5.055   0.751  0.00  0.00    +0.159 HD
ENDROOT
BRANCH   1  10
ATOM     10  C   UNL     1       7.372   2.965  -0.551  0.00  0.00    +0.151 C 
BRANCH  10  11
ATOM     11  C   UNL     1       8.526   2.910   0.411  0.00  0.00    -0.028 A 
ATOM     12  C   UNL     1       8.404   2.232   1.633  0.00  0.00    +0.005 A 
ATOM     13  C   UNL     1       9.748   3.529   0.104  0.00  0.00    +0.005 A 
ATOM     14  C   UNL     1       9.486   2.155   2.513  0.00  0.00    +0.000 A 
ATOM     15  C   UNL     1      10.825   3.451   0.986  0.00  0.00    +0.000 A 
ATOM     16  C   UNL     1      10.695   2.762   2.190  0.00  0.00    +0.000 A 
ENDBRANCH  10  11
ENDBRANCH   1  10
TORSDOF 2
ENDMDL
MODEL 6
REMARK VINA RESULT:    -6.145      3.870      5.023
REMARK INTER + INTRA:          -6.997
REMARK INTER:                  -6.833
REMARK INTRA:                  -0.163
REMARK UNBOUND:                -0.133
REMARK  Name = 1550473
REMARK  2 active torsions:
REMARK  status: ('A' for Active; 'I' for Inactive)
REMARK    1  A    between atoms: N_1  and  C_4
REMARK    2  A    between atoms: C_4  and  C_5
REMARK                            x       y       z     vdW  Elec       q    Type
REMARK                         _______ _______ _______ _____ _____    ______ ____
ROOT
ATOM      1  N   UNL     1      10.335   1.793   2.742  0.00  0.00    -0.354 N 
ATOM      2  N   UNL     1      10.678   0.604   4.699  0.00  0.00    -0.372 N 
ATOM      3  N   UNL     1      10.280  -0.550   2.757  0.00  0.00    -0.372 N 
ATOM      4  C   UNL     1      10.428   0.621   3.385  0.00  0.00    +0.166 C 
ATOM      5  H   UNL     1      10.427   2.646   3.280  0.00  0.00    +0.163 HD
ATOM      6  H   UNL     1      10.758  -0.265   5.211  0.00  0.00    +0.159 HD
ATOM      7  H   UNL     1      10.816   1.458   5.227  0.00  0.00    +0.159 HD
ATOM      8  H   UNL     1      10.084  -0.606   1.766  0.00  0.00    +0.159 HD
ATOM      9  H   UNL     1      10.344  -1.430   3.254  0.00  0.00    +0.159 HD
ENDROOT
BRANCH   1  10
ATOM     10  C   UNL     1      10.118   1.920   1.301  0.00  0.00    +0.151 C 
BRANCH  10  11
ATOM     11  C   UNL     1      11.349   2.511   0.670  0.00  0.00    -0.028 A 
ATOM     12  C   UNL     1      12.357   1.680   0.162  0.00  0.00    +0.005 A 
ATOM     13  C   UNL     1      11.509   3.902   0.573  0.00  0.00    +0.005 A 
ATOM     14  C   UNL     1      13.487   2.228  -0.452  0.00  0.00    +0.000 A 
ATOM     15  C   UNL     1      12.639   4.445  -0.039  0.00  0.00    +0.000 A 
ATOM     16  C   UNL     1      13.626   3.608  -0.554  0.00  0.00    +0.000 A 
ENDBRANCH  10  11
ENDBRANCH   1  10
TORSDOF 2
ENDMDL
MODEL 7
REMARK VINA RESULT:    -5.724     20.612     22.172
REMARK INTER + INTRA:          -6.526
REMARK INTER:                  -6.415
REMARK INTRA:                  -0.111
REMARK UNBOUND:                -0.133
REMARK  Name = 1550473
REMARK  2 active torsions:
REMARK  status: ('A' for Active; 'I' for Inactive)
REMARK    1  A    between atoms: N_1  and  C_4
REMARK    2  A    between atoms: C_4  and  C_5
REMARK                            x       y       z     vdW  Elec       q    Type
REMARK                         _______ _______ _______ _____ _____    ______ ____
ROOT
ATOM      1  N   UNL     1      -4.038  -5.268 -12.926  0.00  0.00    -0.354 N 
ATOM      2  N   UNL     1      -2.161  -3.911 -12.948  0.00  0.00    -0.372 N 
ATOM      3  N   UNL     1      -3.863  -3.426 -11.488  0.00  0.00    -0.372 N 
ATOM      4  C   UNL     1      -3.368  -4.209 -12.452  0.00  0.00    +0.166 C 
ATOM      5  H   UNL     1      -3.622  -5.804 -13.679  0.00  0.00    +0.163 HD
ATOM      6  H   UNL     1      -1.630  -3.121 -12.608  0.00  0.00    +0.159 HD
ATOM      7  H   UNL     1      -1.727  -4.476 -13.669  0.00  0.00    +0.159 HD
ATOM      8  H   UNL     1      -4.771  -3.593 -11.075  0.00  0.00    +0.159 HD
ATOM      9  H   UNL     1      -3.351  -2.623 -11.142  0.00  0.00    +0.159 HD
ENDROOT
BRANCH   1  10
ATOM     10  C   UNL     1      -5.335  -5.709 -12.416  0.00  0.00    +0.151 C 
BRANCH  10  11
ATOM     11  C   UNL     1      -5.892  -6.762 -13.335  0.00  0.00    -0.028 A 
ATOM     12  C   UNL     1      -6.461  -7.933 -12.814  0.00  0.00    +0.005 A 
ATOM     13  C   UNL     1      -5.858  -6.591 -14.728  0.00  0.00    +0.005 A 
ATOM     14  C   UNL     1      -7.005  -8.897 -13.666  0.00  0.00    +0.000 A 
ATOM     15  C   UNL     1      -6.401  -7.557 -15.575  0.00  0.00    +0.000 A 
ATOM     16  C   UNL     1      -6.977  -8.708 -15.044  0.00  0.00    +0.000 A 
ENDBRANCH  10  11
ENDBRANCH   1  10
TORSDOF 2
ENDMDL
MODEL 8
REMARK VINA RESULT:    -5.665     18.028     20.926
REMARK INTER + INTRA:          -6.461
REMARK INTER:                  -6.319
REMARK INTRA:                  -0.142
REMARK UNBOUND:                -0.133
REMARK  Name = 1550473
REMARK  2 active torsions:
REMARK  status: ('A' for Active; 'I' for Inactive)
REMARK    1  A    between atoms: N_1  and  C_4
REMARK    2  A    between atoms: C_4  and  C_5
REMARK                            x       y       z     vdW  Elec       q    Type
REMARK                         _______ _______ _______ _____ _____    ______ ____
ROOT
ATOM      1  N   UNL     1      -8.138   9.643  -7.752  0.00  0.00    -0.354 N 
ATOM      2  N   UNL     1      -6.609   8.906  -6.177  0.00  0.00    -0.372 N 
ATOM      3  N   UNL     1      -5.954  10.490  -7.702  0.00  0.00    -0.372 N 
ATOM      4  C   UNL     1      -6.909   9.686  -7.222  0.00  0.00    +0.166 C 
ATOM      5  H   UNL     1      -8.808   8.991  -7.361  0.00  0.00    +0.163 HD
ATOM      6  H   UNL     1      -5.691   8.919  -5.754  0.00  0.00    +0.159 HD
ATOM      7  H   UNL     1      -7.294   8.288  -5.759  0.00  0.00    +0.159 HD
ATOM      8  H   UNL     1      -6.114  11.099  -8.493  0.00  0.00    +0.159 HD
ATOM      9  H   UNL     1      -5.025  10.509  -7.299  0.00  0.00    +0.159 HD
ENDROOT
BRANCH   1  10
ATOM     10  C   UNL     1      -8.582  10.491  -8.857  0.00  0.00    +0.151 C 
BRANCH  10  11
ATOM     11  C   UNL     1      -9.238   9.632  -9.903  0.00  0.00    -0.028 A 
ATOM     12  C   UNL     1     -10.504   9.965 -10.406  0.00  0.00    +0.005 A 
ATOM     13  C   UNL     1      -8.596   8.487 -10.398  0.00  0.00    +0.005 A 
ATOM     14  C   UNL     1     -11.100   9.184 -11.399  0.00  0.00    +0.000 A 
ATOM     15  C   UNL     1      -9.195   7.709 -11.389  0.00  0.00    +0.000 A 
ATOM     16  C   UNL     1     -10.446   8.059 -11.891  0.00  0.00    +0.000 A 
ENDBRANCH  10  11
ENDBRANCH   1  10
TORSDOF 2
ENDMDL
MODEL 9
REMARK VINA RESULT:    -5.651     20.954     23.222
REMARK INTER + INTRA:          -6.445
REMARK INTER:                  -6.335
REMARK INTRA:                  -0.110
REMARK UNBOUND:                -0.133
REMARK  Name = 1550473
REMARK  2 active torsions:
REMARK  status: ('A' for Active; 'I' for Inactive)
REMARK    1  A    between atoms: N_1  and  C_4
REMARK    2  A    between atoms: C_4  and  C_5
REMARK                            x       y       z     vdW  Elec       q    Type
REMARK                         _______ _______ _______ _____ _____    ______ ____
ROOT
ATOM      1  N   UNL     1      -9.362  -0.829 -10.724  0.00  0.00    -0.354 N 
ATOM      2  N   UNL     1      -8.310   0.764  -9.412  0.00  0.00    -0.372 N 
ATOM      3  N   UNL     1      -7.988  -1.457  -8.932  0.00  0.00    -0.372 N 
ATOM      4  C   UNL     1      -8.560  -0.520  -9.696  0.00  0.00    +0.166 C 
ATOM      5  H   UNL     1      -9.788  -0.072 -11.246  0.00  0.00    +0.163 HD
ATOM      6  H   UNL     1      -7.706   1.027  -8.644  0.00  0.00    +0.159 HD
ATOM      7  H   UNL     1      -8.701   1.517  -9.964  0.00  0.00    +0.159 HD
ATOM      8  H   UNL     1      -8.141  -2.444  -9.090  0.00  0.00    +0.159 HD
ATOM      9  H   UNL     1      -7.391  -1.213  -8.152  0.00  0.00    +0.159 HD
ENDROOT
BRANCH   1  10
ATOM     10  C   UNL     1      -9.654  -2.196 -11.151  0.00  0.00    +0.151 C 
BRANCH  10  11
ATOM     11  C   UNL     1     -10.599  -2.154 -12.320  0.00  0.00    -0.028 A 
ATOM     12  C   UNL     1     -11.679  -3.045 -12.395  0.00  0.00    +0.005 A 
ATOM     13  C   UNL     1     -10.422  -1.222 -13.354  0.00  0.00    +0.005 A 
ATOM     14  C   UNL     1     -12.574  -2.987 -13.466  0.00  0.00    +0.000 A 
ATOM     15  C   UNL     1     -11.318  -1.167 -14.422  0.00  0.00    +0.000 A 
ATOM     16  C   UNL     1     -12.395  -2.048 -14.476  0.00  0.00    +0.000 A 
ENDBRANCH  10  11
ENDBRANCH   1  10
TORSDOF 2
ENDMDL
