MODEL 1
REMARK VINA RESULT:    -4.874      0.000      0.000
REMARK INTER + INTRA:          -5.594
REMARK INTER:                  -5.444
REMARK INTRA:                  -0.151
REMARK UNBOUND:                -0.151
REMARK  Name = 1550473
REMARK  2 active torsions:
REMARK  status: ('A' for Active; 'I' for Inactive)
REMARK    1  A    between atoms: N_1  and  C_4
REMARK    2  A    between atoms: C_4  and  C_5
REMARK                            x       y       z     vdW  Elec       q    Type
REMARK                         _______ _______ _______ _____ _____    ______ ____
ROOT
ATOM      1  N   UNL     1       7.932  -3.224  14.192  0.00  0.00    -0.354 N 
ATOM      2  N   UNL     1       8.139  -5.429  14.869  0.00  0.00    -0.372 N 
ATOM      3  N   UNL     1       9.593  -3.868  15.714  0.00  0.00    -0.372 N 
ATOM      4  C   UNL     1       8.556  -4.158  14.922  0.00  0.00    +0.166 C 
ATOM      5  H   UNL     1       7.171  -3.514  13.588  0.00  0.00    +0.163 HD
ATOM      6  H   UNL     1       8.588  -6.155  15.411  0.00  0.00    +0.159 HD
ATOM      7  H   UNL     1       7.349  -5.708  14.299  0.00  0.00    +0.159 HD
ATOM      8  H   UNL     1       9.960  -2.929  15.794  0.00  0.00    +0.159 HD
ATOM      9  H   UNL     1      10.063  -4.583  16.255  0.00  0.00    +0.159 HD
ENDROOT
BRANCH   1  10
ATOM     10  C   UNL     1       8.273  -1.803  14.219  0.00  0.00    +0.151 C 
BRANCH  10  11
ATOM     11  C   UNL     1       8.958  -1.437  12.931  0.00  0.00    -0.028 A 
ATOM     12  C   UNL     1       8.774  -2.218  11.780  0.00  0.00    +0.005 A 
ATOM     13  C   UNL     1       9.788  -0.308  12.854  0.00  0.00    +0.005 A 
ATOM     14  C   UNL     1       9.386  -1.861  10.576  0.00  0.00    +0.000 A 
ATOM     15  C   UNL     1      10.398   0.044  11.650  0.00  0.00    +0.000 A 
ATOM     16  C   UNL     1      10.195  -0.732  10.511  0.00  0.00    +0.000 A 
ENDBRANCH  10  11
ENDBRANCH   1  10
TORSDOF 2
ENDMDL
MODEL 2
REMARK VINA RESULT:    -4.645     29.437     30.994
REMARK INTER + INTRA:          -5.339
REMARK INTER:                  -5.229
REMARK INTRA:                  -0.110
REMARK UNBOUND:                -0.151
REMARK  Name = 1550473
REMARK  2 active torsions:
REMARK  status: ('A' for Active; 'I' for Inactive)
REMARK    1  A    between atoms: N_1  and  C_4
REMARK    2  A    between atoms: C_4  and  C_5
REMARK                            x       y       z     vdW  Elec       q    Type
REMARK                         _______ _______ _______ _____ _____    ______ ____
ROOT
ATOM      1  N   UNL     1      -0.735  -1.129 -14.952  0.00  0.00    -0.354 N 
ATOM      2  N   UNL     1       0.972  -0.171 -13.714  0.00  0.00    -0.372 N 
ATOM      3  N   UNL     1       1.498  -1.292 -15.646  0.00  0.00    -0.372 N 
ATOM      4  C   UNL     1       0.569  -0.872 -14.781  0.00  0.00    +0.166 C 
ATOM      5  H   UNL     1      -1.386  -0.809 -14.244  0.00  0.00    +0.163 HD
ATOM      6  H   UNL     1       1.949   0.041 -13.560  0.00  0.00    +0.159 HD
ATOM      7  H   UNL     1       0.315   0.187 -13.032  0.00  0.00    +0.159 HD
ATOM      8  H   UNL     1       1.259  -1.831 -16.468  0.00  0.00    +0.159 HD
ATOM      9  H   UNL     1       2.481  -1.100 -15.503  0.00  0.00    +0.159 HD
ENDROOT
BRANCH   1  10
ATOM     10  C   UNL     1      -1.284  -1.837 -16.107  0.00  0.00    +0.151 C 
BRANCH  10  11
ATOM     11  C   UNL     1      -2.770  -1.985 -15.932  0.00  0.00    -0.028 A 
ATOM     12  C   UNL     1      -3.536  -0.926 -15.422  0.00  0.00    +0.005 A 
ATOM     13  C   UNL     1      -3.420  -3.179 -16.280  0.00  0.00    +0.005 A 
ATOM     14  C   UNL     1      -4.920  -1.053 -15.287  0.00  0.00    +0.000 A 
ATOM     15  C   UNL     1      -4.802  -3.302 -16.143  0.00  0.00    +0.000 A 
ATOM     16  C   UNL     1      -5.552  -2.237 -15.649  0.00  0.00    +0.000 A 
ENDBRANCH  10  11
ENDBRANCH   1  10
TORSDOF 2
ENDMDL
MODEL 3
REMARK VINA RESULT:    -4.606     19.552     20.687
REMARK INTER + INTRA:          -5.295
REMARK INTER:                  -5.137
REMARK INTRA:                  -0.158
REMARK UNBOUND:                -0.151
REMARK  Name = 1550473
REMARK  2 active torsions:
REMARK  status: ('A' for Active; 'I' for Inactive)
REMARK    1  A    between atoms: N_1  and  C_4
REMARK    2  A    between atoms: C_4  and  C_5
REMARK                            x       y       z     vdW  Elec       q    Type
REMARK                         _______ _______ _______ _____ _____    ______ ____
ROOT
ATOM      1  N   UNL     1      -2.040   4.396  -0.582  0.00  0.00    -0.354 N 
ATOM      2  N   UNL     1      -1.523   3.277   1.379  0.00  0.00    -0.372 N 
ATOM      3  N   UNL     1      -1.932   2.056  -0.520  0.00  0.00    -0.372 N 
ATOM      4  C   UNL     1      -1.836   3.248   0.078  0.00  0.00    +0.166 C 
ATOM      5  H   UNL     1      -1.981   5.265  -0.065  0.00  0.00    +0.163 HD
ATOM      6  H   UNL     1      -1.361   2.428   1.903  0.00  0.00    +0.159 HD
ATOM      7  H   UNL     1      -1.420   4.150   1.883  0.00  0.00    +0.159 HD
ATOM      8  H   UNL     1      -2.171   1.965  -1.498  0.00  0.00    +0.159 HD
ATOM      9  H   UNL     1      -1.784   1.194  -0.010  0.00  0.00    +0.159 HD
ENDROOT
BRANCH   1  10
ATOM     10  C   UNL     1      -2.332   4.476  -2.012  0.00  0.00    +0.151 C 
BRANCH  10  11
ATOM     11  C   UNL     1      -3.666   5.141  -2.205  0.00  0.00    -0.028 A 
ATOM     12  C   UNL     1      -4.854   4.443  -1.941  0.00  0.00    +0.005 A 
ATOM     13  C   UNL     1      -3.750   6.471  -2.645  0.00  0.00    +0.005 A 
ATOM     14  C   UNL     1      -6.094   5.070  -2.090  0.00  0.00    +0.000 A 
ATOM     15  C   UNL     1      -4.990   7.093  -2.794  0.00  0.00    +0.000 A 
ATOM     16  C   UNL     1      -6.161   6.393  -2.514  0.00  0.00    +0.000 A 
ENDBRANCH  10  11
ENDBRANCH   1  10
TORSDOF 2
ENDMDL
MODEL 4
REMARK VINA RESULT:    -4.508      1.606      2.753
REMARK INTER + INTRA:          -5.186
REMARK INTER:                  -5.084
REMARK INTRA:                  -0.102
REMARK UNBOUND:                -0.151
REMARK  Name = 1550473
REMARK  2 active torsions:
REMARK  status: ('A' for Active; 'I' for Inactive)
REMARK    1  A    between atoms: N_1  and  C_4
REMARK    2  A    between atoms: C_4  and  C_5
REMARK                            x       y       z     vdW  Elec       q    Type
REMARK                         _______ _______ _______ _____ _____    ______ ____
ROOT
ATOM      1  N   UNL     1       7.525  -2.431  14.326  0.00  0.00    -0.354 N 
ATOM      2  N   UNL     1       5.717  -1.722  15.588  0.00  0.00    -0.372 N 
ATOM      3  N   UNL     1       5.411  -2.149  13.354  0.00  0.00    -0.372 N 
ATOM      4  C   UNL     1       6.228  -2.106  14.411  0.00  0.00    +0.166 C 
ATOM      5  H   UNL     1       8.098  -2.349  15.157  0.00  0.00    +0.163 HD
ATOM      6  H   UNL     1       4.741  -1.474  15.684  0.00  0.00    +0.159 HD
ATOM      7  H   UNL     1       6.281  -1.685  16.427  0.00  0.00    +0.159 HD
ATOM      8  H   UNL     1       5.736  -2.424  12.437  0.00  0.00    +0.159 HD
ATOM      9  H   UNL     1       4.434  -1.893  13.428  0.00  0.00    +0.159 HD
ENDROOT
BRANCH   1  10
ATOM     10  C   UNL     1       8.168  -2.913  13.104  0.00  0.00    +0.151 C 
BRANCH  10  11
ATOM     11  C   UNL     1       8.919  -1.778  12.465  0.00  0.00    -0.028 A 
ATOM     12  C   UNL     1       9.161  -0.593  13.176  0.00  0.00    +0.005 A 
ATOM     13  C   UNL     1       9.397  -1.883  11.149  0.00  0.00    +0.005 A 
ATOM     14  C   UNL     1       9.885   0.450  12.593  0.00  0.00    +0.000 A 
ATOM     15  C   UNL     1      10.118  -0.839  10.570  0.00  0.00    +0.000 A 
ATOM     16  C   UNL     1      10.364   0.326  11.293  0.00  0.00    +0.000 A 
ENDBRANCH  10  11
ENDBRANCH   1  10
TORSDOF 2
ENDMDL
MODEL 5
REMARK VINA RESULT:    -4.505      3.130      3.894
REMARK INTER + INTRA:          -5.182
REMARK INTER:                  -5.075
REMARK INTRA:                  -0.107
REMARK UNBOUND:                -0.151
REMARK  Name = 1550473
REMARK  2 active torsions:
REMARK  status: ('A' for Active; 'I' for Inactive)
REMARK    1  A    between atoms: N_1  and  C_4
REMARK    2  A    between atoms: C_4  and  C_5
REMARK                            x       y       z     vdW  Elec       q    Type
REMARK                         _______ _______ _______ _____ _____    ______ ____
ROOT
ATOM      1  N   UNL     1       5.056  -1.669  12.515  0.00  0.00    -0.354 N 
ATOM      2  N   UNL     1       2.889  -1.114  11.913  0.00  0.00    -0.372 N 
ATOM      3  N   UNL     1       3.658  -0.494  13.984  0.00  0.00    -0.372 N 
ATOM      4  C   UNL     1       3.882  -1.095  12.811  0.00  0.00    +0.166 C 
ATOM      5  H   UNL     1       5.152  -2.134  11.620  0.00  0.00    +0.163 HD
ATOM      6  H   UNL     1       1.994  -0.686  12.106  0.00  0.00    +0.159 HD
ATOM      7  H   UNL     1       3.003  -1.539  11.001  0.00  0.00    +0.159 HD
ATOM      8  H   UNL     1       4.364  -0.451  14.707  0.00  0.00    +0.159 HD
ATOM      9  H   UNL     1       2.764  -0.070  14.201  0.00  0.00    +0.159 HD
ENDROOT
BRANCH   1  10
ATOM     10  C   UNL     1       6.218  -1.657  13.401  0.00  0.00    +0.151 C 
BRANCH  10  11
ATOM     11  C   UNL     1       7.469  -1.579  12.570  0.00  0.00    -0.028 A 
ATOM     12  C   UNL     1       7.717  -2.527  11.567  0.00  0.00    +0.005 A 
ATOM     13  C   UNL     1       8.407  -0.555  12.777  0.00  0.00    +0.005 A 
ATOM     14  C   UNL     1       8.864  -2.437  10.774  0.00  0.00    +0.000 A 
ATOM     15  C   UNL     1       9.551  -0.470  11.984  0.00  0.00    +0.000 A 
ATOM     16  C   UNL     1       9.778  -1.409  10.981  0.00  0.00    +0.000 A 
ENDBRANCH  10  11
ENDBRANCH   1  10
TORSDOF 2
ENDMDL
MODEL 6
REMARK VINA RESULT:    -4.323     14.573     15.673
REMARK INTER + INTRA:          -4.979
REMARK INTER:                  -4.824
REMARK INTRA:                  -0.156
REMARK UNBOUND:                -0.151
REMARK  Name = 1550473
REMARK  2 active torsions:
REMARK  status: ('A' for Active; 'I' for Inactive)
REMARK    1  A    between atoms: N_1  and  C_4
REMARK    2  A    between atoms: C_4  and  C_5
REMARK                            x       y       z     vdW  Elec       q    Type
REMARK                         _______ _______ _______ _____ _____    ______ ____
ROOT
ATOM      1  N   UNL     1      13.311  11.640  19.374  0.00  0.00    -0.354 N 
ATOM      2  N   UNL     1      12.869  12.552  17.291  0.00  0.00    -0.372 N 
ATOM      3  N   UNL     1      11.962  10.513  17.824  0.00  0.00    -0.372 N 
ATOM      4  C   UNL     1      12.716  11.560  18.176  0.00  0.00    +0.166 C 
ATOM      5  H   UNL     1      13.894  12.446  19.568  0.00  0.00    +0.163 HD
ATOM      6  H   UNL     1      12.429  12.521  16.382  0.00  0.00    +0.159 HD
ATOM      7  H   UNL     1      13.414  13.378  17.506  0.00  0.00    +0.159 HD
ATOM      8  H   UNL     1      11.812   9.728  18.444  0.00  0.00    +0.159 HD
ATOM      9  H   UNL     1      11.523  10.458  16.913  0.00  0.00    +0.159 HD
ENDROOT
BRANCH   1  10
ATOM     10  C   UNL     1      13.165  10.638  20.428  0.00  0.00    +0.151 C 
BRANCH  10  11
ATOM     11  C   UNL     1      14.472   9.916  20.606  0.00  0.00    -0.028 A 
ATOM     12  C   UNL     1      14.499   8.526  20.787  0.00  0.00    +0.005 A 
ATOM     13  C   UNL     1      15.688  10.617  20.588  0.00  0.00    +0.005 A 
ATOM     14  C   UNL     1      15.715   7.851  20.921  0.00  0.00    +0.000 A 
ATOM     15  C   UNL     1      16.900   9.940  20.724  0.00  0.00    +0.000 A 
ATOM     16  C   UNL     1      16.913   8.557  20.888  0.00  0.00    +0.000 A 
ENDBRANCH  10  11
ENDBRANCH   1  10
TORSDOF 2
ENDMDL
MODEL 7
REMARK VINA RESULT:    -4.256     26.694     27.994
REMARK INTER + INTRA:          -4.905
REMARK INTER:                  -4.780
REMARK INTRA:                  -0.125
REMARK UNBOUND:                -0.151
REMARK  Name = 1550473
REMARK  2 active torsions:
REMARK  status: ('A' for Active; 'I' for Inactive)
REMARK    1  A    between atoms: N_1  and  C_4
REMARK    2  A    between atoms: C_4  and  C_5
REMARK                            x       y       z     vdW  Elec       q    Type
REMARK                         _______ _______ _______ _____ _____    ______ ____
ROOT
ATOM      1  N   UNL     1      -1.311 -17.243  -5.882  0.00  0.00    -0.354 N 
ATOM      2  N   UNL     1      -0.058 -17.214  -3.934  0.00  0.00    -0.372 N 
ATOM      3  N   UNL     1       1.031 -17.308  -5.952  0.00  0.00    -0.372 N 
ATOM      4  C   UNL     1      -0.119 -17.255  -5.271  0.00  0.00    +0.166 C 
ATOM      5  H   UNL     1      -2.146 -17.233  -5.308  0.00  0.00    +0.163 HD
ATOM      6  H   UNL     1       0.827 -17.219  -3.445  0.00  0.00    +0.159 HD
ATOM      7  H   UNL     1      -0.894 -17.157  -3.365  0.00  0.00    +0.159 HD
ATOM      8  H   UNL     1       1.053 -17.347  -6.962  0.00  0.00    +0.159 HD
ATOM      9  H   UNL     1       1.926 -17.326  -5.480  0.00  0.00    +0.159 HD
ENDROOT
BRANCH   1  10
ATOM     10  C   UNL     1      -1.485 -17.231  -7.334  0.00  0.00    +0.151 C 
BRANCH  10  11
ATOM     11  C   UNL     1      -2.910 -17.585  -7.660  0.00  0.00    -0.028 A 
ATOM     12  C   UNL     1      -3.357 -17.584  -8.990  0.00  0.00    +0.005 A 
ATOM     13  C   UNL     1      -3.816 -17.927  -6.645  0.00  0.00    +0.005 A 
ATOM     14  C   UNL     1      -4.672 -17.942  -9.296  0.00  0.00    +0.000 A 
ATOM     15  C   UNL     1      -5.129 -18.283  -6.955  0.00  0.00    +0.000 A 
ATOM     16  C   UNL     1      -5.555 -18.293  -8.281  0.00  0.00    +0.000 A 
ENDBRANCH  10  11
ENDBRANCH   1  10
TORSDOF 2
ENDMDL
MODEL 8
REMARK VINA RESULT:    -4.232      5.559      6.767
REMARK INTER + INTRA:          -4.877
REMARK INTER:                  -4.747
REMARK INTRA:                  -0.130
REMARK UNBOUND:                -0.151
REMARK  Name = 1550473
REMARK  2 active torsions:
REMARK  status: ('A' for Active; 'I' for Inactive)
REMARK    1  A    between atoms: N_1  and  C_4
REMARK    2  A    between atoms: C_4  and  C_5
REMARK                            x       y       z     vdW  Elec       q    Type
REMARK                         _______ _______ _______ _____ _____    ______ ____
ROOT
ATOM      1  N   UNL     1       2.526   0.031  13.195  0.00  0.00    -0.354 N 
ATOM      2  N   UNL     1       1.399   1.829  14.122  0.00  0.00    -0.372 N 
ATOM      3  N   UNL     1       0.777   1.083  12.044  0.00  0.00    -0.372 N 
ATOM      4  C   UNL     1       1.573   0.969  13.112  0.00  0.00    +0.166 C 
ATOM      5  H   UNL     1       3.116   0.017  14.019  0.00  0.00    +0.163 HD
ATOM      6  H   UNL     1       0.686   2.546  14.089  0.00  0.00    +0.159 HD
ATOM      7  H   UNL     1       1.960   1.783  14.964  0.00  0.00    +0.159 HD
ATOM      8  H   UNL     1       0.862   0.468  11.245  0.00  0.00    +0.159 HD
ATOM      9  H   UNL     1       0.066   1.801  11.987  0.00  0.00    +0.159 HD
ENDROOT
BRANCH   1  10
ATOM     10  C   UNL     1       2.763  -0.987  12.174  0.00  0.00    +0.151 C 
BRANCH  10  11
ATOM     11  C   UNL     1       4.197  -1.431  12.246  0.00  0.00    -0.028 A 
ATOM     12  C   UNL     1       5.109  -0.762  13.076  0.00  0.00    +0.005 A 
ATOM     13  C   UNL     1       4.651  -2.524  11.491  0.00  0.00    +0.005 A 
ATOM     14  C   UNL     1       6.435  -1.193  13.166  0.00  0.00    +0.000 A 
ATOM     15  C   UNL     1       5.976  -2.950  11.583  0.00  0.00    +0.000 A 
ATOM     16  C   UNL     1       6.867  -2.286  12.422  0.00  0.00    +0.000 A 
ENDBRANCH  10  11
ENDBRANCH   1  10
TORSDOF 2
ENDMDL
MODEL 9
REMARK VINA RESULT:    -4.230     29.300     30.499
REMARK INTER + INTRA:          -4.876
REMARK INTER:                  -4.736
REMARK INTRA:                  -0.140
REMARK UNBOUND:                -0.151
REMARK  Name = 1550473
REMARK  2 active torsions:
REMARK  status: ('A' for Active; 'I' for Inactive)
REMARK    1  A    between atoms: N_1  and  C_4
REMARK    2  A    between atoms: C_4  and  C_5
REMARK                            x       y       z     vdW  Elec       q    Type
REMARK                         _______ _______ _______ _____ _____    ______ ____
ROOT
ATOM      1  N   UNL     1      -7.458 -19.555  -7.286  0.00  0.00    -0.354 N 
ATOM      2  N   UNL     1      -8.600 -21.544  -7.610  0.00  0.00    -0.372 N 
ATOM      3  N   UNL     1      -7.402 -21.256  -5.675  0.00  0.00    -0.372 N 
ATOM      4  C   UNL     1      -7.811 -20.773  -6.852  0.00  0.00    +0.166 C 
ATOM      5  H   UNL     1      -7.777 -19.259  -8.202  0.00  0.00    +0.163 HD
ATOM      6  H   UNL     1      -8.885 -22.466  -7.308  0.00  0.00    +0.159 HD
ATOM      7  H   UNL     1      -8.955 -21.228  -8.504  0.00  0.00    +0.159 HD
ATOM      8  H   UNL     1      -6.800 -20.726  -5.058  0.00  0.00    +0.159 HD
ATOM      9  H   UNL     1      -7.667 -22.181  -5.360  0.00  0.00    +0.159 HD
ENDROOT
BRANCH   1  10
ATOM     10  C   UNL     1      -6.647 -18.616  -6.514  0.00  0.00    +0.151 C 
BRANCH  10  11
ATOM     11  C   UNL     1      -5.418 -18.263  -7.305  0.00  0.00    -0.028 A 
ATOM     12  C   UNL     1      -4.174 -18.133  -6.669  0.00  0.00    +0.005 A 
ATOM     13  C   UNL     1      -5.488 -18.062  -8.692  0.00  0.00    +0.005 A 
ATOM     14  C   UNL     1      -3.027 -17.835  -7.408  0.00  0.00    +0.000 A 
ATOM     15  C   UNL     1      -4.341 -17.763  -9.426  0.00  0.00    +0.000 A 
ATOM     16  C   UNL     1      -3.110 -17.652  -8.784  0.00  0.00    +0.000 A 
ENDBRANCH  10  11
ENDBRANCH   1  10
TORSDOF 2
ENDMDL
