MODEL 1
REMARK VINA RESULT:    -5.448      0.000      0.000
REMARK INTER + INTRA:          -6.244
REMARK INTER:                  -6.085
REMARK INTRA:                  -0.158
REMARK UNBOUND:                -0.158
REMARK  Name = 1550473
REMARK  2 active torsions:
REMARK  status: ('A' for Active; 'I' for Inactive)
REMARK    1  A    between atoms: N_1  and  C_4
REMARK    2  A    between atoms: C_4  and  C_5
REMARK                            x       y       z     vdW  Elec       q    Type
REMARK                         _______ _______ _______ _____ _____    ______ ____
ROOT
ATOM      1  N   UNL     1      -1.675  -2.423 -14.197  0.00  0.00    -0.354 N 
ATOM      2  N   UNL     1      -0.454  -1.464 -15.915  0.00  0.00    -0.372 N 
ATOM      3  N   UNL     1      -2.218  -2.836 -16.439  0.00  0.00    -0.372 N 
ATOM      4  C   UNL     1      -1.459  -2.249 -15.507  0.00  0.00    +0.166 C 
ATOM      5  H   UNL     1      -1.045  -1.974 -13.541  0.00  0.00    +0.163 HD
ATOM      6  H   UNL     1      -0.269  -1.311 -16.898  0.00  0.00    +0.159 HD
ATOM      7  H   UNL     1       0.145  -0.980 -15.258  0.00  0.00    +0.159 HD
ATOM      8  H   UNL     1      -2.988  -3.445 -16.197  0.00  0.00    +0.159 HD
ATOM      9  H   UNL     1      -2.040  -2.704 -17.427  0.00  0.00    +0.159 HD
ENDROOT
BRANCH   1  10
ATOM     10  C   UNL     1      -2.775  -3.214 -13.648  0.00  0.00    +0.151 C 
BRANCH  10  11
ATOM     11  C   UNL     1      -2.208  -4.368 -12.868  0.00  0.00    -0.028 A 
ATOM     12  C   UNL     1      -1.491  -5.383 -13.518  0.00  0.00    +0.005 A 
ATOM     13  C   UNL     1      -2.380  -4.450 -11.478  0.00  0.00    +0.005 A 
ATOM     14  C   UNL     1      -0.938  -6.440 -12.790  0.00  0.00    +0.000 A 
ATOM     15  C   UNL     1      -1.827  -5.507 -10.755  0.00  0.00    +0.000 A 
ATOM     16  C   UNL     1      -1.104  -6.501 -11.411  0.00  0.00    +0.000 A 
ENDBRANCH  10  11
ENDBRANCH   1  10
TORSDOF 2
ENDMDL
MODEL 2
REMARK VINA RESULT:    -5.306      4.384      5.860
REMARK INTER + INTRA:          -6.085
REMARK INTER:                  -5.911
REMARK INTRA:                  -0.174
REMARK UNBOUND:                -0.158
REMARK  Name = 1550473
REMARK  2 active torsions:
REMARK  status: ('A' for Active; 'I' for Inactive)
REMARK    1  A    between atoms: N_1  and  C_4
REMARK    2  A    between atoms: C_4  and  C_5
REMARK                            x       y       z     vdW  Elec       q    Type
REMARK                         _______ _______ _______ _____ _____    ______ ____
ROOT
ATOM      1  N   UNL     1      -0.687  -8.997 -12.989  0.00  0.00    -0.354 N 
ATOM      2  N   UNL     1      -1.921 -10.953 -13.115  0.00  0.00    -0.372 N 
ATOM      3  N   UNL     1      -1.019 -10.339 -11.096  0.00  0.00    -0.372 N 
ATOM      4  C   UNL     1      -1.200 -10.084 -12.396  0.00  0.00    +0.166 C 
ATOM      5  H   UNL     1      -0.835  -8.877 -13.985  0.00  0.00    +0.163 HD
ATOM      6  H   UNL     1      -2.323 -11.780 -12.694  0.00  0.00    +0.159 HD
ATOM      7  H   UNL     1      -2.106 -10.807 -14.099  0.00  0.00    +0.159 HD
ATOM      8  H   UNL     1      -0.479  -9.725 -10.501  0.00  0.00    +0.159 HD
ATOM      9  H   UNL     1      -1.403 -11.167 -10.660  0.00  0.00    +0.159 HD
ENDROOT
BRANCH   1  10
ATOM     10  C   UNL     1       0.067  -7.961 -12.286  0.00  0.00    +0.151 C 
BRANCH  10  11
ATOM     11  C   UNL     1      -0.801  -6.743 -12.127  0.00  0.00    -0.028 A 
ATOM     12  C   UNL     1      -1.273  -6.365 -10.861  0.00  0.00    +0.005 A 
ATOM     13  C   UNL     1      -1.152  -5.961 -13.238  0.00  0.00    +0.005 A 
ATOM     14  C   UNL     1      -2.054  -5.217 -10.709  0.00  0.00    +0.000 A 
ATOM     15  C   UNL     1      -1.933  -4.816 -13.082  0.00  0.00    +0.000 A 
ATOM     16  C   UNL     1      -2.382  -4.443 -11.818  0.00  0.00    +0.000 A 
ENDBRANCH  10  11
ENDBRANCH   1  10
TORSDOF 2
ENDMDL
MODEL 3
REMARK VINA RESULT:    -5.226     15.416     16.985
REMARK INTER + INTRA:          -5.995
REMARK INTER:                  -5.828
REMARK INTRA:                  -0.168
REMARK UNBOUND:                -0.158
REMARK  Name = 1550473
REMARK  2 active torsions:
REMARK  status: ('A' for Active; 'I' for Inactive)
REMARK    1  A    between atoms: N_1  and  C_4
REMARK    2  A    between atoms: C_4  and  C_5
REMARK                            x       y       z     vdW  Elec       q    Type
REMARK                         _______ _______ _______ _____ _____    ______ ____
ROOT
ATOM      1  N   UNL     1      -7.591   9.385 -11.238  0.00  0.00    -0.354 N 
ATOM      2  N   UNL     1      -6.145   8.270  -9.813  0.00  0.00    -0.372 N 
ATOM      3  N   UNL     1      -8.297   7.503 -10.033  0.00  0.00    -0.372 N 
ATOM      4  C   UNL     1      -7.356   8.392 -10.370  0.00  0.00    +0.166 C 
ATOM      5  H   UNL     1      -6.844  10.044 -11.429  0.00  0.00    +0.163 HD
ATOM      6  H   UNL     1      -5.937   7.528  -9.158  0.00  0.00    +0.159 HD
ATOM      7  H   UNL     1      -5.388   8.902 -10.041  0.00  0.00    +0.159 HD
ATOM      8  H   UNL     1      -9.233   7.544 -10.414  0.00  0.00    +0.159 HD
ATOM      9  H   UNL     1      -8.112   6.761  -9.370  0.00  0.00    +0.159 HD
ENDROOT
BRANCH   1  10
ATOM     10  C   UNL     1      -8.858   9.575 -11.941  0.00  0.00    +0.151 C 
BRANCH  10  11
ATOM     11  C   UNL     1      -9.625  10.687 -11.281  0.00  0.00    -0.028 A 
ATOM     12  C   UNL     1     -11.005  10.569 -11.062  0.00  0.00    +0.005 A 
ATOM     13  C   UNL     1      -8.975  11.860 -10.866  0.00  0.00    +0.005 A 
ATOM     14  C   UNL     1     -11.712  11.590 -10.422  0.00  0.00    +0.000 A 
ATOM     15  C   UNL     1      -9.685  12.877 -10.228  0.00  0.00    +0.000 A 
ATOM     16  C   UNL     1     -11.052  12.741 -10.003  0.00  0.00    +0.000 A 
ENDBRANCH  10  11
ENDBRANCH   1  10
TORSDOF 2
ENDMDL
MODEL 4
REMARK VINA RESULT:    -4.941     30.651     31.603
REMARK INTER + INTRA:          -5.677
REMARK INTER:                  -5.499
REMARK INTRA:                  -0.178
REMARK UNBOUND:                -0.158
REMARK  Name = 1550473
REMARK  2 active torsions:
REMARK  status: ('A' for Active; 'I' for Inactive)
REMARK    1  A    between atoms: N_1  and  C_4
REMARK    2  A    between atoms: C_4  and  C_5
REMARK                            x       y       z     vdW  Elec       q    Type
REMARK                         _______ _______ _______ _____ _____    ______ ____
ROOT
ATOM      1  N   UNL     1     -14.194   9.798  12.362  0.00  0.00    -0.354 N 
ATOM      2  N   UNL     1     -16.079   8.617  13.008  0.00  0.00    -0.372 N 
ATOM      3  N   UNL     1     -14.697   7.715  11.415  0.00  0.00    -0.372 N 
ATOM      4  C   UNL     1     -14.977   8.716  12.256  0.00  0.00    +0.166 C 
ATOM      5  H   UNL     1     -14.478  10.537  12.996  0.00  0.00    +0.163 HD
ATOM      6  H   UNL     1     -16.687   7.811  12.952  0.00  0.00    +0.159 HD
ATOM      7  H   UNL     1     -16.335   9.336  13.675  0.00  0.00    +0.159 HD
ATOM      8  H   UNL     1     -13.883   7.731  10.815  0.00  0.00    +0.159 HD
ATOM      9  H   UNL     1     -15.299   6.905  11.336  0.00  0.00    +0.159 HD
ENDROOT
BRANCH   1  10
ATOM     10  C   UNL     1     -12.944   9.979  11.627  0.00  0.00    +0.151 C 
BRANCH  10  11
ATOM     11  C   UNL     1     -11.788   9.744  12.559  0.00  0.00    -0.028 A 
ATOM     12  C   UNL     1     -11.232   8.463  12.695  0.00  0.00    +0.005 A 
ATOM     13  C   UNL     1     -11.239  10.799  13.305  0.00  0.00    +0.005 A 
ATOM     14  C   UNL     1     -10.138   8.250  13.538  0.00  0.00    +0.000 A 
ATOM     15  C   UNL     1     -10.148  10.581  14.146  0.00  0.00    +0.000 A 
ATOM     16  C   UNL     1      -9.597   9.308  14.261  0.00  0.00    +0.000 A 
ENDBRANCH  10  11
ENDBRANCH   1  10
TORSDOF 2
ENDMDL
MODEL 5
REMARK VINA RESULT:    -4.913     31.709     32.978
REMARK INTER + INTRA:          -5.646
REMARK INTER:                  -5.530
REMARK INTRA:                  -0.116
REMARK UNBOUND:                -0.158
REMARK  Name = 1550473
REMARK  2 active torsions:
REMARK  status: ('A' for Active; 'I' for Inactive)
REMARK    1  A    between atoms: N_1  and  C_4
REMARK    2  A    between atoms: C_4  and  C_5
REMARK                            x       y       z     vdW  Elec       q    Type
REMARK                         _______ _______ _______ _____ _____    ______ ____
ROOT
ATOM      1  N   UNL     1      -7.115  10.243  15.880  0.00  0.00    -0.354 N 
ATOM      2  N   UNL     1      -5.935   9.532  17.741  0.00  0.00    -0.372 N 
ATOM      3  N   UNL     1      -6.063  11.780  17.301  0.00  0.00    -0.372 N 
ATOM      4  C   UNL     1      -6.378  10.526  16.962  0.00  0.00    +0.166 C 
ATOM      5  H   UNL     1      -7.294   9.270  15.660  0.00  0.00    +0.163 HD
ATOM      6  H   UNL     1      -5.380   9.715  18.566  0.00  0.00    +0.159 HD
ATOM      7  H   UNL     1      -6.154   8.563  17.545  0.00  0.00    +0.159 HD
ATOM      8  H   UNL     1      -6.361  12.575  16.751  0.00  0.00    +0.159 HD
ATOM      9  H   UNL     1      -5.498  11.983  18.116  0.00  0.00    +0.159 HD
ENDROOT
BRANCH   1  10
ATOM     10  C   UNL     1      -7.691  11.254  14.995  0.00  0.00    +0.151 C 
BRANCH  10  11
ATOM     11  C   UNL     1      -8.921  10.690  14.339  0.00  0.00    -0.028 A 
ATOM     12  C   UNL     1      -8.977   9.336  13.977  0.00  0.00    +0.005 A 
ATOM     13  C   UNL     1     -10.035  11.503  14.080  0.00  0.00    +0.005 A 
ATOM     14  C   UNL     1     -10.130   8.804  13.394  0.00  0.00    +0.000 A 
ATOM     15  C   UNL     1     -11.184  10.968  13.497  0.00  0.00    +0.000 A 
ATOM     16  C   UNL     1     -11.232   9.618  13.157  0.00  0.00    +0.000 A 
ENDBRANCH  10  11
ENDBRANCH   1  10
TORSDOF 2
ENDMDL
MODEL 6
REMARK VINA RESULT:    -4.879      2.313      3.537
REMARK INTER + INTRA:          -5.608
REMARK INTER:                  -5.449
REMARK INTRA:                  -0.159
REMARK UNBOUND:                -0.158
REMARK  Name = 1550473
REMARK  2 active torsions:
REMARK  status: ('A' for Active; 'I' for Inactive)
REMARK    1  A    between atoms: N_1  and  C_4
REMARK    2  A    between atoms: C_4  and  C_5
REMARK                            x       y       z     vdW  Elec       q    Type
REMARK                         _______ _______ _______ _____ _____    ______ ____
ROOT
ATOM      1  N   UNL     1      -1.999  -4.836 -12.061  0.00  0.00    -0.354 N 
ATOM      2  N   UNL     1      -2.738  -3.460 -13.771  0.00  0.00    -0.372 N 
ATOM      3  N   UNL     1      -4.215  -4.935 -12.818  0.00  0.00    -0.372 N 
ATOM      4  C   UNL     1      -2.982  -4.421 -12.872  0.00  0.00    +0.166 C 
ATOM      5  H   UNL     1      -1.078  -4.427 -12.173  0.00  0.00    +0.163 HD
ATOM      6  H   UNL     1      -3.461  -3.124 -14.394  0.00  0.00    +0.159 HD
ATOM      7  H   UNL     1      -1.829  -3.020 -13.849  0.00  0.00    +0.159 HD
ATOM      8  H   UNL     1      -4.461  -5.668 -12.166  0.00  0.00    +0.159 HD
ATOM      9  H   UNL     1      -4.948  -4.620 -13.441  0.00  0.00    +0.159 HD
ENDROOT
BRANCH   1  10
ATOM     10  C   UNL     1      -2.173  -5.839 -11.012  0.00  0.00    +0.151 C 
BRANCH  10  11
ATOM     11  C   UNL     1      -1.510  -7.118 -11.441  0.00  0.00    -0.028 A 
ATOM     12  C   UNL     1      -0.369  -7.091 -12.256  0.00  0.00    +0.005 A 
ATOM     13  C   UNL     1      -2.014  -8.362 -11.030  0.00  0.00    +0.005 A 
ATOM     14  C   UNL     1       0.265  -8.278 -12.629  0.00  0.00    +0.000 A 
ATOM     15  C   UNL     1      -1.378  -9.545 -11.406  0.00  0.00    +0.000 A 
ATOM     16  C   UNL     1      -0.237  -9.503 -12.203  0.00  0.00    +0.000 A 
ENDBRANCH  10  11
ENDBRANCH   1  10
TORSDOF 2
ENDMDL
MODEL 7
REMARK VINA RESULT:    -4.872     26.156     27.230
REMARK INTER + INTRA:          -5.600
REMARK INTER:                  -5.474
REMARK INTRA:                  -0.126
REMARK UNBOUND:                -0.158
REMARK  Name = 1550473
REMARK  2 active torsions:
REMARK  status: ('A' for Active; 'I' for Inactive)
REMARK    1  A    between atoms: N_1  and  C_4
REMARK    2  A    between atoms: C_4  and  C_5
REMARK                            x       y       z     vdW  Elec       q    Type
REMARK                         _______ _______ _______ _____ _____    ______ ____
ROOT
ATOM      1  N   UNL     1       6.216 -10.025  12.087  0.00  0.00    -0.354 N 
ATOM      2  N   UNL     1       8.262 -10.439  11.085  0.00  0.00    -0.372 N 
ATOM      3  N   UNL     1       7.989  -8.506  12.291  0.00  0.00    -0.372 N 
ATOM      4  C   UNL     1       7.476  -9.651  11.829  0.00  0.00    +0.166 C 
ATOM      5  H   UNL     1       5.878 -10.890  11.682  0.00  0.00    +0.163 HD
ATOM      6  H   UNL     1       9.219 -10.185  10.876  0.00  0.00    +0.159 HD
ATOM      7  H   UNL     1       7.936 -11.325  10.720  0.00  0.00    +0.159 HD
ATOM      8  H   UNL     1       7.446  -7.865  12.853  0.00  0.00    +0.159 HD
ATOM      9  H   UNL     1       8.941  -8.229  12.083  0.00  0.00    +0.159 HD
ENDROOT
BRANCH   1  10
ATOM     10  C   UNL     1       5.295  -9.265  12.931  0.00  0.00    +0.151 C 
BRANCH  10  11
ATOM     11  C   UNL     1       3.882  -9.628  12.566  0.00  0.00    -0.028 A 
ATOM     12  C   UNL     1       3.573 -10.073  11.273  0.00  0.00    +0.005 A 
ATOM     13  C   UNL     1       2.849  -9.535  13.512  0.00  0.00    +0.005 A 
ATOM     14  C   UNL     1       2.265 -10.439  10.942  0.00  0.00    +0.000 A 
ATOM     15  C   UNL     1       1.545  -9.900  13.177  0.00  0.00    +0.000 A 
ATOM     16  C   UNL     1       1.254 -10.354  11.893  0.00  0.00    +0.000 A 
ENDBRANCH  10  11
ENDBRANCH   1  10
TORSDOF 2
ENDMDL
MODEL 8
REMARK VINA RESULT:    -4.704      3.820      5.256
REMARK INTER + INTRA:          -5.412
REMARK INTER:                  -5.283
REMARK INTRA:                  -0.129
REMARK UNBOUND:                -0.158
REMARK  Name = 1550473
REMARK  2 active torsions:
REMARK  status: ('A' for Active; 'I' for Inactive)
REMARK    1  A    between atoms: N_1  and  C_4
REMARK    2  A    between atoms: C_4  and  C_5
REMARK                            x       y       z     vdW  Elec       q    Type
REMARK                         _______ _______ _______ _____ _____    ______ ____
ROOT
ATOM      1  N   UNL     1      -1.564  -6.328 -11.457  0.00  0.00    -0.354 N 
ATOM      2  N   UNL     1      -3.083  -4.727 -10.753  0.00  0.00    -0.372 N 
ATOM      3  N   UNL     1      -3.299  -6.877  -9.980  0.00  0.00    -0.372 N 
ATOM      4  C   UNL     1      -2.640  -5.990 -10.734  0.00  0.00    +0.166 C 
ATOM      5  H   UNL     1      -1.127  -5.617 -12.031  0.00  0.00    +0.163 HD
ATOM      6  H   UNL     1      -3.890  -4.442 -10.215  0.00  0.00    +0.159 HD
ATOM      7  H   UNL     1      -2.616  -4.008 -11.292  0.00  0.00    +0.159 HD
ATOM      8  H   UNL     1      -3.020  -7.847  -9.927  0.00  0.00    +0.159 HD
ATOM      9  H   UNL     1      -4.116  -6.613  -9.444  0.00  0.00    +0.159 HD
ENDROOT
BRANCH   1  10
ATOM     10  C   UNL     1      -0.969  -7.664 -11.462  0.00  0.00    +0.151 C 
BRANCH  10  11
ATOM     11  C   UNL     1      -0.228  -7.866 -12.755  0.00  0.00    -0.028 A 
ATOM     12  C   UNL     1       0.613  -8.975 -12.928  0.00  0.00    +0.005 A 
ATOM     13  C   UNL     1      -0.367  -6.955 -13.814  0.00  0.00    +0.005 A 
ATOM     14  C   UNL     1       1.279  -9.179 -14.139  0.00  0.00    +0.000 A 
ATOM     15  C   UNL     1       0.300  -7.162 -15.021  0.00  0.00    +0.000 A 
ATOM     16  C   UNL     1       1.120  -8.275 -15.184  0.00  0.00    +0.000 A 
ENDBRANCH  10  11
ENDBRANCH   1  10
TORSDOF 2
ENDMDL
MODEL 9
REMARK VINA RESULT:    -4.611     32.530     33.667
REMARK INTER + INTRA:          -5.308
REMARK INTER:                  -5.186
REMARK INTRA:                  -0.123
REMARK UNBOUND:                -0.158
REMARK  Name = 1550473
REMARK  2 active torsions:
REMARK  status: ('A' for Active; 'I' for Inactive)
REMARK    1  A    between atoms: N_1  and  C_4
REMARK    2  A    between atoms: C_4  and  C_5
REMARK                            x       y       z     vdW  Elec       q    Type
REMARK                         _______ _______ _______ _____ _____    ______ ____
ROOT
ATOM      1  N   UNL     1       1.943  16.450  14.007  0.00  0.00    -0.354 N 
ATOM      2  N   UNL     1       2.925  16.885  16.059  0.00  0.00    -0.372 N 
ATOM      3  N   UNL     1       1.009  18.009  15.486  0.00  0.00    -0.372 N 
ATOM      4  C   UNL     1       1.950  17.114  15.171  0.00  0.00    +0.166 C 
ATOM      5  H   UNL     1       2.703  15.806  13.815  0.00  0.00    +0.163 HD
ATOM      6  H   UNL     1       2.955  17.368  16.947  0.00  0.00    +0.159 HD
ATOM      7  H   UNL     1       3.657  16.207  15.884  0.00  0.00    +0.159 HD
ATOM      8  H   UNL     1       0.249  18.231  14.857  0.00  0.00    +0.159 HD
ATOM      9  H   UNL     1       1.028  18.511  16.365  0.00  0.00    +0.159 HD
ENDROOT
BRANCH   1  10
ATOM     10  C   UNL     1       0.898  16.586  12.994  0.00  0.00    +0.151 C 
BRANCH  10  11
ATOM     11  C   UNL     1       1.525  16.518  11.629  0.00  0.00    -0.028 A 
ATOM     12  C   UNL     1       2.457  17.485  11.225  0.00  0.00    +0.005 A 
ATOM     13  C   UNL     1       1.196  15.486  10.738  0.00  0.00    +0.005 A 
ATOM     14  C   UNL     1       3.062  17.405   9.968  0.00  0.00    +0.000 A 
ATOM     15  C   UNL     1       1.802  15.410   9.484  0.00  0.00    +0.000 A 
ATOM     16  C   UNL     1       2.736  16.369   9.100  0.00  0.00    +0.000 A 
ENDBRANCH  10  11
ENDBRANCH   1  10
TORSDOF 2
ENDMDL
