MODEL 1
REMARK VINA RESULT:    -5.017      0.000      0.000
REMARK INTER + INTRA:          -5.763
REMARK INTER:                  -5.604
REMARK INTRA:                  -0.160
REMARK UNBOUND:                -0.160
REMARK  Name = 1550473
REMARK  2 active torsions:
REMARK  status: ('A' for Active; 'I' for Inactive)
REMARK    1  A    between atoms: N_1  and  C_4
REMARK    2  A    between atoms: C_4  and  C_5
REMARK                            x       y       z     vdW  Elec       q    Type
REMARK                         _______ _______ _______ _____ _____    ______ ____
ROOT
ATOM      1  N   UNL     1       2.795  -3.286  17.583  0.00  0.00    -0.354 N 
ATOM      2  N   UNL     1       1.893  -2.515  15.594  0.00  0.00    -0.372 N 
ATOM      3  N   UNL     1       0.534  -3.628  17.070  0.00  0.00    -0.372 N 
ATOM      4  C   UNL     1       1.744  -3.150  16.763  0.00  0.00    +0.166 C 
ATOM      5  H   UNL     1       3.693  -2.928  17.278  0.00  0.00    +0.163 HD
ATOM      6  H   UNL     1       1.118  -2.393  14.956  0.00  0.00    +0.159 HD
ATOM      7  H   UNL     1       2.781  -2.117  15.313  0.00  0.00    +0.159 HD
ATOM      8  H   UNL     1       0.357  -4.122  17.934  0.00  0.00    +0.159 HD
ATOM      9  H   UNL     1      -0.252  -3.527  16.439  0.00  0.00    +0.159 HD
ENDROOT
BRANCH   1  10
ATOM     10  C   UNL     1       2.727  -3.913  18.901  0.00  0.00    +0.151 C 
BRANCH  10  11
ATOM     11  C   UNL     1       3.646  -5.104  18.927  0.00  0.00    -0.028 A 
ATOM     12  C   UNL     1       3.339  -6.256  18.189  0.00  0.00    +0.005 A 
ATOM     13  C   UNL     1       4.828  -5.083  19.684  0.00  0.00    +0.005 A 
ATOM     14  C   UNL     1       4.207  -7.351  18.189  0.00  0.00    +0.000 A 
ATOM     15  C   UNL     1       5.691  -6.178  19.682  0.00  0.00    +0.000 A 
ATOM     16  C   UNL     1       5.382  -7.311  18.933  0.00  0.00    +0.000 A 
ENDBRANCH  10  11
ENDBRANCH   1  10
TORSDOF 2
ENDMDL
MODEL 2
REMARK VINA RESULT:    -4.929     37.672     38.507
REMARK INTER + INTRA:          -5.665
REMARK INTER:                  -5.505
REMARK INTRA:                  -0.160
REMARK UNBOUND:                -0.160
REMARK  Name = 1550473
REMARK  2 active torsions:
REMARK  status: ('A' for Active; 'I' for Inactive)
REMARK    1  A    between atoms: N_1  and  C_4
REMARK    2  A    between atoms: C_4  and  C_5
REMARK                            x       y       z     vdW  Elec       q    Type
REMARK                         _______ _______ _______ _____ _____    ______ ____
ROOT
ATOM      1  N   UNL     1      16.161 -12.937 -17.429  0.00  0.00    -0.354 N 
ATOM      2  N   UNL     1      17.455 -13.879 -19.104  0.00  0.00    -0.372 N 
ATOM      3  N   UNL     1      15.186 -14.218 -19.132  0.00  0.00    -0.372 N 
ATOM      4  C   UNL     1      16.256 -13.673 -18.545  0.00  0.00    +0.166 C 
ATOM      5  H   UNL     1      17.014 -12.576 -17.016  0.00  0.00    +0.163 HD
ATOM      6  H   UNL     1      17.558 -14.427 -19.947  0.00  0.00    +0.159 HD
ATOM      7  H   UNL     1      18.300 -13.479 -18.714  0.00  0.00    +0.159 HD
ATOM      8  H   UNL     1      14.254 -14.105 -18.757  0.00  0.00    +0.159 HD
ATOM      9  H   UNL     1      15.270 -14.780 -19.970  0.00  0.00    +0.159 HD
ENDROOT
BRANCH   1  10
ATOM     10  C   UNL     1      14.898 -12.608 -16.772  0.00  0.00    +0.151 C 
BRANCH  10  11
ATOM     11  C   UNL     1      14.565 -11.166 -17.039  0.00  0.00    -0.028 A 
ATOM     12  C   UNL     1      13.231 -10.756 -17.174  0.00  0.00    +0.005 A 
ATOM     13  C   UNL     1      15.580 -10.204 -17.153  0.00  0.00    +0.005 A 
ATOM     14  C   UNL     1      12.920  -9.412 -17.392  0.00  0.00    +0.000 A 
ATOM     15  C   UNL     1      15.266  -8.862 -17.372  0.00  0.00    +0.000 A 
ATOM     16  C   UNL     1      13.936  -8.467 -17.489  0.00  0.00    +0.000 A 
ENDBRANCH  10  11
ENDBRANCH   1  10
TORSDOF 2
ENDMDL
MODEL 3
REMARK VINA RESULT:    -4.881      2.711      5.911
REMARK INTER + INTRA:          -5.611
REMARK INTER:                  -5.466
REMARK INTRA:                  -0.145
REMARK UNBOUND:                -0.160
REMARK  Name = 1550473
REMARK  2 active torsions:
REMARK  status: ('A' for Active; 'I' for Inactive)
REMARK    1  A    between atoms: N_1  and  C_4
REMARK    2  A    between atoms: C_4  and  C_5
REMARK                            x       y       z     vdW  Elec       q    Type
REMARK                         _______ _______ _______ _____ _____    ______ ____
ROOT
ATOM      1  N   UNL     1       2.016  -4.860  17.302  0.00  0.00    -0.354 N 
ATOM      2  N   UNL     1       2.566  -5.644  19.411  0.00  0.00    -0.372 N 
ATOM      3  N   UNL     1       0.816  -6.614  18.289  0.00  0.00    -0.372 N 
ATOM      4  C   UNL     1       1.794  -5.702  18.319  0.00  0.00    +0.166 C 
ATOM      5  H   UNL     1       2.753  -4.171  17.399  0.00  0.00    +0.163 HD
ATOM      6  H   UNL     1       2.425  -6.269  20.193  0.00  0.00    +0.159 HD
ATOM      7  H   UNL     1       3.332  -4.985  19.486  0.00  0.00    +0.159 HD
ATOM      8  H   UNL     1       0.194  -6.706  17.496  0.00  0.00    +0.159 HD
ATOM      9  H   UNL     1       0.651  -7.241  19.066  0.00  0.00    +0.159 HD
ENDROOT
BRANCH   1  10
ATOM     10  C   UNL     1       1.266  -4.877  16.047  0.00  0.00    +0.151 C 
BRANCH  10  11
ATOM     11  C   UNL     1       0.617  -3.536  15.844  0.00  0.00    -0.028 A 
ATOM     12  C   UNL     1       1.212  -2.373  16.355  0.00  0.00    +0.005 A 
ATOM     13  C   UNL     1      -0.590  -3.421  15.138  0.00  0.00    +0.005 A 
ATOM     14  C   UNL     1       0.625  -1.123  16.141  0.00  0.00    +0.000 A 
ATOM     15  C   UNL     1      -1.174  -2.172  14.927  0.00  0.00    +0.000 A 
ATOM     16  C   UNL     1      -0.565  -1.023  15.427  0.00  0.00    +0.000 A 
ENDBRANCH  10  11
ENDBRANCH   1  10
TORSDOF 2
ENDMDL
MODEL 4
REMARK VINA RESULT:    -4.644     37.233     37.578
REMARK INTER + INTRA:          -5.347
REMARK INTER:                  -5.229
REMARK INTRA:                  -0.117
REMARK UNBOUND:                -0.160
REMARK  Name = 1550473
REMARK  2 active torsions:
REMARK  status: ('A' for Active; 'I' for Inactive)
REMARK    1  A    between atoms: N_1  and  C_4
REMARK    2  A    between atoms: C_4  and  C_5
REMARK                            x       y       z     vdW  Elec       q    Type
REMARK                         _______ _______ _______ _____ _____    ______ ____
ROOT
ATOM      1  N   UNL     1      12.311  -8.297 -18.588  0.00  0.00    -0.354 N 
ATOM      2  N   UNL     1      10.540  -7.368 -19.755  0.00  0.00    -0.372 N 
ATOM      3  N   UNL     1      11.754  -6.034 -18.336  0.00  0.00    -0.372 N 
ATOM      4  C   UNL     1      11.547  -7.237 -18.884  0.00  0.00    +0.166 C 
ATOM      5  H   UNL     1      12.084  -9.188 -19.014  0.00  0.00    +0.163 HD
ATOM      6  H   UNL     1       9.949  -6.585 -20.001  0.00  0.00    +0.159 HD
ATOM      7  H   UNL     1      10.344  -8.249 -20.214  0.00  0.00    +0.159 HD
ATOM      8  H   UNL     1      12.494  -5.871 -17.667  0.00  0.00    +0.159 HD
ATOM      9  H   UNL     1      11.166  -5.241 -18.561  0.00  0.00    +0.159 HD
ENDROOT
BRANCH   1  10
ATOM     10  C   UNL     1      13.466  -8.248 -17.693  0.00  0.00    +0.151 C 
BRANCH  10  11
ATOM     11  C   UNL     1      13.912  -9.651 -17.390  0.00  0.00    -0.028 A 
ATOM     12  C   UNL     1      12.974 -10.687 -17.270  0.00  0.00    +0.005 A 
ATOM     13  C   UNL     1      15.273  -9.954 -17.226  0.00  0.00    +0.005 A 
ATOM     14  C   UNL     1      13.390 -11.996 -17.018  0.00  0.00    +0.000 A 
ATOM     15  C   UNL     1      15.685 -11.262 -16.974  0.00  0.00    +0.000 A 
ATOM     16  C   UNL     1      14.743 -12.283 -16.872  0.00  0.00    +0.000 A 
ENDBRANCH  10  11
ENDBRANCH   1  10
TORSDOF 2
ENDMDL
MODEL 5
REMARK VINA RESULT:    -4.609     11.067     12.059
REMARK INTER + INTRA:          -5.307
REMARK INTER:                  -5.171
REMARK INTRA:                  -0.136
REMARK UNBOUND:                -0.160
REMARK  Name = 1550473
REMARK  2 active torsions:
REMARK  status: ('A' for Active; 'I' for Inactive)
REMARK    1  A    between atoms: N_1  and  C_4
REMARK    2  A    between atoms: C_4  and  C_5
REMARK                            x       y       z     vdW  Elec       q    Type
REMARK                         _______ _______ _______ _____ _____    ______ ____
ROOT
ATOM      1  N   UNL     1      13.522  -0.971  16.340  0.00  0.00    -0.354 N 
ATOM      2  N   UNL     1      13.562  -0.681  18.637  0.00  0.00    -0.372 N 
ATOM      3  N   UNL     1      12.528  -2.538  17.771  0.00  0.00    -0.372 N 
ATOM      4  C   UNL     1      13.202  -1.401  17.567  0.00  0.00    +0.166 C 
ATOM      5  H   UNL     1      14.008  -0.085  16.251  0.00  0.00    +0.163 HD
ATOM      6  H   UNL     1      13.337  -0.982  19.576  0.00  0.00    +0.159 HD
ATOM      7  H   UNL     1      14.087   0.180  18.548  0.00  0.00    +0.159 HD
ATOM      8  H   UNL     1      12.223  -3.123  17.005  0.00  0.00    +0.159 HD
ATOM      9  H   UNL     1      12.284  -2.850  18.702  0.00  0.00    +0.159 HD
ENDROOT
BRANCH   1  10
ATOM     10  C   UNL     1      13.225  -1.707  15.112  0.00  0.00    +0.151 C 
BRANCH  10  11
ATOM     11  C   UNL     1      14.441  -2.491  14.702  0.00  0.00    -0.028 A 
ATOM     12  C   UNL     1      14.309  -3.669  13.954  0.00  0.00    +0.005 A 
ATOM     13  C   UNL     1      15.728  -2.057  15.055  0.00  0.00    +0.005 A 
ATOM     14  C   UNL     1      15.440  -4.382  13.547  0.00  0.00    +0.000 A 
ATOM     15  C   UNL     1      16.855  -2.772  14.648  0.00  0.00    +0.000 A 
ATOM     16  C   UNL     1      16.710  -3.933  13.892  0.00  0.00    +0.000 A 
ENDBRANCH  10  11
ENDBRANCH   1  10
TORSDOF 2
ENDMDL
MODEL 6
REMARK VINA RESULT:    -4.576     24.591     25.247
REMARK INTER + INTRA:          -5.271
REMARK INTER:                  -5.101
REMARK INTRA:                  -0.171
REMARK UNBOUND:                -0.160
REMARK  Name = 1550473
REMARK  2 active torsions:
REMARK  status: ('A' for Active; 'I' for Inactive)
REMARK    1  A    between atoms: N_1  and  C_4
REMARK    2  A    between atoms: C_4  and  C_5
REMARK                            x       y       z     vdW  Elec       q    Type
REMARK                         _______ _______ _______ _____ _____    ______ ____
ROOT
ATOM      1  N   UNL     1      17.726  -5.003  -4.460  0.00  0.00    -0.354 N 
ATOM      2  N   UNL     1      16.615  -5.128  -6.489  0.00  0.00    -0.372 N 
ATOM      3  N   UNL     1      15.499  -4.301  -4.662  0.00  0.00    -0.372 N 
ATOM      4  C   UNL     1      16.618  -4.809  -5.189  0.00  0.00    +0.166 C 
ATOM      5  H   UNL     1      18.532  -5.420  -4.911  0.00  0.00    +0.163 HD
ATOM      6  H   UNL     1      15.795  -4.989  -7.064  0.00  0.00    +0.159 HD
ATOM      7  H   UNL     1      17.437  -5.501  -6.948  0.00  0.00    +0.159 HD
ATOM      8  H   UNL     1      15.434  -4.046  -3.686  0.00  0.00    +0.159 HD
ATOM      9  H   UNL     1      14.665  -4.166  -5.219  0.00  0.00    +0.159 HD
ENDROOT
BRANCH   1  10
ATOM     10  C   UNL     1      17.851  -4.640  -3.050  0.00  0.00    +0.151 C 
BRANCH  10  11
ATOM     11  C   UNL     1      17.536  -5.842  -2.203  0.00  0.00    -0.028 A 
ATOM     12  C   UNL     1      18.365  -6.973  -2.236  0.00  0.00    +0.005 A 
ATOM     13  C   UNL     1      16.413  -5.854  -1.361  0.00  0.00    +0.005 A 
ATOM     14  C   UNL     1      18.090  -8.078  -1.427  0.00  0.00    +0.000 A 
ATOM     15  C   UNL     1      16.142  -6.960  -0.556  0.00  0.00    +0.000 A 
ATOM     16  C   UNL     1      16.982  -8.071  -0.587  0.00  0.00    +0.000 A 
ENDBRANCH  10  11
ENDBRANCH   1  10
TORSDOF 2
ENDMDL
MODEL 7
REMARK VINA RESULT:    -4.480     12.978     14.031
REMARK INTER + INTRA:          -5.164
REMARK INTER:                  -5.033
REMARK INTRA:                  -0.131
REMARK UNBOUND:                -0.160
REMARK  Name = 1550473
REMARK  2 active torsions:
REMARK  status: ('A' for Active; 'I' for Inactive)
REMARK    1  A    between atoms: N_1  and  C_4
REMARK    2  A    between atoms: C_4  and  C_5
REMARK                            x       y       z     vdW  Elec       q    Type
REMARK                         _______ _______ _______ _____ _____    ______ ____
ROOT
ATOM      1  N   UNL     1      17.495   0.281  16.267  0.00  0.00    -0.354 N 
ATOM      2  N   UNL     1      18.777   2.080  15.572  0.00  0.00    -0.372 N 
ATOM      3  N   UNL     1      17.033   2.453  17.015  0.00  0.00    -0.372 N 
ATOM      4  C   UNL     1      17.758   1.594  16.291  0.00  0.00    +0.166 C 
ATOM      5  H   UNL     1      18.063  -0.313  15.674  0.00  0.00    +0.163 HD
ATOM      6  H   UNL     1      19.002   3.066  15.573  0.00  0.00    +0.159 HD
ATOM      7  H   UNL     1      19.372   1.478  15.016  0.00  0.00    +0.159 HD
ATOM      8  H   UNL     1      16.246   2.151  17.574  0.00  0.00    +0.159 HD
ATOM      9  H   UNL     1      17.235   3.445  17.020  0.00  0.00    +0.159 HD
ENDROOT
BRANCH   1  10
ATOM     10  C   UNL     1      16.441  -0.356  17.055  0.00  0.00    +0.151 C 
BRANCH  10  11
ATOM     11  C   UNL     1      15.522  -1.107  16.130  0.00  0.00    -0.028 A 
ATOM     12  C   UNL     1      15.992  -2.208  15.400  0.00  0.00    +0.005 A 
ATOM     13  C   UNL     1      14.180  -0.725  15.985  0.00  0.00    +0.005 A 
ATOM     14  C   UNL     1      15.131  -2.925  14.565  0.00  0.00    +0.000 A 
ATOM     15  C   UNL     1      13.324  -1.442  15.149  0.00  0.00    +0.000 A 
ATOM     16  C   UNL     1      13.799  -2.543  14.441  0.00  0.00    +0.000 A 
ENDBRANCH  10  11
ENDBRANCH   1  10
TORSDOF 2
ENDMDL
MODEL 8
REMARK VINA RESULT:    -4.386     20.653     22.187
REMARK INTER + INTRA:          -5.059
REMARK INTER:                  -4.919
REMARK INTRA:                  -0.140
REMARK UNBOUND:                -0.160
REMARK  Name = 1550473
REMARK  2 active torsions:
REMARK  status: ('A' for Active; 'I' for Inactive)
REMARK    1  A    between atoms: N_1  and  C_4
REMARK    2  A    between atoms: C_4  and  C_5
REMARK                            x       y       z     vdW  Elec       q    Type
REMARK                         _______ _______ _______ _____ _____    ______ ____
ROOT
ATOM      1  N   UNL     1      -1.116  14.244  26.009  0.00  0.00    -0.354 N 
ATOM      2  N   UNL     1      -2.186  12.322  25.285  0.00  0.00    -0.372 N 
ATOM      3  N   UNL     1      -0.347  12.123  26.643  0.00  0.00    -0.372 N 
ATOM      4  C   UNL     1      -1.207  12.908  25.985  0.00  0.00    +0.166 C 
ATOM      5  H   UNL     1      -1.780  14.782  25.465  0.00  0.00    +0.163 HD
ATOM      6  H   UNL     1      -2.282  11.316  25.251  0.00  0.00    +0.159 HD
ATOM      7  H   UNL     1      -2.876  12.863  24.779  0.00  0.00    +0.159 HD
ATOM      8  H   UNL     1       0.417  12.503  27.186  0.00  0.00    +0.159 HD
ATOM      9  H   UNL     1      -0.420  11.114  26.612  0.00  0.00    +0.159 HD
ENDROOT
BRANCH   1  10
ATOM     10  C   UNL     1      -0.120  14.982  26.784  0.00  0.00    +0.151 C 
BRANCH  10  11
ATOM     11  C   UNL     1       0.503  16.034  25.909  0.00  0.00    -0.028 A 
ATOM     12  C   UNL     1       1.048  17.198  26.471  0.00  0.00    +0.005 A 
ATOM     13  C   UNL     1       0.558  15.870  24.516  0.00  0.00    +0.005 A 
ATOM     14  C   UNL     1       1.654  18.161  25.661  0.00  0.00    +0.000 A 
ATOM     15  C   UNL     1       1.163  16.835  23.710  0.00  0.00    +0.000 A 
ATOM     16  C   UNL     1       1.713  17.979  24.283  0.00  0.00    +0.000 A 
ENDBRANCH  10  11
ENDBRANCH   1  10
TORSDOF 2
ENDMDL
MODEL 9
REMARK VINA RESULT:    -4.222     28.309     29.023
REMARK INTER + INTRA:          -4.876
REMARK INTER:                  -4.726
REMARK INTRA:                  -0.150
REMARK UNBOUND:                -0.160
REMARK  Name = 1550473
REMARK  2 active torsions:
REMARK  status: ('A' for Active; 'I' for Inactive)
REMARK    1  A    between atoms: N_1  and  C_4
REMARK    2  A    between atoms: C_4  and  C_5
REMARK                            x       y       z     vdW  Elec       q    Type
REMARK                         _______ _______ _______ _____ _____    ______ ____
ROOT
ATOM      1  N   UNL     1      14.212  22.726  21.187  0.00  0.00    -0.354 N 
ATOM      2  N   UNL     1      12.189  22.690  20.060  0.00  0.00    -0.372 N 
ATOM      3  N   UNL     1      14.071  21.936  18.985  0.00  0.00    -0.372 N 
ATOM      4  C   UNL     1      13.506  22.450  20.083  0.00  0.00    +0.166 C 
ATOM      5  H   UNL     1      13.731  23.143  21.975  0.00  0.00    +0.163 HD
ATOM      6  H   UNL     1      11.629  22.489  19.243  0.00  0.00    +0.159 HD
ATOM      7  H   UNL     1      11.702  23.064  20.866  0.00  0.00    +0.159 HD
ATOM      8  H   UNL     1      15.061  21.737  18.935  0.00  0.00    +0.159 HD
ATOM      9  H   UNL     1      13.529  21.739  18.153  0.00  0.00    +0.159 HD
ENDROOT
BRANCH   1  10
ATOM     10  C   UNL     1      15.641  22.452  21.333  0.00  0.00    +0.151 C 
BRANCH  10  11
ATOM     11  C   UNL     1      15.833  21.391  22.381  0.00  0.00    -0.028 A 
ATOM     12  C   UNL     1      15.112  21.439  23.583  0.00  0.00    +0.005 A 
ATOM     13  C   UNL     1      16.731  20.332  22.176  0.00  0.00    +0.005 A 
ATOM     14  C   UNL     1      15.268  20.437  24.544  0.00  0.00    +0.000 A 
ATOM     15  C   UNL     1      16.884  19.335  23.138  0.00  0.00    +0.000 A 
ATOM     16  C   UNL     1      16.151  19.386  24.321  0.00  0.00    +0.000 A 
ENDBRANCH  10  11
ENDBRANCH   1  10
TORSDOF 2
ENDMDL
