MODEL 1
REMARK VINA RESULT:    -4.573      0.000      0.000
REMARK INTER + INTRA:          -5.267
REMARK INTER:                  -5.107
REMARK INTRA:                  -0.159
REMARK UNBOUND:                -0.159
REMARK  Name = 1550473
REMARK  2 active torsions:
REMARK  status: ('A' for Active; 'I' for Inactive)
REMARK    1  A    between atoms: N_1  and  C_4
REMARK    2  A    between atoms: C_4  and  C_5
REMARK                            x       y       z     vdW  Elec       q    Type
REMARK                         _______ _______ _______ _____ _____    ______ ____
ROOT
ATOM      1  N   UNL     1     -12.770   3.532 -20.766  0.00  0.00    -0.354 N 
ATOM      2  N   UNL     1     -14.846   3.703 -19.753  0.00  0.00    -0.372 N 
ATOM      3  N   UNL     1     -14.472   1.989 -21.232  0.00  0.00    -0.372 N 
ATOM      4  C   UNL     1     -14.016   3.071 -20.592  0.00  0.00    +0.166 C 
ATOM      5  H   UNL     1     -12.495   4.374 -20.275  0.00  0.00    +0.163 HD
ATOM      6  H   UNL     1     -15.791   3.377 -19.599  0.00  0.00    +0.159 HD
ATOM      7  H   UNL     1     -14.554   4.519 -19.228  0.00  0.00    +0.159 HD
ATOM      8  H   UNL     1     -13.897   1.471 -21.883  0.00  0.00    +0.159 HD
ATOM      9  H   UNL     1     -15.418   1.654 -21.100  0.00  0.00    +0.159 HD
ENDROOT
BRANCH   1  10
ATOM     10  C   UNL     1     -11.771   2.886 -21.615  0.00  0.00    +0.151 C 
BRANCH  10  11
ATOM     11  C   UNL     1     -10.631   2.409 -20.758  0.00  0.00    -0.028 A 
ATOM     12  C   UNL     1      -9.385   3.052 -20.808  0.00  0.00    +0.005 A 
ATOM     13  C   UNL     1     -10.792   1.320 -19.888  0.00  0.00    +0.005 A 
ATOM     14  C   UNL     1      -8.335   2.628 -19.990  0.00  0.00    +0.000 A 
ATOM     15  C   UNL     1      -9.741   0.900 -19.073  0.00  0.00    +0.000 A 
ATOM     16  C   UNL     1      -8.514   1.556 -19.123  0.00  0.00    +0.000 A 
ENDBRANCH  10  11
ENDBRANCH   1  10
TORSDOF 2
ENDMDL
MODEL 2
REMARK VINA RESULT:    -4.521     18.187     19.424
REMARK INTER + INTRA:          -5.208
REMARK INTER:                  -5.055
REMARK INTRA:                  -0.153
REMARK UNBOUND:                -0.159
REMARK  Name = 1550473
REMARK  2 active torsions:
REMARK  status: ('A' for Active; 'I' for Inactive)
REMARK    1  A    between atoms: N_1  and  C_4
REMARK    2  A    between atoms: C_4  and  C_5
REMARK                            x       y       z     vdW  Elec       q    Type
REMARK                         _______ _______ _______ _____ _____    ______ ____
ROOT
ATOM      1  N   UNL     1      -6.232   1.770  -0.321  0.00  0.00    -0.354 N 
ATOM      2  N   UNL     1      -4.546   1.928   1.259  0.00  0.00    -0.372 N 
ATOM      3  N   UNL     1      -5.620   3.841   0.587  0.00  0.00    -0.372 N 
ATOM      4  C   UNL     1      -5.478   2.515   0.498  0.00  0.00    +0.166 C 
ATOM      5  H   UNL     1      -6.055   0.773  -0.365  0.00  0.00    +0.163 HD
ATOM      6  H   UNL     1      -3.964   2.463   1.889  0.00  0.00    +0.159 HD
ATOM      7  H   UNL     1      -4.402   0.925   1.247  0.00  0.00    +0.159 HD
ATOM      8  H   UNL     1      -6.301   4.345   0.035  0.00  0.00    +0.159 HD
ATOM      9  H   UNL     1      -5.038   4.396   1.203  0.00  0.00    +0.159 HD
ENDROOT
BRANCH   1  10
ATOM     10  C   UNL     1      -7.310   2.304  -1.151  0.00  0.00    +0.151 C 
BRANCH  10  11
ATOM     11  C   UNL     1      -6.943   2.135  -2.600  0.00  0.00    -0.028 A 
ATOM     12  C   UNL     1      -6.921   0.861  -3.185  0.00  0.00    +0.005 A 
ATOM     13  C   UNL     1      -6.623   3.247  -3.395  0.00  0.00    +0.005 A 
ATOM     14  C   UNL     1      -6.609   0.707  -4.538  0.00  0.00    +0.000 A 
ATOM     15  C   UNL     1      -6.312   3.089  -4.745  0.00  0.00    +0.000 A 
ATOM     16  C   UNL     1      -6.308   1.819  -5.317  0.00  0.00    +0.000 A 
ENDBRANCH  10  11
ENDBRANCH   1  10
TORSDOF 2
ENDMDL
MODEL 3
REMARK VINA RESULT:    -4.452     23.697     24.900
REMARK INTER + INTRA:          -5.131
REMARK INTER:                  -5.016
REMARK INTRA:                  -0.115
REMARK UNBOUND:                -0.159
REMARK  Name = 1550473
REMARK  2 active torsions:
REMARK  status: ('A' for Active; 'I' for Inactive)
REMARK    1  A    between atoms: N_1  and  C_4
REMARK    2  A    between atoms: C_4  and  C_5
REMARK                            x       y       z     vdW  Elec       q    Type
REMARK                         _______ _______ _______ _____ _____    ______ ____
ROOT
ATOM      1  N   UNL     1      -6.310  -2.918   4.528  0.00  0.00    -0.354 N 
ATOM      2  N   UNL     1      -5.881  -4.953   5.547  0.00  0.00    -0.372 N 
ATOM      3  N   UNL     1      -8.049  -4.215   5.413  0.00  0.00    -0.372 N 
ATOM      4  C   UNL     1      -6.752  -4.015   5.157  0.00  0.00    +0.166 C 
ATOM      5  H   UNL     1      -5.311  -2.812   4.391  0.00  0.00    +0.163 HD
ATOM      6  H   UNL     1      -6.185  -5.793   6.020  0.00  0.00    +0.159 HD
ATOM      7  H   UNL     1      -4.888  -4.866   5.368  0.00  0.00    +0.159 HD
ATOM      8  H   UNL     1      -8.757  -3.543   5.150  0.00  0.00    +0.159 HD
ATOM      9  H   UNL     1      -8.372  -5.044   5.896  0.00  0.00    +0.159 HD
ENDROOT
BRANCH   1  10
ATOM     10  C   UNL     1      -7.181  -1.863   4.015  0.00  0.00    +0.151 C 
BRANCH  10  11
ATOM     11  C   UNL     1      -6.429  -1.059   2.990  0.00  0.00    -0.028 A 
ATOM     12  C   UNL     1      -7.106  -0.457   1.920  0.00  0.00    +0.005 A 
ATOM     13  C   UNL     1      -5.039  -0.892   3.087  0.00  0.00    +0.005 A 
ATOM     14  C   UNL     1      -6.411   0.315   0.985  0.00  0.00    +0.000 A 
ATOM     15  C   UNL     1      -4.349  -0.122   2.151  0.00  0.00    +0.000 A 
ATOM     16  C   UNL     1      -5.036   0.483   1.102  0.00  0.00    +0.000 A 
ENDBRANCH  10  11
ENDBRANCH   1  10
TORSDOF 2
ENDMDL
MODEL 4
REMARK VINA RESULT:    -4.410     34.942     36.042
REMARK INTER + INTRA:          -5.085
REMARK INTER:                  -4.936
REMARK INTRA:                  -0.150
REMARK UNBOUND:                -0.159
REMARK  Name = 1550473
REMARK  2 active torsions:
REMARK  status: ('A' for Active; 'I' for Inactive)
REMARK    1  A    between atoms: N_1  and  C_4
REMARK    2  A    between atoms: C_4  and  C_5
REMARK                            x       y       z     vdW  Elec       q    Type
REMARK                         _______ _______ _______ _____ _____    ______ ____
ROOT
ATOM      1  N   UNL     1       3.509  -8.206   9.073  0.00  0.00    -0.354 N 
ATOM      2  N   UNL     1       4.426  -9.761   7.622  0.00  0.00    -0.372 N 
ATOM      3  N   UNL     1       5.622  -9.137   9.478  0.00  0.00    -0.372 N 
ATOM      4  C   UNL     1       4.515  -9.024   8.736  0.00  0.00    +0.166 C 
ATOM      5  H   UNL     1       2.711  -8.143   8.452  0.00  0.00    +0.163 HD
ATOM      6  H   UNL     1       5.167 -10.390   7.343  0.00  0.00    +0.159 HD
ATOM      7  H   UNL     1       3.606  -9.731   7.027  0.00  0.00    +0.159 HD
ATOM      8  H   UNL     1       5.753  -8.604  10.327  0.00  0.00    +0.159 HD
ATOM      9  H   UNL     1       6.379  -9.752   9.210  0.00  0.00    +0.159 HD
ENDROOT
BRANCH   1  10
ATOM     10  C   UNL     1       3.485  -7.401  10.293  0.00  0.00    +0.151 C 
BRANCH  10  11
ATOM     11  C   UNL     1       2.386  -7.902  11.190  0.00  0.00    -0.028 A 
ATOM     12  C   UNL     1       1.106  -8.153  10.675  0.00  0.00    +0.005 A 
ATOM     13  C   UNL     1       2.620  -8.132  12.554  0.00  0.00    +0.005 A 
ATOM     14  C   UNL     1       0.093  -8.647  11.501  0.00  0.00    +0.000 A 
ATOM     15  C   UNL     1       1.606  -8.625  13.376  0.00  0.00    +0.000 A 
ATOM     16  C   UNL     1       0.344  -8.884  12.848  0.00  0.00    +0.000 A 
ENDBRANCH  10  11
ENDBRANCH   1  10
TORSDOF 2
ENDMDL
MODEL 5
REMARK VINA RESULT:    -4.391      1.217      1.706
REMARK INTER + INTRA:          -5.064
REMARK INTER:                  -4.921
REMARK INTRA:                  -0.143
REMARK UNBOUND:                -0.159
REMARK  Name = 1550473
REMARK  2 active torsions:
REMARK  status: ('A' for Active; 'I' for Inactive)
REMARK    1  A    between atoms: N_1  and  C_4
REMARK    2  A    between atoms: C_4  and  C_5
REMARK                            x       y       z     vdW  Elec       q    Type
REMARK                         _______ _______ _______ _____ _____    ______ ____
ROOT
ATOM      1  N   UNL     1     -12.445   1.633 -22.208  0.00  0.00    -0.354 N 
ATOM      2  N   UNL     1     -14.236   0.237 -22.661  0.00  0.00    -0.372 N 
ATOM      3  N   UNL     1     -14.574   2.078 -21.334  0.00  0.00    -0.372 N 
ATOM      4  C   UNL     1     -13.741   1.327 -22.063  0.00  0.00    +0.166 C 
ATOM      5  H   UNL     1     -11.860   1.007 -22.748  0.00  0.00    +0.163 HD
ATOM      6  H   UNL     1     -15.211  -0.018 -22.572  0.00  0.00    +0.159 HD
ATOM      7  H   UNL     1     -13.659  -0.363 -23.238  0.00  0.00    +0.159 HD
ATOM      8  H   UNL     1     -14.261   2.911 -20.853  0.00  0.00    +0.159 HD
ATOM      9  H   UNL     1     -15.550   1.834 -21.224  0.00  0.00    +0.159 HD
ENDROOT
BRANCH   1  10
ATOM     10  C   UNL     1     -11.819   2.827 -21.642  0.00  0.00    +0.151 C 
BRANCH  10  11
ATOM     11  C   UNL     1     -10.650   2.413 -20.792  0.00  0.00    -0.028 A 
ATOM     12  C   UNL     1      -9.419   3.075 -20.902  0.00  0.00    +0.005 A 
ATOM     13  C   UNL     1     -10.769   1.362 -19.869  0.00  0.00    +0.005 A 
ATOM     14  C   UNL     1      -8.341   2.711 -20.091  0.00  0.00    +0.000 A 
ATOM     15  C   UNL     1      -9.691   1.001 -19.061  0.00  0.00    +0.000 A 
ATOM     16  C   UNL     1      -8.478   1.677 -19.171  0.00  0.00    +0.000 A 
ENDBRANCH  10  11
ENDBRANCH   1  10
TORSDOF 2
ENDMDL
MODEL 6
REMARK VINA RESULT:    -4.361     34.441     35.551
REMARK INTER + INTRA:          -5.031
REMARK INTER:                  -4.860
REMARK INTRA:                  -0.170
REMARK UNBOUND:                -0.159
REMARK  Name = 1550473
REMARK  2 active torsions:
REMARK  status: ('A' for Active; 'I' for Inactive)
REMARK    1  A    between atoms: N_1  and  C_4
REMARK    2  A    between atoms: C_4  and  C_5
REMARK                            x       y       z     vdW  Elec       q    Type
REMARK                         _______ _______ _______ _____ _____    ______ ____
ROOT
ATOM      1  N   UNL     1       4.679  -8.848   8.705  0.00  0.00    -0.354 N 
ATOM      2  N   UNL     1       6.279 -10.518   8.831  0.00  0.00    -0.372 N 
ATOM      3  N   UNL     1       4.150 -11.069   8.178  0.00  0.00    -0.372 N 
ATOM      4  C   UNL     1       5.023 -10.136   8.570  0.00  0.00    +0.166 C 
ATOM      5  H   UNL     1       5.380  -8.195   9.035  0.00  0.00    +0.163 HD
ATOM      6  H   UNL     1       6.569 -11.482   8.734  0.00  0.00    +0.159 HD
ATOM      7  H   UNL     1       6.989  -9.855   9.116  0.00  0.00    +0.159 HD
ATOM      8  H   UNL     1       3.185 -10.847   7.971  0.00  0.00    +0.159 HD
ATOM      9  H   UNL     1       4.418 -12.041   8.086  0.00  0.00    +0.159 HD
ENDROOT
BRANCH   1  10
ATOM     10  C   UNL     1       3.352  -8.320   8.395  0.00  0.00    +0.151 C 
BRANCH  10  11
ATOM     11  C   UNL     1       2.576  -8.159   9.673  0.00  0.00    -0.028 A 
ATOM     12  C   UNL     1       3.161  -7.543  10.789  0.00  0.00    +0.005 A 
ATOM     13  C   UNL     1       1.253  -8.615   9.773  0.00  0.00    +0.005 A 
ATOM     14  C   UNL     1       2.431  -7.366  11.966  0.00  0.00    +0.000 A 
ATOM     15  C   UNL     1       0.527  -8.438  10.951  0.00  0.00    +0.000 A 
ATOM     16  C   UNL     1       1.116  -7.811  12.046  0.00  0.00    +0.000 A 
ENDBRANCH  10  11
ENDBRANCH   1  10
TORSDOF 2
ENDMDL
MODEL 7
REMARK VINA RESULT:    -4.334     19.678     20.933
REMARK INTER + INTRA:          -5.000
REMARK INTER:                  -4.887
REMARK INTRA:                  -0.113
REMARK UNBOUND:                -0.159
REMARK  Name = 1550473
REMARK  2 active torsions:
REMARK  status: ('A' for Active; 'I' for Inactive)
REMARK    1  A    between atoms: N_1  and  C_4
REMARK    2  A    between atoms: C_4  and  C_5
REMARK                            x       y       z     vdW  Elec       q    Type
REMARK                         _______ _______ _______ _____ _____    ______ ____
ROOT
ATOM      1  N   UNL     1      -5.999   0.326   0.896  0.00  0.00    -0.354 N 
ATOM      2  N   UNL     1      -4.778  -0.510   2.677  0.00  0.00    -0.372 N 
ATOM      3  N   UNL     1      -4.105   1.452   1.695  0.00  0.00    -0.372 N 
ATOM      4  C   UNL     1      -4.967   0.430   1.744  0.00  0.00    +0.166 C 
ATOM      5  H   UNL     1      -6.599  -0.488   0.965  0.00  0.00    +0.163 HD
ATOM      6  H   UNL     1      -4.010  -0.457   3.333  0.00  0.00    +0.159 HD
ATOM      7  H   UNL     1      -5.406  -1.299   2.774  0.00  0.00    +0.159 HD
ATOM      8  H   UNL     1      -4.189   2.191   1.010  0.00  0.00    +0.159 HD
ATOM      9  H   UNL     1      -3.324   1.517   2.335  0.00  0.00    +0.159 HD
ENDROOT
BRANCH   1  10
ATOM     10  C   UNL     1      -6.325   1.324  -0.122  0.00  0.00    +0.151 C 
BRANCH  10  11
ATOM     11  C   UNL     1      -7.096   0.661  -1.230  0.00  0.00    -0.028 A 
ATOM     12  C   UNL     1      -8.055  -0.321  -0.942  0.00  0.00    +0.005 A 
ATOM     13  C   UNL     1      -6.876   1.015  -2.570  0.00  0.00    +0.005 A 
ATOM     14  C   UNL     1      -8.793  -0.915  -1.968  0.00  0.00    +0.000 A 
ATOM     15  C   UNL     1      -7.615   0.419  -3.592  0.00  0.00    +0.000 A 
ATOM     16  C   UNL     1      -8.574  -0.544  -3.291  0.00  0.00    +0.000 A 
ENDBRANCH  10  11
ENDBRANCH   1  10
TORSDOF 2
ENDMDL
MODEL 8
REMARK VINA RESULT:    -4.324     20.176     21.315
REMARK INTER + INTRA:          -4.989
REMARK INTER:                  -4.855
REMARK INTRA:                  -0.134
REMARK UNBOUND:                -0.159
REMARK  Name = 1550473
REMARK  2 active torsions:
REMARK  status: ('A' for Active; 'I' for Inactive)
REMARK    1  A    between atoms: N_1  and  C_4
REMARK    2  A    between atoms: C_4  and  C_5
REMARK                            x       y       z     vdW  Elec       q    Type
REMARK                         _______ _______ _______ _____ _____    ______ ____
ROOT
ATOM      1  N   UNL     1      -6.952   0.844  -1.318  0.00  0.00    -0.354 N 
ATOM      2  N   UNL     1      -6.666   0.717  -3.613  0.00  0.00    -0.372 N 
ATOM      3  N   UNL     1      -8.363  -0.481  -2.639  0.00  0.00    -0.372 N 
ATOM      4  C   UNL     1      -7.331   0.359  -2.508  0.00  0.00    +0.166 C 
ATOM      5  H   UNL     1      -6.142   1.452  -1.282  0.00  0.00    +0.163 HD
ATOM      6  H   UNL     1      -6.931   0.371  -4.525  0.00  0.00    +0.159 HD
ATOM      7  H   UNL     1      -5.886   1.362  -3.579  0.00  0.00    +0.159 HD
ATOM      8  H   UNL     1      -8.903  -0.794  -1.843  0.00  0.00    +0.159 HD
ATOM      9  H   UNL     1      -8.637  -0.848  -3.542  0.00  0.00    +0.159 HD
ENDROOT
BRANCH   1  10
ATOM     10  C   UNL     1      -7.642   0.558  -0.061  0.00  0.00    +0.151 C 
BRANCH  10  11
ATOM     11  C   UNL     1      -6.641   0.068   0.948  0.00  0.00    -0.028 A 
ATOM     12  C   UNL     1      -5.351   0.616   0.997  0.00  0.00    +0.005 A 
ATOM     13  C   UNL     1      -6.978  -0.942   1.863  0.00  0.00    +0.005 A 
ATOM     14  C   UNL     1      -4.431   0.182   1.954  0.00  0.00    +0.000 A 
ATOM     15  C   UNL     1      -6.056  -1.374   2.816  0.00  0.00    +0.000 A 
ATOM     16  C   UNL     1      -4.784  -0.810   2.863  0.00  0.00    +0.000 A 
ENDBRANCH  10  11
ENDBRANCH   1  10
TORSDOF 2
ENDMDL
MODEL 9
REMARK VINA RESULT:    -4.106     23.477     24.525
REMARK INTER + INTRA:          -4.745
REMARK INTER:                  -4.621
REMARK INTRA:                  -0.124
REMARK UNBOUND:                -0.159
REMARK  Name = 1550473
REMARK  2 active torsions:
REMARK  status: ('A' for Active; 'I' for Inactive)
REMARK    1  A    between atoms: N_1  and  C_4
REMARK    2  A    between atoms: C_4  and  C_5
REMARK                            x       y       z     vdW  Elec       q    Type
REMARK                         _______ _______ _______ _____ _____    ______ ____
ROOT
ATOM      1  N   UNL     1      -7.683   2.517   3.971  0.00  0.00    -0.354 N 
ATOM      2  N   UNL     1      -8.071   3.311   6.111  0.00  0.00    -0.372 N 
ATOM      3  N   UNL     1      -6.254   4.094   4.950  0.00  0.00    -0.372 N 
ATOM      4  C   UNL     1      -7.331   3.304   4.996  0.00  0.00    +0.166 C 
ATOM      5  H   UNL     1      -8.494   1.918   4.080  0.00  0.00    +0.163 HD
ATOM      6  H   UNL     1      -7.832   3.897   6.900  0.00  0.00    +0.159 HD
ATOM      7  H   UNL     1      -8.907   2.746   6.200  0.00  0.00    +0.159 HD
ATOM      8  H   UNL     1      -5.650   4.130   4.139  0.00  0.00    +0.159 HD
ATOM      9  H   UNL     1      -5.991   4.679   5.733  0.00  0.00    +0.159 HD
ENDROOT
BRANCH   1  10
ATOM     10  C   UNL     1      -6.976   2.474   2.692  0.00  0.00    +0.151 C 
BRANCH  10  11
ATOM     11  C   UNL     1      -6.107   1.248   2.652  0.00  0.00    -0.028 A 
ATOM     12  C   UNL     1      -5.063   1.145   1.721  0.00  0.00    +0.005 A 
ATOM     13  C   UNL     1      -6.318   0.187   3.546  0.00  0.00    +0.005 A 
ATOM     14  C   UNL     1      -4.237   0.019   1.703  0.00  0.00    +0.000 A 
ATOM     15  C   UNL     1      -5.491  -0.936   3.525  0.00  0.00    +0.000 A 
ATOM     16  C   UNL     1      -4.449  -1.019   2.605  0.00  0.00    +0.000 A 
ENDBRANCH  10  11
ENDBRANCH   1  10
TORSDOF 2
ENDMDL
