MODEL 1
REMARK VINA RESULT:    -5.627      0.000      0.000
REMARK INTER + INTRA:          -6.468
REMARK INTER:                  -6.285
REMARK INTRA:                  -0.183
REMARK UNBOUND:                -0.183
REMARK  Name = 1550473
REMARK  2 active torsions:
REMARK  status: ('A' for Active; 'I' for Inactive)
REMARK    1  A    between atoms: N_1  and  C_4
REMARK    2  A    between atoms: C_4  and  C_5
REMARK                            x       y       z     vdW  Elec       q    Type
REMARK                         _______ _______ _______ _____ _____    ______ ____
ROOT
ATOM      1  N   UNL     1      -5.371  -7.761 -11.046  0.00  0.00    -0.354 N 
ATOM      2  N   UNL     1      -4.868  -9.599  -9.731  0.00  0.00    -0.372 N 
ATOM      3  N   UNL     1      -6.825  -9.595 -10.929  0.00  0.00    -0.372 N 
ATOM      4  C   UNL     1      -5.694  -8.974 -10.578  0.00  0.00    +0.166 C 
ATOM      5  H   UNL     1      -4.513  -7.331 -10.718  0.00  0.00    +0.163 HD
ATOM      6  H   UNL     1      -5.084 -10.517  -9.364  0.00  0.00    +0.159 HD
ATOM      7  H   UNL     1      -3.990  -9.187  -9.440  0.00  0.00    +0.159 HD
ATOM      8  H   UNL     1      -7.493  -9.173 -11.561  0.00  0.00    +0.159 HD
ATOM      9  H   UNL     1      -7.064 -10.508 -10.564  0.00  0.00    +0.159 HD
ENDROOT
BRANCH   1  10
ATOM     10  C   UNL     1      -6.175  -7.017 -12.015  0.00  0.00    +0.151 C 
BRANCH  10  11
ATOM     11  C   UNL     1      -5.543  -7.139 -13.374  0.00  0.00    -0.028 A 
ATOM     12  C   UNL     1      -4.382  -6.418 -13.687  0.00  0.00    +0.005 A 
ATOM     13  C   UNL     1      -6.098  -7.979 -14.352  0.00  0.00    +0.005 A 
ATOM     14  C   UNL     1      -3.778  -6.554 -14.939  0.00  0.00    +0.000 A 
ATOM     15  C   UNL     1      -5.492  -8.111 -15.601  0.00  0.00    +0.000 A 
ATOM     16  C   UNL     1      -4.331  -7.401 -15.893  0.00  0.00    +0.000 A 
ENDBRANCH  10  11
ENDBRANCH   1  10
TORSDOF 2
ENDMDL
MODEL 2
REMARK VINA RESULT:    -5.369     16.789     18.020
REMARK INTER + INTRA:          -6.180
REMARK INTER:                  -6.068
REMARK INTRA:                  -0.111
REMARK UNBOUND:                -0.183
REMARK  Name = 1550473
REMARK  2 active torsions:
REMARK  status: ('A' for Active; 'I' for Inactive)
REMARK    1  A    between atoms: N_1  and  C_4
REMARK    2  A    between atoms: C_4  and  C_5
REMARK                            x       y       z     vdW  Elec       q    Type
REMARK                         _______ _______ _______ _____ _____    ______ ____
ROOT
ATOM      1  N   UNL     1      10.267 -10.777  -7.459  0.00  0.00    -0.354 N 
ATOM      2  N   UNL     1      10.684  -8.528  -7.821  0.00  0.00    -0.372 N 
ATOM      3  N   UNL     1      10.443  -9.916  -9.632  0.00  0.00    -0.372 N 
ATOM      4  C   UNL     1      10.462  -9.756  -8.305  0.00  0.00    +0.166 C 
ATOM      5  H   UNL     1      10.324 -10.595  -6.464  0.00  0.00    +0.163 HD
ATOM      6  H   UNL     1      10.831  -7.737  -8.435  0.00  0.00    +0.159 HD
ATOM      7  H   UNL     1      10.694  -8.340  -6.826  0.00  0.00    +0.159 HD
ATOM      8  H   UNL     1      10.286 -10.819 -10.060  0.00  0.00    +0.159 HD
ATOM      9  H   UNL     1      10.599  -9.140 -10.262  0.00  0.00    +0.159 HD
ENDROOT
BRANCH   1  10
ATOM     10  C   UNL     1       9.964 -12.143  -7.883  0.00  0.00    +0.151 C 
BRANCH  10  11
ATOM     11  C   UNL     1      10.201 -13.079  -6.730  0.00  0.00    -0.028 A 
ATOM     12  C   UNL     1      11.422 -13.063  -6.040  0.00  0.00    +0.005 A 
ATOM     13  C   UNL     1       9.207 -13.980  -6.319  0.00  0.00    +0.005 A 
ATOM     14  C   UNL     1      11.632 -13.911  -4.949  0.00  0.00    +0.000 A 
ATOM     15  C   UNL     1       9.421 -14.826  -5.231  0.00  0.00    +0.000 A 
ATOM     16  C   UNL     1      10.633 -14.789  -4.545  0.00  0.00    +0.000 A 
ENDBRANCH  10  11
ENDBRANCH   1  10
TORSDOF 2
ENDMDL
MODEL 3
REMARK VINA RESULT:    -5.254     16.701     17.629
REMARK INTER + INTRA:          -6.051
REMARK INTER:                  -5.921
REMARK INTRA:                  -0.130
REMARK UNBOUND:                -0.183
REMARK  Name = 1550473
REMARK  2 active torsions:
REMARK  status: ('A' for Active; 'I' for Inactive)
REMARK    1  A    between atoms: N_1  and  C_4
REMARK    2  A    between atoms: C_4  and  C_5
REMARK                            x       y       z     vdW  Elec       q    Type
REMARK                         _______ _______ _______ _____ _____    ______ ____
ROOT
ATOM      1  N   UNL     1       4.710   0.705   0.101  0.00  0.00    -0.354 N 
ATOM      2  N   UNL     1       5.331   0.640   2.331  0.00  0.00    -0.372 N 
ATOM      3  N   UNL     1       3.960  -1.008   1.514  0.00  0.00    -0.372 N 
ATOM      4  C   UNL     1       4.661   0.110   1.301  0.00  0.00    +0.166 C 
ATOM      5  H   UNL     1       5.234   1.567   0.012  0.00  0.00    +0.163 HD
ATOM      6  H   UNL     1       5.315   0.212   3.248  0.00  0.00    +0.159 HD
ATOM      7  H   UNL     1       5.892   1.477   2.229  0.00  0.00    +0.159 HD
ATOM      8  H   UNL     1       3.428  -1.455   0.779  0.00  0.00    +0.159 HD
ATOM      9  H   UNL     1       3.923  -1.445   2.426  0.00  0.00    +0.159 HD
ENDROOT
BRANCH   1  10
ATOM     10  C   UNL     1       4.060   0.180  -1.098  0.00  0.00    +0.151 C 
BRANCH  10  11
ATOM     11  C   UNL     1       3.669   1.328  -1.988  0.00  0.00    -0.028 A 
ATOM     12  C   UNL     1       4.115   2.628  -1.710  0.00  0.00    +0.005 A 
ATOM     13  C   UNL     1       2.857   1.121  -3.114  0.00  0.00    +0.005 A 
ATOM     14  C   UNL     1       3.777   3.689  -2.552  0.00  0.00    +0.000 A 
ATOM     15  C   UNL     1       2.521   2.184  -3.952  0.00  0.00    +0.000 A 
ATOM     16  C   UNL     1       2.983   3.467  -3.672  0.00  0.00    +0.000 A 
ENDBRANCH  10  11
ENDBRANCH   1  10
TORSDOF 2
ENDMDL
MODEL 4
REMARK VINA RESULT:    -5.201     12.795     13.556
REMARK INTER + INTRA:          -5.992
REMARK INTER:                  -5.813
REMARK INTRA:                  -0.179
REMARK UNBOUND:                -0.183
REMARK  Name = 1550473
REMARK  2 active torsions:
REMARK  status: ('A' for Active; 'I' for Inactive)
REMARK    1  A    between atoms: N_1  and  C_4
REMARK    2  A    between atoms: C_4  and  C_5
REMARK                            x       y       z     vdW  Elec       q    Type
REMARK                         _______ _______ _______ _____ _____    ______ ____
ROOT
ATOM      1  N   UNL     1       1.937  -2.661  -1.743  0.00  0.00    -0.354 N 
ATOM      2  N   UNL     1       2.069  -2.347   0.548  0.00  0.00    -0.372 N 
ATOM      3  N   UNL     1       0.260  -3.464  -0.317  0.00  0.00    -0.372 N 
ATOM      4  C   UNL     1       1.419  -2.827  -0.519  0.00  0.00    +0.166 C 
ATOM      5  H   UNL     1       2.804  -2.143  -1.833  0.00  0.00    +0.163 HD
ATOM      6  H   UNL     1       1.704  -2.460   1.484  0.00  0.00    +0.159 HD
ATOM      7  H   UNL     1       2.958  -1.870   0.459  0.00  0.00    +0.159 HD
ATOM      8  H   UNL     1      -0.282  -3.844  -1.080  0.00  0.00    +0.159 HD
ATOM      9  H   UNL     1      -0.127  -3.577   0.612  0.00  0.00    +0.159 HD
ENDROOT
BRANCH   1  10
ATOM     10  C   UNL     1       1.335  -3.192  -2.965  0.00  0.00    +0.151 C 
BRANCH  10  11
ATOM     11  C   UNL     1       2.099  -4.413  -3.398  0.00  0.00    -0.028 A 
ATOM     12  C   UNL     1       1.515  -5.685  -3.315  0.00  0.00    +0.005 A 
ATOM     13  C   UNL     1       3.406  -4.304  -3.899  0.00  0.00    +0.005 A 
ATOM     14  C   UNL     1       2.213  -6.816  -3.745  0.00  0.00    +0.000 A 
ATOM     15  C   UNL     1       4.099  -5.435  -4.326  0.00  0.00    +0.000 A 
ATOM     16  C   UNL     1       3.502  -6.691  -4.252  0.00  0.00    +0.000 A 
ENDBRANCH  10  11
ENDBRANCH   1  10
TORSDOF 2
ENDMDL
MODEL 5
REMARK VINA RESULT:    -5.052     15.322     16.613
REMARK INTER + INTRA:          -5.825
REMARK INTER:                  -5.699
REMARK INTRA:                  -0.127
REMARK UNBOUND:                -0.183
REMARK  Name = 1550473
REMARK  2 active torsions:
REMARK  status: ('A' for Active; 'I' for Inactive)
REMARK    1  A    between atoms: N_1  and  C_4
REMARK    2  A    between atoms: C_4  and  C_5
REMARK                            x       y       z     vdW  Elec       q    Type
REMARK                         _______ _______ _______ _____ _____    ______ ____
ROOT
ATOM      1  N   UNL     1       4.243  -0.328   0.020  0.00  0.00    -0.354 N 
ATOM      2  N   UNL     1       5.145   0.457   2.003  0.00  0.00    -0.372 N 
ATOM      3  N   UNL     1       3.990   1.912   0.657  0.00  0.00    -0.372 N 
ATOM      4  C   UNL     1       4.452   0.678   0.879  0.00  0.00    +0.166 C 
ATOM      5  H   UNL     1       4.645  -1.234   0.231  0.00  0.00    +0.163 HD
ATOM      6  H   UNL     1       5.316   1.195   2.672  0.00  0.00    +0.159 HD
ATOM      7  H   UNL     1       5.507  -0.461   2.234  0.00  0.00    +0.159 HD
ATOM      8  H   UNL     1       3.465   2.146  -0.175  0.00  0.00    +0.159 HD
ATOM      9  H   UNL     1       4.161   2.668   1.309  0.00  0.00    +0.159 HD
ENDROOT
BRANCH   1  10
ATOM     10  C   UNL     1       3.456  -0.206  -1.206  0.00  0.00    +0.151 C 
BRANCH  10  11
ATOM     11  C   UNL     1       2.599  -1.432  -1.365  0.00  0.00    -0.028 A 
ATOM     12  C   UNL     1       1.636  -1.757  -0.398  0.00  0.00    +0.005 A 
ATOM     13  C   UNL     1       2.742  -2.269  -2.482  0.00  0.00    +0.005 A 
ATOM     14  C   UNL     1       0.819  -2.879  -0.560  0.00  0.00    +0.000 A 
ATOM     15  C   UNL     1       1.925  -3.389  -2.639  0.00  0.00    +0.000 A 
ATOM     16  C   UNL     1       0.962  -3.692  -1.679  0.00  0.00    +0.000 A 
ENDBRANCH  10  11
ENDBRANCH   1  10
TORSDOF 2
ENDMDL
MODEL 6
REMARK VINA RESULT:    -5.016     15.001     16.263
REMARK INTER + INTRA:          -5.785
REMARK INTER:                  -5.616
REMARK INTRA:                  -0.168
REMARK UNBOUND:                -0.183
REMARK  Name = 1550473
REMARK  2 active torsions:
REMARK  status: ('A' for Active; 'I' for Inactive)
REMARK    1  A    between atoms: N_1  and  C_4
REMARK    2  A    between atoms: C_4  and  C_5
REMARK                            x       y       z     vdW  Elec       q    Type
REMARK                         _______ _______ _______ _____ _____    ______ ____
ROOT
ATOM      1  N   UNL     1       1.756  -2.462  -1.905  0.00  0.00    -0.354 N 
ATOM      2  N   UNL     1       1.485  -4.762  -1.869  0.00  0.00    -0.372 N 
ATOM      3  N   UNL     1       0.259  -3.478  -0.416  0.00  0.00    -0.372 N 
ATOM      4  C   UNL     1       1.167  -3.551  -1.395  0.00  0.00    +0.166 C 
ATOM      5  H   UNL     1       2.459  -2.587  -2.625  0.00  0.00    +0.163 HD
ATOM      6  H   UNL     1       1.055  -5.602  -1.506  0.00  0.00    +0.159 HD
ATOM      7  H   UNL     1       2.154  -4.881  -2.620  0.00  0.00    +0.159 HD
ATOM      8  H   UNL     1      -0.021  -2.595  -0.011  0.00  0.00    +0.159 HD
ATOM      9  H   UNL     1      -0.175  -4.308  -0.032  0.00  0.00    +0.159 HD
ENDROOT
BRANCH   1  10
ATOM     10  C   UNL     1       1.441  -1.094  -1.497  0.00  0.00    +0.151 C 
BRANCH  10  11
ATOM     11  C   UNL     1       2.641  -0.496  -0.816  0.00  0.00    -0.028 A 
ATOM     12  C   UNL     1       2.943  -0.824   0.514  0.00  0.00    +0.005 A 
ATOM     13  C   UNL     1       3.483   0.396  -1.497  0.00  0.00    +0.005 A 
ATOM     14  C   UNL     1       4.074  -0.292   1.137  0.00  0.00    +0.000 A 
ATOM     15  C   UNL     1       4.611   0.926  -0.871  0.00  0.00    +0.000 A 
ATOM     16  C   UNL     1       4.908   0.580   0.445  0.00  0.00    +0.000 A 
ENDBRANCH  10  11
ENDBRANCH   1  10
TORSDOF 2
ENDMDL
MODEL 7
REMARK VINA RESULT:    -4.999     14.097     15.220
REMARK INTER + INTRA:          -5.766
REMARK INTER:                  -5.587
REMARK INTRA:                  -0.179
REMARK UNBOUND:                -0.183
REMARK  Name = 1550473
REMARK  2 active torsions:
REMARK  status: ('A' for Active; 'I' for Inactive)
REMARK    1  A    between atoms: N_1  and  C_4
REMARK    2  A    between atoms: C_4  and  C_5
REMARK                            x       y       z     vdW  Elec       q    Type
REMARK                         _______ _______ _______ _____ _____    ______ ____
ROOT
ATOM      1  N   UNL     1       3.683  -0.959  -0.776  0.00  0.00    -0.354 N 
ATOM      2  N   UNL     1       4.104  -0.947   1.501  0.00  0.00    -0.372 N 
ATOM      3  N   UNL     1       1.929  -0.863   0.775  0.00  0.00    -0.372 N 
ATOM      4  C   UNL     1       3.233  -0.923   0.485  0.00  0.00    +0.166 C 
ATOM      5  H   UNL     1       4.685  -0.974  -0.930  0.00  0.00    +0.163 HD
ATOM      6  H   UNL     1       3.794  -0.924   2.464  0.00  0.00    +0.159 HD
ATOM      7  H   UNL     1       5.103  -1.008   1.346  0.00  0.00    +0.159 HD
ATOM      8  H   UNL     1       1.221  -0.836   0.054  0.00  0.00    +0.159 HD
ATOM      9  H   UNL     1       1.600  -0.827   1.732  0.00  0.00    +0.159 HD
ENDROOT
BRANCH   1  10
ATOM     10  C   UNL     1       2.816  -0.992  -1.953  0.00  0.00    +0.151 C 
BRANCH  10  11
ATOM     11  C   UNL     1       2.759  -2.398  -2.482  0.00  0.00    -0.028 A 
ATOM     12  C   UNL     1       3.706  -2.847  -3.415  0.00  0.00    +0.005 A 
ATOM     13  C   UNL     1       1.764  -3.289  -2.051  0.00  0.00    +0.005 A 
ATOM     14  C   UNL     1       3.671  -4.162  -3.885  0.00  0.00    +0.000 A 
ATOM     15  C   UNL     1       1.732  -4.601  -2.523  0.00  0.00    +0.000 A 
ATOM     16  C   UNL     1       2.687  -5.038  -3.438  0.00  0.00    +0.000 A 
ENDBRANCH  10  11
ENDBRANCH   1  10
TORSDOF 2
ENDMDL
MODEL 8
REMARK VINA RESULT:    -4.835      1.080      2.042
REMARK INTER + INTRA:          -5.583
REMARK INTER:                  -5.425
REMARK INTRA:                  -0.158
REMARK UNBOUND:                -0.183
REMARK  Name = 1550473
REMARK  2 active torsions:
REMARK  status: ('A' for Active; 'I' for Inactive)
REMARK    1  A    between atoms: N_1  and  C_4
REMARK    2  A    between atoms: C_4  and  C_5
REMARK                            x       y       z     vdW  Elec       q    Type
REMARK                         _______ _______ _______ _____ _____    ______ ____
ROOT
ATOM      1  N   UNL     1      -4.989  -8.857 -10.966  0.00  0.00    -0.354 N 
ATOM      2  N   UNL     1      -3.524  -9.627  -9.346  0.00  0.00    -0.372 N 
ATOM      3  N   UNL     1      -4.164  -7.424  -9.306  0.00  0.00    -0.372 N 
ATOM      4  C   UNL     1      -4.235  -8.628  -9.883  0.00  0.00    +0.166 C 
ATOM      5  H   UNL     1      -4.976  -9.785 -11.374  0.00  0.00    +0.163 HD
ATOM      6  H   UNL     1      -2.949  -9.485  -8.526  0.00  0.00    +0.159 HD
ATOM      7  H   UNL     1      -3.549 -10.564  -9.728  0.00  0.00    +0.159 HD
ATOM      8  H   UNL     1      -4.672  -6.627  -9.666  0.00  0.00    +0.159 HD
ATOM      9  H   UNL     1      -3.585  -7.259  -8.492  0.00  0.00    +0.159 HD
ENDROOT
BRANCH   1  10
ATOM     10  C   UNL     1      -5.842  -7.851 -11.596  0.00  0.00    +0.151 C 
BRANCH  10  11
ATOM     11  C   UNL     1      -5.369  -7.617 -13.004  0.00  0.00    -0.028 A 
ATOM     12  C   UNL     1      -5.966  -8.294 -14.078  0.00  0.00    +0.005 A 
ATOM     13  C   UNL     1      -4.328  -6.714 -13.271  0.00  0.00    +0.005 A 
ATOM     14  C   UNL     1      -5.546  -8.054 -15.389  0.00  0.00    +0.000 A 
ATOM     15  C   UNL     1      -3.912  -6.478 -14.582  0.00  0.00    +0.000 A 
ATOM     16  C   UNL     1      -4.523  -7.146 -15.640  0.00  0.00    +0.000 A 
ENDBRANCH  10  11
ENDBRANCH   1  10
TORSDOF 2
ENDMDL
MODEL 9
REMARK VINA RESULT:    -4.755     12.699     13.472
REMARK INTER + INTRA:          -5.494
REMARK INTER:                  -5.353
REMARK INTRA:                  -0.141
REMARK UNBOUND:                -0.183
REMARK  Name = 1550473
REMARK  2 active torsions:
REMARK  status: ('A' for Active; 'I' for Inactive)
REMARK    1  A    between atoms: N_1  and  C_4
REMARK    2  A    between atoms: C_4  and  C_5
REMARK                            x       y       z     vdW  Elec       q    Type
REMARK                         _______ _______ _______ _____ _____    ______ ____
ROOT
ATOM      1  N   UNL     1       1.813  -2.445  -1.902  0.00  0.00    -0.354 N 
ATOM      2  N   UNL     1       1.831  -2.526   0.412  0.00  0.00    -0.372 N 
ATOM      3  N   UNL     1       0.314  -3.813  -0.732  0.00  0.00    -0.372 N 
ATOM      4  C   UNL     1       1.317  -2.929  -0.756  0.00  0.00    +0.166 C 
ATOM      5  H   UNL     1       2.554  -1.754  -1.853  0.00  0.00    +0.163 HD
ATOM      6  H   UNL     1       1.479  -2.877   1.293  0.00  0.00    +0.159 HD
ATOM      7  H   UNL     1       2.602  -1.871   0.458  0.00  0.00    +0.159 HD
ATOM      8  H   UNL     1      -0.121  -4.153  -1.579  0.00  0.00    +0.159 HD
ATOM      9  H   UNL     1      -0.059  -4.167   0.140  0.00  0.00    +0.159 HD
ENDROOT
BRANCH   1  10
ATOM     10  C   UNL     1       1.361  -2.859  -3.229  0.00  0.00    +0.151 C 
BRANCH  10  11
ATOM     11  C   UNL     1       2.557  -3.229  -4.063  0.00  0.00    -0.028 A 
ATOM     12  C   UNL     1       3.502  -4.148  -3.583  0.00  0.00    +0.005 A 
ATOM     13  C   UNL     1       2.748  -2.669  -5.335  0.00  0.00    +0.005 A 
ATOM     14  C   UNL     1       4.597  -4.515  -4.369  0.00  0.00    +0.000 A 
ATOM     15  C   UNL     1       3.843  -3.037  -6.116  0.00  0.00    +0.000 A 
ATOM     16  C   UNL     1       4.766  -3.962  -5.634  0.00  0.00    +0.000 A 
ENDBRANCH  10  11
ENDBRANCH   1  10
TORSDOF 2
ENDMDL
