MODEL 1
REMARK VINA RESULT:    -5.492      0.000      0.000
REMARK INTER + INTRA:          -6.266
REMARK INTER:                  -6.134
REMARK INTRA:                  -0.132
REMARK UNBOUND:                -0.132
REMARK  Name = 1550473
REMARK  2 active torsions:
REMARK  status: ('A' for Active; 'I' for Inactive)
REMARK    1  A    between atoms: N_1  and  C_4
REMARK    2  A    between atoms: C_4  and  C_5
REMARK                            x       y       z     vdW  Elec       q    Type
REMARK                         _______ _______ _______ _____ _____    ______ ____
ROOT
ATOM      1  N   UNL     1      -8.638 -10.395   8.177  0.00  0.00    -0.354 N 
ATOM      2  N   UNL     1      -7.125  -9.550   9.714  0.00  0.00    -0.372 N 
ATOM      3  N   UNL     1      -8.962 -10.692  10.479  0.00  0.00    -0.372 N 
ATOM      4  C   UNL     1      -8.253 -10.219   9.448  0.00  0.00    +0.166 C 
ATOM      5  H   UNL     1      -8.072  -9.986   7.442  0.00  0.00    +0.163 HD
ATOM      6  H   UNL     1      -6.808  -9.405  10.663  0.00  0.00    +0.159 HD
ATOM      7  H   UNL     1      -6.537  -9.182   8.975  0.00  0.00    +0.159 HD
ATOM      8  H   UNL     1      -9.827 -11.200  10.346  0.00  0.00    +0.159 HD
ATOM      9  H   UNL     1      -8.668 -10.546  11.436  0.00  0.00    +0.159 HD
ENDROOT
BRANCH   1  10
ATOM     10  C   UNL     1      -9.821 -11.154   7.778  0.00  0.00    +0.151 C 
BRANCH  10  11
ATOM     11  C   UNL     1     -10.553 -10.396   6.705  0.00  0.00    -0.028 A 
ATOM     12  C   UNL     1     -11.930 -10.583   6.514  0.00  0.00    +0.005 A 
ATOM     13  C   UNL     1      -9.875  -9.486   5.879  0.00  0.00    +0.005 A 
ATOM     14  C   UNL     1     -12.615  -9.857   5.537  0.00  0.00    +0.000 A 
ATOM     15  C   UNL     1     -10.563  -8.764   4.904  0.00  0.00    +0.000 A 
ATOM     16  C   UNL     1     -11.933  -8.948   4.735  0.00  0.00    +0.000 A 
ENDBRANCH  10  11
ENDBRANCH   1  10
TORSDOF 2
ENDMDL
MODEL 2
REMARK VINA RESULT:    -5.049     23.470     24.380
REMARK INTER + INTRA:          -5.771
REMARK INTER:                  -5.650
REMARK INTRA:                  -0.121
REMARK UNBOUND:                -0.132
REMARK  Name = 1550473
REMARK  2 active torsions:
REMARK  status: ('A' for Active; 'I' for Inactive)
REMARK    1  A    between atoms: N_1  and  C_4
REMARK    2  A    between atoms: C_4  and  C_5
REMARK                            x       y       z     vdW  Elec       q    Type
REMARK                         _______ _______ _______ _____ _____    ______ ____
ROOT
ATOM      1  N   UNL     1       5.505 -15.179 -11.146  0.00  0.00    -0.354 N 
ATOM      2  N   UNL     1       6.267 -13.026 -11.533  0.00  0.00    -0.372 N 
ATOM      3  N   UNL     1       6.817 -14.682 -13.023  0.00  0.00    -0.372 N 
ATOM      4  C   UNL     1       6.192 -14.311 -11.900  0.00  0.00    +0.166 C 
ATOM      5  H   UNL     1       5.079 -14.841 -10.290  0.00  0.00    +0.163 HD
ATOM      6  H   UNL     1       6.775 -12.348 -12.084  0.00  0.00    +0.159 HD
ATOM      7  H   UNL     1       5.802 -12.682 -10.702  0.00  0.00    +0.159 HD
ATOM      8  H   UNL     1       6.804 -15.638 -13.351  0.00  0.00    +0.159 HD
ATOM      9  H   UNL     1       7.341 -14.020 -13.581  0.00  0.00    +0.159 HD
ENDROOT
BRANCH   1  10
ATOM     10  C   UNL     1       5.317 -16.588 -11.485  0.00  0.00    +0.151 C 
BRANCH  10  11
ATOM     11  C   UNL     1       4.606 -17.276 -10.353  0.00  0.00    -0.028 A 
ATOM     12  C   UNL     1       3.940 -16.527  -9.371  0.00  0.00    +0.005 A 
ATOM     13  C   UNL     1       4.589 -18.676 -10.259  0.00  0.00    +0.005 A 
ATOM     14  C   UNL     1       3.253 -17.167  -8.336  0.00  0.00    +0.000 A 
ATOM     15  C   UNL     1       3.904 -19.310  -9.223  0.00  0.00    +0.000 A 
ATOM     16  C   UNL     1       3.234 -18.555  -8.263  0.00  0.00    +0.000 A 
ENDBRANCH  10  11
ENDBRANCH   1  10
TORSDOF 2
ENDMDL
MODEL 3
REMARK VINA RESULT:    -4.766      4.488      6.151
REMARK INTER + INTRA:          -5.456
REMARK INTER:                  -5.326
REMARK INTRA:                  -0.129
REMARK UNBOUND:                -0.132
REMARK  Name = 1550473
REMARK  2 active torsions:
REMARK  status: ('A' for Active; 'I' for Inactive)
REMARK    1  A    between atoms: N_1  and  C_4
REMARK    2  A    between atoms: C_4  and  C_5
REMARK                            x       y       z     vdW  Elec       q    Type
REMARK                         _______ _______ _______ _____ _____    ______ ____
ROOT
ATOM      1  N   UNL     1     -13.418  -8.419   3.395  0.00  0.00    -0.354 N 
ATOM      2  N   UNL     1     -13.364  -8.279   1.084  0.00  0.00    -0.372 N 
ATOM      3  N   UNL     1     -13.981 -10.261   2.060  0.00  0.00    -0.372 N 
ATOM      4  C   UNL     1     -13.589  -8.990   2.195  0.00  0.00    +0.166 C 
ATOM      5  H   UNL     1     -13.090  -7.461   3.430  0.00  0.00    +0.163 HD
ATOM      6  H   UNL     1     -13.488  -8.682   0.164  0.00  0.00    +0.159 HD
ATOM      7  H   UNL     1     -13.080  -7.307   1.121  0.00  0.00    +0.159 HD
ATOM      8  H   UNL     1     -14.161 -10.854   2.860  0.00  0.00    +0.159 HD
ATOM      9  H   UNL     1     -14.099 -10.686   1.149  0.00  0.00    +0.159 HD
ENDROOT
BRANCH   1  10
ATOM     10  C   UNL     1     -13.688  -9.090   4.665  0.00  0.00    +0.151 C 
BRANCH  10  11
ATOM     11  C   UNL     1     -12.381  -9.437   5.325  0.00  0.00    -0.028 A 
ATOM     12  C   UNL     1     -11.181  -8.874   4.866  0.00  0.00    +0.005 A 
ATOM     13  C   UNL     1     -12.338 -10.322   6.413  0.00  0.00    +0.005 A 
ATOM     14  C   UNL     1      -9.971  -9.173   5.497  0.00  0.00    +0.000 A 
ATOM     15  C   UNL     1     -11.127 -10.618   7.040  0.00  0.00    +0.000 A 
ATOM     16  C   UNL     1      -9.945 -10.041   6.583  0.00  0.00    +0.000 A 
ENDBRANCH  10  11
ENDBRANCH   1  10
TORSDOF 2
ENDMDL
MODEL 4
REMARK VINA RESULT:    -4.697     14.185     14.861
REMARK INTER + INTRA:          -5.379
REMARK INTER:                  -5.238
REMARK INTRA:                  -0.140
REMARK UNBOUND:                -0.132
REMARK  Name = 1550473
REMARK  2 active torsions:
REMARK  status: ('A' for Active; 'I' for Inactive)
REMARK    1  A    between atoms: N_1  and  C_4
REMARK    2  A    between atoms: C_4  and  C_5
REMARK                            x       y       z     vdW  Elec       q    Type
REMARK                         _______ _______ _______ _____ _____    ______ ____
ROOT
ATOM      1  N   UNL     1       3.464 -14.246   7.579  0.00  0.00    -0.354 N 
ATOM      2  N   UNL     1       4.004 -14.942   9.721  0.00  0.00    -0.372 N 
ATOM      3  N   UNL     1       5.093 -13.126   8.838  0.00  0.00    -0.372 N 
ATOM      4  C   UNL     1       4.185 -14.098   8.698  0.00  0.00    +0.166 C 
ATOM      5  H   UNL     1       2.814 -15.022   7.524  0.00  0.00    +0.163 HD
ATOM      6  H   UNL     1       4.531 -14.853  10.580  0.00  0.00    +0.159 HD
ATOM      7  H   UNL     1       3.320 -15.689   9.681  0.00  0.00    +0.159 HD
ATOM      8  H   UNL     1       5.281 -12.460   8.101  0.00  0.00    +0.159 HD
ATOM      9  H   UNL     1       5.638 -13.028   9.685  0.00  0.00    +0.159 HD
ENDROOT
BRANCH   1  10
ATOM     10  C   UNL     1       3.547 -13.349   6.428  0.00  0.00    +0.151 C 
BRANCH  10  11
ATOM     11  C   UNL     1       3.634 -14.169   5.171  0.00  0.00    -0.028 A 
ATOM     12  C   UNL     1       3.337 -13.596   3.925  0.00  0.00    +0.005 A 
ATOM     13  C   UNL     1       4.018 -15.518   5.217  0.00  0.00    +0.005 A 
ATOM     14  C   UNL     1       3.447 -14.349   2.754  0.00  0.00    +0.000 A 
ATOM     15  C   UNL     1       4.125 -16.267   4.046  0.00  0.00    +0.000 A 
ATOM     16  C   UNL     1       3.842 -15.681   2.814  0.00  0.00    +0.000 A 
ENDBRANCH  10  11
ENDBRANCH   1  10
TORSDOF 2
ENDMDL
MODEL 5
REMARK VINA RESULT:    -4.659      2.682      4.184
REMARK INTER + INTRA:          -5.336
REMARK INTER:                  -5.207
REMARK INTRA:                  -0.128
REMARK UNBOUND:                -0.132
REMARK  Name = 1550473
REMARK  2 active torsions:
REMARK  status: ('A' for Active; 'I' for Inactive)
REMARK    1  A    between atoms: N_1  and  C_4
REMARK    2  A    between atoms: C_4  and  C_5
REMARK                            x       y       z     vdW  Elec       q    Type
REMARK                         _______ _______ _______ _____ _____    ______ ____
ROOT
ATOM      1  N   UNL     1     -11.115  -9.764   5.014  0.00  0.00    -0.354 N 
ATOM      2  N   UNL     1      -8.836  -9.634   4.628  0.00  0.00    -0.372 N 
ATOM      3  N   UNL     1      -9.591  -9.724   6.793  0.00  0.00    -0.372 N 
ATOM      4  C   UNL     1      -9.862  -9.708   5.484  0.00  0.00    +0.166 C 
ATOM      5  H   UNL     1     -11.256  -9.717   4.011  0.00  0.00    +0.163 HD
ATOM      6  H   UNL     1      -7.879  -9.594   4.953  0.00  0.00    +0.159 HD
ATOM      7  H   UNL     1      -8.977  -9.633   3.625  0.00  0.00    +0.159 HD
ATOM      8  H   UNL     1     -10.321  -9.773   7.491  0.00  0.00    +0.159 HD
ATOM      9  H   UNL     1      -8.640  -9.673   7.138  0.00  0.00    +0.159 HD
ENDROOT
BRANCH   1  10
ATOM     10  C   UNL     1     -12.300  -9.901   5.859  0.00  0.00    +0.151 C 
BRANCH  10  11
ATOM     11  C   UNL     1     -13.478  -9.280   5.159  0.00  0.00    -0.028 A 
ATOM     12  C   UNL     1     -13.378  -8.879   3.819  0.00  0.00    +0.005 A 
ATOM     13  C   UNL     1     -14.697  -9.096   5.829  0.00  0.00    +0.005 A 
ATOM     14  C   UNL     1     -14.481  -8.331   3.159  0.00  0.00    +0.000 A 
ATOM     15  C   UNL     1     -15.795  -8.547   5.167  0.00  0.00    +0.000 A 
ATOM     16  C   UNL     1     -15.687  -8.167   3.831  0.00  0.00    +0.000 A 
ENDBRANCH  10  11
ENDBRANCH   1  10
TORSDOF 2
ENDMDL
MODEL 6
REMARK VINA RESULT:    -4.629     26.993     27.936
REMARK INTER + INTRA:          -5.302
REMARK INTER:                  -5.155
REMARK INTRA:                  -0.148
REMARK UNBOUND:                -0.132
REMARK  Name = 1550473
REMARK  2 active torsions:
REMARK  status: ('A' for Active; 'I' for Inactive)
REMARK    1  A    between atoms: N_1  and  C_4
REMARK    2  A    between atoms: C_4  and  C_5
REMARK                            x       y       z     vdW  Elec       q    Type
REMARK                         _______ _______ _______ _____ _____    ______ ____
ROOT
ATOM      1  N   UNL     1       6.893 -14.709 -12.783  0.00  0.00    -0.354 N 
ATOM      2  N   UNL     1       6.312 -13.292 -11.046  0.00  0.00    -0.372 N 
ATOM      3  N   UNL     1       4.748 -14.771 -11.841  0.00  0.00    -0.372 N 
ATOM      4  C   UNL     1       5.985 -14.268 -11.902  0.00  0.00    +0.166 C 
ATOM      5  H   UNL     1       7.804 -14.266 -12.798  0.00  0.00    +0.163 HD
ATOM      6  H   UNL     1       5.649 -12.940 -10.368  0.00  0.00    +0.159 HD
ATOM      7  H   UNL     1       7.238 -12.882 -11.033  0.00  0.00    +0.159 HD
ATOM      8  H   UNL     1       4.437 -15.505 -12.463  0.00  0.00    +0.159 HD
ATOM      9  H   UNL     1       4.067 -14.424 -11.177  0.00  0.00    +0.159 HD
ENDROOT
BRANCH   1  10
ATOM     10  C   UNL     1       6.656 -15.804 -13.722  0.00  0.00    +0.151 C 
BRANCH  10  11
ATOM     11  C   UNL     1       6.889 -15.310 -15.122  0.00  0.00    -0.028 A 
ATOM     12  C   UNL     1       6.422 -16.043 -16.223  0.00  0.00    +0.005 A 
ATOM     13  C   UNL     1       7.572 -14.106 -15.355  0.00  0.00    +0.005 A 
ATOM     14  C   UNL     1       6.613 -15.569 -17.524  0.00  0.00    +0.000 A 
ATOM     15  C   UNL     1       7.762 -13.637 -16.655  0.00  0.00    +0.000 A 
ATOM     16  C   UNL     1       7.279 -14.367 -17.739  0.00  0.00    +0.000 A 
ENDBRANCH  10  11
ENDBRANCH   1  10
TORSDOF 2
ENDMDL
MODEL 7
REMARK VINA RESULT:    -4.521     15.933     17.121
REMARK INTER + INTRA:          -5.182
REMARK INTER:                  -5.038
REMARK INTRA:                  -0.144
REMARK UNBOUND:                -0.132
REMARK  Name = 1550473
REMARK  2 active torsions:
REMARK  status: ('A' for Active; 'I' for Inactive)
REMARK    1  A    between atoms: N_1  and  C_4
REMARK    2  A    between atoms: C_4  and  C_5
REMARK                            x       y       z     vdW  Elec       q    Type
REMARK                         _______ _______ _______ _____ _____    ______ ____
ROOT
ATOM      1  N   UNL     1     -12.282  -8.382 -10.348  0.00  0.00    -0.354 N 
ATOM      2  N   UNL     1     -10.245  -7.340 -10.713  0.00  0.00    -0.372 N 
ATOM      3  N   UNL     1     -11.312  -7.017  -8.708  0.00  0.00    -0.372 N 
ATOM      4  C   UNL     1     -11.294  -7.585  -9.918  0.00  0.00    +0.166 C 
ATOM      5  H   UNL     1     -12.222  -8.757 -11.288  0.00  0.00    +0.163 HD
ATOM      6  H   UNL     1      -9.483  -6.746 -10.414  0.00  0.00    +0.159 HD
ATOM      7  H   UNL     1     -10.167  -7.754 -11.634  0.00  0.00    +0.159 HD
ATOM      8  H   UNL     1     -12.078  -7.158  -8.062  0.00  0.00    +0.159 HD
ATOM      9  H   UNL     1     -10.565  -6.411  -8.395  0.00  0.00    +0.159 HD
ENDROOT
BRANCH   1  10
ATOM     10  C   UNL     1     -13.441  -8.755  -9.541  0.00  0.00    +0.151 C 
BRANCH  10  11
ATOM     11  C   UNL     1     -13.309 -10.195  -9.127  0.00  0.00    -0.028 A 
ATOM     12  C   UNL     1     -12.451 -11.059  -9.823  0.00  0.00    +0.005 A 
ATOM     13  C   UNL     1     -14.034 -10.700  -8.037  0.00  0.00    +0.005 A 
ATOM     14  C   UNL     1     -12.305 -12.389  -9.421  0.00  0.00    +0.000 A 
ATOM     15  C   UNL     1     -13.886 -12.028  -7.639  0.00  0.00    +0.000 A 
ATOM     16  C   UNL     1     -13.019 -12.872  -8.330  0.00  0.00    +0.000 A 
ENDBRANCH  10  11
ENDBRANCH   1  10
TORSDOF 2
ENDMDL
MODEL 8
REMARK VINA RESULT:    -4.433     26.593     28.159
REMARK INTER + INTRA:          -5.084
REMARK INTER:                  -4.980
REMARK INTRA:                  -0.104
REMARK UNBOUND:                -0.132
REMARK  Name = 1550473
REMARK  2 active torsions:
REMARK  status: ('A' for Active; 'I' for Inactive)
REMARK    1  A    between atoms: N_1  and  C_4
REMARK    2  A    between atoms: C_4  and  C_5
REMARK                            x       y       z     vdW  Elec       q    Type
REMARK                         _______ _______ _______ _____ _____    ______ ____
ROOT
ATOM      1  N   UNL     1       1.081   1.063 -14.436  0.00  0.00    -0.354 N 
ATOM      2  N   UNL     1       1.177  -0.392 -12.637  0.00  0.00    -0.372 N 
ATOM      3  N   UNL     1       2.765  -0.560 -14.285  0.00  0.00    -0.372 N 
ATOM      4  C   UNL     1       1.676   0.045 -13.800  0.00  0.00    +0.166 C 
ATOM      5  H   UNL     1       0.241   1.460 -14.031  0.00  0.00    +0.163 HD
ATOM      6  H   UNL     1       1.606  -1.156 -12.132  0.00  0.00    +0.159 HD
ATOM      7  H   UNL     1       0.364   0.036 -12.211  0.00  0.00    +0.159 HD
ATOM      8  H   UNL     1       3.187  -0.281 -15.161  0.00  0.00    +0.159 HD
ATOM      9  H   UNL     1       3.201  -1.334 -13.801  0.00  0.00    +0.159 HD
ENDROOT
BRANCH   1  10
ATOM     10  C   UNL     1       1.576   1.651 -15.680  0.00  0.00    +0.151 C 
BRANCH  10  11
ATOM     11  C   UNL     1       1.341   3.136 -15.650  0.00  0.00    -0.028 A 
ATOM     12  C   UNL     1       2.423   4.027 -15.590  0.00  0.00    +0.005 A 
ATOM     13  C   UNL     1       0.039   3.658 -15.687  0.00  0.00    +0.005 A 
ATOM     14  C   UNL     1       2.206   5.407 -15.592  0.00  0.00    +0.000 A 
ATOM     15  C   UNL     1      -0.173   5.037 -15.688  0.00  0.00    +0.000 A 
ATOM     16  C   UNL     1       0.910   5.911 -15.643  0.00  0.00    +0.000 A 
ENDBRANCH  10  11
ENDBRANCH   1  10
TORSDOF 2
ENDMDL
MODEL 9
REMARK VINA RESULT:    -4.372     26.972     28.525
REMARK INTER + INTRA:          -5.016
REMARK INTER:                  -4.859
REMARK INTRA:                  -0.156
REMARK UNBOUND:                -0.132
REMARK  Name = 1550473
REMARK  2 active torsions:
REMARK  status: ('A' for Active; 'I' for Inactive)
REMARK    1  A    between atoms: N_1  and  C_4
REMARK    2  A    between atoms: C_4  and  C_5
REMARK                            x       y       z     vdW  Elec       q    Type
REMARK                         _______ _______ _______ _____ _____    ______ ____
ROOT
ATOM      1  N   UNL     1       1.389   0.976 -14.541  0.00  0.00    -0.354 N 
ATOM      2  N   UNL     1       1.113  -0.217 -12.575  0.00  0.00    -0.372 N 
ATOM      3  N   UNL     1       2.691  -0.919 -14.085  0.00  0.00    -0.372 N 
ATOM      4  C   UNL     1       1.735  -0.047 -13.748  0.00  0.00    +0.166 C 
ATOM      5  H   UNL     1       0.636   1.583 -14.241  0.00  0.00    +0.163 HD
ATOM      6  H   UNL     1       1.355  -0.977 -11.954  0.00  0.00    +0.159 HD
ATOM      7  H   UNL     1       0.392   0.419 -12.257  0.00  0.00    +0.159 HD
ATOM      8  H   UNL     1       3.195  -0.850 -14.960  0.00  0.00    +0.159 HD
ATOM      9  H   UNL     1       2.940  -1.693 -13.483  0.00  0.00    +0.159 HD
ENDROOT
BRANCH   1  10
ATOM     10  C   UNL     1       2.041   1.280 -15.814  0.00  0.00    +0.151 C 
BRANCH  10  11
ATOM     11  C   UNL     1       3.060   2.365 -15.596  0.00  0.00    -0.028 A 
ATOM     12  C   UNL     1       4.384   2.042 -15.264  0.00  0.00    +0.005 A 
ATOM     13  C   UNL     1       2.709   3.717 -15.727  0.00  0.00    +0.005 A 
ATOM     14  C   UNL     1       5.337   3.049 -15.092  0.00  0.00    +0.000 A 
ATOM     15  C   UNL     1       3.664   4.719 -15.553  0.00  0.00    +0.000 A 
ATOM     16  C   UNL     1       4.978   4.384 -15.238  0.00  0.00    +0.000 A 
ENDBRANCH  10  11
ENDBRANCH   1  10
TORSDOF 2
ENDMDL
