MODEL 1
REMARK VINA RESULT:    -5.377      0.000      0.000
REMARK INTER + INTRA:          -6.124
REMARK INTER:                  -6.005
REMARK INTRA:                  -0.119
REMARK UNBOUND:                -0.119
REMARK  Name = 1550473
REMARK  2 active torsions:
REMARK  status: ('A' for Active; 'I' for Inactive)
REMARK    1  A    between atoms: N_1  and  C_4
REMARK    2  A    between atoms: C_4  and  C_5
REMARK                            x       y       z     vdW  Elec       q    Type
REMARK                         _______ _______ _______ _____ _____    ______ ____
ROOT
ATOM      1  N   UNL     1      19.487   3.481  23.321  0.00  0.00    -0.354 N 
ATOM      2  N   UNL     1      19.094   4.227  25.478  0.00  0.00    -0.372 N 
ATOM      3  N   UNL     1      17.402   4.359  23.934  0.00  0.00    -0.372 N 
ATOM      4  C   UNL     1      18.661   4.018  24.229  0.00  0.00    +0.166 C 
ATOM      5  H   UNL     1      20.439   3.273  23.600  0.00  0.00    +0.163 HD
ATOM      6  H   UNL     1      18.493   4.628  26.186  0.00  0.00    +0.159 HD
ATOM      7  H   UNL     1      20.032   3.976  25.766  0.00  0.00    +0.159 HD
ATOM      8  H   UNL     1      17.016   4.232  23.008  0.00  0.00    +0.159 HD
ATOM      9  H   UNL     1      16.788   4.772  24.625  0.00  0.00    +0.159 HD
ENDROOT
BRANCH   1  10
ATOM     10  C   UNL     1      19.097   3.163  21.949  0.00  0.00    +0.151 C 
BRANCH  10  11
ATOM     11  C   UNL     1      20.336   2.944  21.125  0.00  0.00    -0.028 A 
ATOM     12  C   UNL     1      20.306   3.120  19.734  0.00  0.00    +0.005 A 
ATOM     13  C   UNL     1      21.544   2.566  21.730  0.00  0.00    +0.005 A 
ATOM     14  C   UNL     1      21.464   2.946  18.971  0.00  0.00    +0.000 A 
ATOM     15  C   UNL     1      22.698   2.393  20.965  0.00  0.00    +0.000 A 
ATOM     16  C   UNL     1      22.658   2.585  19.586  0.00  0.00    +0.000 A 
ENDBRANCH  10  11
ENDBRANCH   1  10
TORSDOF 2
ENDMDL
MODEL 2
REMARK VINA RESULT:    -4.795     43.181     44.121
REMARK INTER + INTRA:          -5.475
REMARK INTER:                  -5.350
REMARK INTRA:                  -0.124
REMARK UNBOUND:                -0.119
REMARK  Name = 1550473
REMARK  2 active torsions:
REMARK  status: ('A' for Active; 'I' for Inactive)
REMARK    1  A    between atoms: N_1  and  C_4
REMARK    2  A    between atoms: C_4  and  C_5
REMARK                            x       y       z     vdW  Elec       q    Type
REMARK                         _______ _______ _______ _____ _____    ______ ____
ROOT
ATOM      1  N   UNL     1     -11.953 -18.081  -1.153  0.00  0.00    -0.354 N 
ATOM      2  N   UNL     1     -13.744 -17.875  -2.607  0.00  0.00    -0.372 N 
ATOM      3  N   UNL     1     -12.744 -15.973  -1.803  0.00  0.00    -0.372 N 
ATOM      4  C   UNL     1     -12.802 -17.309  -1.844  0.00  0.00    +0.166 C 
ATOM      5  H   UNL     1     -12.069 -19.087  -1.203  0.00  0.00    +0.163 HD
ATOM      6  H   UNL     1     -14.396 -17.318  -3.143  0.00  0.00    +0.159 HD
ATOM      7  H   UNL     1     -13.828 -18.881  -2.691  0.00  0.00    +0.159 HD
ATOM      8  H   UNL     1     -12.060 -15.484  -1.242  0.00  0.00    +0.159 HD
ATOM      9  H   UNL     1     -13.395 -15.398  -2.323  0.00  0.00    +0.159 HD
ENDROOT
BRANCH   1  10
ATOM     10  C   UNL     1     -10.858 -17.564  -0.335  0.00  0.00    +0.151 C 
BRANCH  10  11
ATOM     11  C   UNL     1      -9.919 -18.691  -0.003  0.00  0.00    -0.028 A 
ATOM     12  C   UNL     1      -8.939 -18.533   0.988  0.00  0.00    +0.005 A 
ATOM     13  C   UNL     1     -10.007 -19.922  -0.671  0.00  0.00    +0.005 A 
ATOM     14  C   UNL     1      -8.086 -19.589   1.318  0.00  0.00    +0.000 A 
ATOM     15  C   UNL     1      -9.154 -20.973  -0.340  0.00  0.00    +0.000 A 
ATOM     16  C   UNL     1      -8.195 -20.807   0.657  0.00  0.00    +0.000 A 
ENDBRANCH  10  11
ENDBRANCH   1  10
TORSDOF 2
ENDMDL
MODEL 3
REMARK VINA RESULT:    -4.611     54.893     56.339
REMARK INTER + INTRA:          -5.269
REMARK INTER:                  -5.141
REMARK INTRA:                  -0.128
REMARK UNBOUND:                -0.119
REMARK  Name = 1550473
REMARK  2 active torsions:
REMARK  status: ('A' for Active; 'I' for Inactive)
REMARK    1  A    between atoms: N_1  and  C_4
REMARK    2  A    between atoms: C_4  and  C_5
REMARK                            x       y       z     vdW  Elec       q    Type
REMARK                         _______ _______ _______ _____ _____    ______ ____
ROOT
ATOM      1  N   UNL     1       1.703   5.910 -30.123  0.00  0.00    -0.354 N 
ATOM      2  N   UNL     1      -0.169   5.548 -28.809  0.00  0.00    -0.372 N 
ATOM      3  N   UNL     1       1.671   4.209 -28.511  0.00  0.00    -0.372 N 
ATOM      4  C   UNL     1       1.082   5.222 -29.155  0.00  0.00    +0.166 C 
ATOM      5  H   UNL     1       1.192   6.648 -30.593  0.00  0.00    +0.163 HD
ATOM      6  H   UNL     1      -0.662   5.049 -28.080  0.00  0.00    +0.159 HD
ATOM      7  H   UNL     1      -0.661   6.315 -29.249  0.00  0.00    +0.159 HD
ATOM      8  H   UNL     1       2.612   3.910 -28.730  0.00  0.00    +0.159 HD
ATOM      9  H   UNL     1       1.190   3.690 -27.787  0.00  0.00    +0.159 HD
ENDROOT
BRANCH   1  10
ATOM     10  C   UNL     1       3.084   5.671 -30.539  0.00  0.00    +0.151 C 
BRANCH  10  11
ATOM     11  C   UNL     1       3.083   5.015 -31.892  0.00  0.00    -0.028 A 
ATOM     12  C   UNL     1       3.649   5.665 -32.999  0.00  0.00    +0.005 A 
ATOM     13  C   UNL     1       2.524   3.741 -32.073  0.00  0.00    +0.005 A 
ATOM     14  C   UNL     1       3.675   5.044 -34.250  0.00  0.00    +0.000 A 
ATOM     15  C   UNL     1       2.551   3.124 -33.324  0.00  0.00    +0.000 A 
ATOM     16  C   UNL     1       3.129   3.775 -34.411  0.00  0.00    +0.000 A 
ENDBRANCH  10  11
ENDBRANCH   1  10
TORSDOF 2
ENDMDL
MODEL 4
REMARK VINA RESULT:    -4.503     64.198     65.158
REMARK INTER + INTRA:          -5.148
REMARK INTER:                  -4.969
REMARK INTRA:                  -0.179
REMARK UNBOUND:                -0.119
REMARK  Name = 1550473
REMARK  2 active torsions:
REMARK  status: ('A' for Active; 'I' for Inactive)
REMARK    1  A    between atoms: N_1  and  C_4
REMARK    2  A    between atoms: C_4  and  C_5
REMARK                            x       y       z     vdW  Elec       q    Type
REMARK                         _______ _______ _______ _____ _____    ______ ____
ROOT
ATOM      1  N   UNL     1     -21.046 -17.073 -25.357  0.00  0.00    -0.354 N 
ATOM      2  N   UNL     1     -21.055 -18.039 -23.252  0.00  0.00    -0.372 N 
ATOM      3  N   UNL     1     -19.515 -18.756 -24.794  0.00  0.00    -0.372 N 
ATOM      4  C   UNL     1     -20.536 -17.951 -24.483  0.00  0.00    +0.166 C 
ATOM      5  H   UNL     1     -21.840 -16.513 -25.069  0.00  0.00    +0.163 HD
ATOM      6  H   UNL     1     -20.689 -18.689 -22.570  0.00  0.00    +0.159 HD
ATOM      7  H   UNL     1     -21.819 -17.445 -22.952  0.00  0.00    +0.159 HD
ATOM      8  H   UNL     1     -19.083 -18.743 -25.709  0.00  0.00    +0.159 HD
ATOM      9  H   UNL     1     -19.143 -19.422 -24.129  0.00  0.00    +0.159 HD
ENDROOT
BRANCH   1  10
ATOM     10  C   UNL     1     -20.519 -16.861 -26.704  0.00  0.00    +0.151 C 
BRANCH  10  11
ATOM     11  C   UNL     1     -19.562 -15.702 -26.681  0.00  0.00    -0.028 A 
ATOM     12  C   UNL     1     -18.234 -15.867 -27.101  0.00  0.00    +0.005 A 
ATOM     13  C   UNL     1     -19.977 -14.435 -26.244  0.00  0.00    +0.005 A 
ATOM     14  C   UNL     1     -17.352 -14.784 -27.108  0.00  0.00    +0.000 A 
ATOM     15  C   UNL     1     -19.094 -13.356 -26.252  0.00  0.00    +0.000 A 
ATOM     16  C   UNL     1     -17.782 -13.530 -26.686  0.00  0.00    +0.000 A 
ENDBRANCH  10  11
ENDBRANCH   1  10
TORSDOF 2
ENDMDL
MODEL 5
REMARK VINA RESULT:    -4.469     65.327     66.483
REMARK INTER + INTRA:          -5.110
REMARK INTER:                  -4.995
REMARK INTRA:                  -0.115
REMARK UNBOUND:                -0.119
REMARK  Name = 1550473
REMARK  2 active torsions:
REMARK  status: ('A' for Active; 'I' for Inactive)
REMARK    1  A    between atoms: N_1  and  C_4
REMARK    2  A    between atoms: C_4  and  C_5
REMARK                            x       y       z     vdW  Elec       q    Type
REMARK                         _______ _______ _______ _____ _____    ______ ____
ROOT
ATOM      1  N   UNL     1     -22.142 -15.268 -27.394  0.00  0.00    -0.354 N 
ATOM      2  N   UNL     1     -23.904 -15.120 -28.890  0.00  0.00    -0.372 N 
ATOM      3  N   UNL     1     -22.917 -17.161 -28.537  0.00  0.00    -0.372 N 
ATOM      4  C   UNL     1     -22.975 -15.853 -28.265  0.00  0.00    +0.166 C 
ATOM      5  H   UNL     1     -22.218 -14.267 -27.254  0.00  0.00    +0.163 HD
ATOM      6  H   UNL     1     -24.549 -15.535 -29.549  0.00  0.00    +0.159 HD
ATOM      7  H   UNL     1     -24.008 -14.128 -28.714  0.00  0.00    +0.159 HD
ATOM      8  H   UNL     1     -22.235 -17.769 -28.103  0.00  0.00    +0.159 HD
ATOM      9  H   UNL     1     -23.546 -17.592 -29.203  0.00  0.00    +0.159 HD
ENDROOT
BRANCH   1  10
ATOM     10  C   UNL     1     -21.131 -15.986 -26.620  0.00  0.00    +0.151 C 
BRANCH  10  11
ATOM     11  C   UNL     1     -19.847 -15.203 -26.642  0.00  0.00    -0.028 A 
ATOM     12  C   UNL     1     -19.822 -13.865 -26.221  0.00  0.00    +0.005 A 
ATOM     13  C   UNL     1     -18.652 -15.794 -27.078  0.00  0.00    +0.005 A 
ATOM     14  C   UNL     1     -18.624 -13.146 -26.213  0.00  0.00    +0.000 A 
ATOM     15  C   UNL     1     -17.458 -15.073 -27.069  0.00  0.00    +0.000 A 
ATOM     16  C   UNL     1     -17.444 -13.750 -26.634  0.00  0.00    +0.000 A 
ENDBRANCH  10  11
ENDBRANCH   1  10
TORSDOF 2
ENDMDL
MODEL 6
REMARK VINA RESULT:    -4.450     52.120     53.267
REMARK INTER + INTRA:          -5.089
REMARK INTER:                  -4.965
REMARK INTRA:                  -0.124
REMARK UNBOUND:                -0.119
REMARK  Name = 1550473
REMARK  2 active torsions:
REMARK  status: ('A' for Active; 'I' for Inactive)
REMARK    1  A    between atoms: N_1  and  C_4
REMARK    2  A    between atoms: C_4  and  C_5
REMARK                            x       y       z     vdW  Elec       q    Type
REMARK                         _______ _______ _______ _____ _____    ______ ____
ROOT
ATOM      1  N   UNL     1     -21.031  -8.230  -9.041  0.00  0.00    -0.354 N 
ATOM      2  N   UNL     1     -21.268  -5.996  -9.606  0.00  0.00    -0.372 N 
ATOM      3  N   UNL     1     -19.193  -6.776  -9.012  0.00  0.00    -0.372 N 
ATOM      4  C   UNL     1     -20.493  -7.015  -9.215  0.00  0.00    +0.166 C 
ATOM      5  H   UNL     1     -22.028  -8.339  -9.182  0.00  0.00    +0.163 HD
ATOM      6  H   UNL     1     -20.889  -5.069  -9.749  0.00  0.00    +0.159 HD
ATOM      7  H   UNL     1     -22.256  -6.118  -9.790  0.00  0.00    +0.159 HD
ATOM      8  H   UNL     1     -18.556  -7.501  -8.710  0.00  0.00    +0.159 HD
ATOM      9  H   UNL     1     -18.798  -5.852  -9.138  0.00  0.00    +0.159 HD
ENDROOT
BRANCH   1  10
ATOM     10  C   UNL     1     -20.264  -9.418  -8.669  0.00  0.00    +0.151 C 
BRANCH  10  11
ATOM     11  C   UNL     1     -21.216 -10.512  -8.273  0.00  0.00    -0.028 A 
ATOM     12  C   UNL     1     -20.756 -11.825  -8.090  0.00  0.00    +0.005 A 
ATOM     13  C   UNL     1     -22.579 -10.243  -8.073  0.00  0.00    +0.005 A 
ATOM     14  C   UNL     1     -21.635 -12.836  -7.693  0.00  0.00    +0.000 A 
ATOM     15  C   UNL     1     -23.453 -11.255  -7.677  0.00  0.00    +0.000 A 
ATOM     16  C   UNL     1     -22.980 -12.551  -7.485  0.00  0.00    +0.000 A 
ENDBRANCH  10  11
ENDBRANCH   1  10
TORSDOF 2
ENDMDL
MODEL 7
REMARK VINA RESULT:    -4.383     53.387     54.449
REMARK INTER + INTRA:          -5.015
REMARK INTER:                  -4.886
REMARK INTRA:                  -0.129
REMARK UNBOUND:                -0.119
REMARK  Name = 1550473
REMARK  2 active torsions:
REMARK  status: ('A' for Active; 'I' for Inactive)
REMARK    1  A    between atoms: N_1  and  C_4
REMARK    2  A    between atoms: C_4  and  C_5
REMARK                            x       y       z     vdW  Elec       q    Type
REMARK                         _______ _______ _______ _____ _____    ______ ____
ROOT
ATOM      1  N   UNL     1     -14.474 -19.446 -11.453  0.00  0.00    -0.354 N 
ATOM      2  N   UNL     1     -12.233 -19.642 -10.902  0.00  0.00    -0.372 N 
ATOM      3  N   UNL     1     -13.740 -19.129  -9.250  0.00  0.00    -0.372 N 
ATOM      4  C   UNL     1     -13.498 -19.403 -10.536  0.00  0.00    +0.166 C 
ATOM      5  H   UNL     1     -14.221 -19.631 -12.417  0.00  0.00    +0.163 HD
ATOM      6  H   UNL     1     -11.476 -19.620 -10.232  0.00  0.00    +0.159 HD
ATOM      7  H   UNL     1     -11.989 -19.871 -11.858  0.00  0.00    +0.159 HD
ATOM      8  H   UNL     1     -14.673 -18.934  -8.911  0.00  0.00    +0.159 HD
ATOM      9  H   UNL     1     -12.995 -19.090  -8.567  0.00  0.00    +0.159 HD
ENDROOT
BRANCH   1  10
ATOM     10  C   UNL     1     -15.891 -19.255 -11.149  0.00  0.00    +0.151 C 
BRANCH  10  11
ATOM     11  C   UNL     1     -16.599 -18.780 -12.387  0.00  0.00    -0.028 A 
ATOM     12  C   UNL     1     -15.870 -18.389 -13.519  0.00  0.00    +0.005 A 
ATOM     13  C   UNL     1     -18.001 -18.725 -12.437  0.00  0.00    +0.005 A 
ATOM     14  C   UNL     1     -16.528 -17.976 -14.680  0.00  0.00    +0.000 A 
ATOM     15  C   UNL     1     -18.654 -18.311 -13.598  0.00  0.00    +0.000 A 
ATOM     16  C   UNL     1     -17.918 -17.939 -14.720  0.00  0.00    +0.000 A 
ENDBRANCH  10  11
ENDBRANCH   1  10
TORSDOF 2
ENDMDL
MODEL 8
REMARK VINA RESULT:    -4.335     58.320     59.561
REMARK INTER + INTRA:          -4.961
REMARK INTER:                  -4.827
REMARK INTRA:                  -0.134
REMARK UNBOUND:                -0.119
REMARK  Name = 1550473
REMARK  2 active torsions:
REMARK  status: ('A' for Active; 'I' for Inactive)
REMARK    1  A    between atoms: N_1  and  C_4
REMARK    2  A    between atoms: C_4  and  C_5
REMARK                            x       y       z     vdW  Elec       q    Type
REMARK                         _______ _______ _______ _____ _____    ______ ____
ROOT
ATOM      1  N   UNL     1     -24.695   0.346 -17.404  0.00  0.00    -0.354 N 
ATOM      2  N   UNL     1     -24.429  -1.902 -17.893  0.00  0.00    -0.372 N 
ATOM      3  N   UNL     1     -25.855  -0.647 -19.181  0.00  0.00    -0.372 N 
ATOM      4  C   UNL     1     -24.997  -0.719 -18.158  0.00  0.00    +0.166 C 
ATOM      5  H   UNL     1     -24.060   0.220 -16.624  0.00  0.00    +0.163 HD
ATOM      6  H   UNL     1     -24.635  -2.722 -18.447  0.00  0.00    +0.159 HD
ATOM      7  H   UNL     1     -23.760  -2.015 -17.142  0.00  0.00    +0.159 HD
ATOM      8  H   UNL     1     -26.321   0.215 -19.429  0.00  0.00    +0.159 HD
ATOM      9  H   UNL     1     -26.082  -1.460 -19.740  0.00  0.00    +0.159 HD
ENDROOT
BRANCH   1  10
ATOM     10  C   UNL     1     -25.216   1.691 -17.642  0.00  0.00    +0.151 C 
BRANCH  10  11
ATOM     11  C   UNL     1     -24.073   2.668 -17.642  0.00  0.00    -0.028 A 
ATOM     12  C   UNL     1     -22.932   2.430 -16.862  0.00  0.00    +0.005 A 
ATOM     13  C   UNL     1     -24.123   3.832 -18.424  0.00  0.00    +0.005 A 
ATOM     14  C   UNL     1     -21.858   3.322 -16.885  0.00  0.00    +0.000 A 
ATOM     15  C   UNL     1     -23.048   4.721 -18.444  0.00  0.00    +0.000 A 
ATOM     16  C   UNL     1     -21.915   4.465 -17.676  0.00  0.00    +0.000 A 
ENDBRANCH  10  11
ENDBRANCH   1  10
TORSDOF 2
ENDMDL
MODEL 9
REMARK VINA RESULT:    -4.275     50.372     51.551
REMARK INTER + INTRA:          -4.894
REMARK INTER:                  -4.774
REMARK INTRA:                  -0.120
REMARK UNBOUND:                -0.119
REMARK  Name = 1550473
REMARK  2 active torsions:
REMARK  status: ('A' for Active; 'I' for Inactive)
REMARK    1  A    between atoms: N_1  and  C_4
REMARK    2  A    between atoms: C_4  and  C_5
REMARK                            x       y       z     vdW  Elec       q    Type
REMARK                         _______ _______ _______ _____ _____    ______ ____
ROOT
ATOM      1  N   UNL     1      -5.139  -9.804 -19.949  0.00  0.00    -0.354 N 
ATOM      2  N   UNL     1      -3.471  -8.273 -20.437  0.00  0.00    -0.372 N 
ATOM      3  N   UNL     1      -5.217  -7.621 -19.098  0.00  0.00    -0.372 N 
ATOM      4  C   UNL     1      -4.622  -8.574 -19.823  0.00  0.00    +0.166 C 
ATOM      5  H   UNL     1      -4.655 -10.472 -20.537  0.00  0.00    +0.163 HD
ATOM      6  H   UNL     1      -3.054  -7.355 -20.358  0.00  0.00    +0.159 HD
ATOM      7  H   UNL     1      -2.966  -8.957 -20.987  0.00  0.00    +0.159 HD
ATOM      8  H   UNL     1      -6.090  -7.783 -18.615  0.00  0.00    +0.159 HD
ATOM      9  H   UNL     1      -4.821  -6.693 -19.017  0.00  0.00    +0.159 HD
ENDROOT
BRANCH   1  10
ATOM     10  C   UNL     1      -6.359 -10.249 -19.278  0.00  0.00    +0.151 C 
BRANCH  10  11
ATOM     11  C   UNL     1      -6.627 -11.683 -19.646  0.00  0.00    -0.028 A 
ATOM     12  C   UNL     1      -7.493 -12.467 -18.871  0.00  0.00    +0.005 A 
ATOM     13  C   UNL     1      -6.021 -12.260 -20.773  0.00  0.00    +0.005 A 
ATOM     14  C   UNL     1      -7.765 -13.790 -19.230  0.00  0.00    +0.000 A 
ATOM     15  C   UNL     1      -6.295 -13.581 -21.127  0.00  0.00    +0.000 A 
ATOM     16  C   UNL     1      -7.169 -14.345 -20.357  0.00  0.00    +0.000 A 
ENDBRANCH  10  11
ENDBRANCH   1  10
TORSDOF 2
ENDMDL
