MODEL 1
REMARK VINA RESULT:    -5.468      0.000      0.000
REMARK INTER + INTRA:          -6.234
REMARK INTER:                  -6.107
REMARK INTRA:                  -0.127
REMARK UNBOUND:                -0.127
REMARK  Name = 1550473
REMARK  2 active torsions:
REMARK  status: ('A' for Active; 'I' for Inactive)
REMARK    1  A    between atoms: N_1  and  C_4
REMARK    2  A    between atoms: C_4  and  C_5
REMARK                            x       y       z     vdW  Elec       q    Type
REMARK                         _______ _______ _______ _____ _____    ______ ____
ROOT
ATOM      1  N   UNL     1       1.372  -1.209   3.680  0.00  0.00    -0.354 N 
ATOM      2  N   UNL     1       2.591  -2.752   4.903  0.00  0.00    -0.372 N 
ATOM      3  N   UNL     1       0.305  -2.741   5.096  0.00  0.00    -0.372 N 
ATOM      4  C   UNL     1       1.412  -2.224   4.553  0.00  0.00    +0.166 C 
ATOM      5  H   UNL     1       2.249  -0.842   3.328  0.00  0.00    +0.163 HD
ATOM      6  H   UNL     1       2.652  -3.522   5.556  0.00  0.00    +0.159 HD
ATOM      7  H   UNL     1       3.463  -2.414   4.514  0.00  0.00    +0.159 HD
ATOM      8  H   UNL     1      -0.616  -2.384   4.877  0.00  0.00    +0.159 HD
ATOM      9  H   UNL     1       0.346  -3.504   5.761  0.00  0.00    +0.159 HD
ENDROOT
BRANCH   1  10
ATOM     10  C   UNL     1       0.137  -0.598   3.192  0.00  0.00    +0.151 C 
BRANCH  10  11
ATOM     11  C   UNL     1       0.311   0.895   3.146  0.00  0.00    -0.028 A 
ATOM     12  C   UNL     1       1.566   1.457   2.867  0.00  0.00    +0.005 A 
ATOM     13  C   UNL     1      -0.775   1.753   3.375  0.00  0.00    +0.005 A 
ATOM     14  C   UNL     1       1.722   2.843   2.795  0.00  0.00    +0.000 A 
ATOM     15  C   UNL     1      -0.615   3.137   3.303  0.00  0.00    +0.000 A 
ATOM     16  C   UNL     1       0.633   3.681   3.010  0.00  0.00    +0.000 A 
ENDBRANCH  10  11
ENDBRANCH   1  10
TORSDOF 2
ENDMDL
MODEL 2
REMARK VINA RESULT:    -5.345      2.670      4.130
REMARK INTER + INTRA:          -6.097
REMARK INTER:                  -5.964
REMARK INTRA:                  -0.133
REMARK UNBOUND:                -0.127
REMARK  Name = 1550473
REMARK  2 active torsions:
REMARK  status: ('A' for Active; 'I' for Inactive)
REMARK    1  A    between atoms: N_1  and  C_4
REMARK    2  A    between atoms: C_4  and  C_5
REMARK                            x       y       z     vdW  Elec       q    Type
REMARK                         _______ _______ _______ _____ _____    ______ ____
ROOT
ATOM      1  N   UNL     1       4.005  -0.879   3.414  0.00  0.00    -0.354 N 
ATOM      2  N   UNL     1       5.825  -0.083   2.223  0.00  0.00    -0.372 N 
ATOM      3  N   UNL     1       5.647  -2.339   2.600  0.00  0.00    -0.372 N 
ATOM      4  C   UNL     1       5.148  -1.108   2.754  0.00  0.00    +0.166 C 
ATOM      5  H   UNL     1       3.695   0.080   3.521  0.00  0.00    +0.163 HD
ATOM      6  H   UNL     1       6.688  -0.225   1.717  0.00  0.00    +0.159 HD
ATOM      7  H   UNL     1       5.489   0.870   2.293  0.00  0.00    +0.159 HD
ATOM      8  H   UNL     1       5.188  -3.155   2.982  0.00  0.00    +0.159 HD
ATOM      9  H   UNL     1       6.517  -2.501   2.107  0.00  0.00    +0.159 HD
ENDROOT
BRANCH   1  10
ATOM     10  C   UNL     1       3.164  -1.931   3.982  0.00  0.00    +0.151 C 
BRANCH  10  11
ATOM     11  C   UNL     1       1.725  -1.499   3.917  0.00  0.00    -0.028 A 
ATOM     12  C   UNL     1       1.354  -0.370   3.171  0.00  0.00    +0.005 A 
ATOM     13  C   UNL     1       0.727  -2.217   4.594  0.00  0.00    +0.005 A 
ATOM     14  C   UNL     1       0.013   0.014   3.085  0.00  0.00    +0.000 A 
ATOM     15  C   UNL     1      -0.610  -1.829   4.507  0.00  0.00    +0.000 A 
ATOM     16  C   UNL     1      -0.967  -0.715   3.750  0.00  0.00    +0.000 A 
ENDBRANCH  10  11
ENDBRANCH   1  10
TORSDOF 2
ENDMDL
MODEL 3
REMARK VINA RESULT:    -5.302      2.926      4.408
REMARK INTER + INTRA:          -6.048
REMARK INTER:                  -5.873
REMARK INTRA:                  -0.175
REMARK UNBOUND:                -0.127
REMARK  Name = 1550473
REMARK  2 active torsions:
REMARK  status: ('A' for Active; 'I' for Inactive)
REMARK    1  A    between atoms: N_1  and  C_4
REMARK    2  A    between atoms: C_4  and  C_5
REMARK                            x       y       z     vdW  Elec       q    Type
REMARK                         _______ _______ _______ _____ _____    ______ ____
ROOT
ATOM      1  N   UNL     1       2.768   1.838   4.110  0.00  0.00    -0.354 N 
ATOM      2  N   UNL     1       3.300   3.258   5.861  0.00  0.00    -0.372 N 
ATOM      3  N   UNL     1       4.021   1.081   5.940  0.00  0.00    -0.372 N 
ATOM      4  C   UNL     1       3.360   2.047   5.293  0.00  0.00    +0.166 C 
ATOM      5  H   UNL     1       2.257   2.603   3.686  0.00  0.00    +0.163 HD
ATOM      6  H   UNL     1       3.741   3.447   6.751  0.00  0.00    +0.159 HD
ATOM      7  H   UNL     1       2.828   4.033   5.412  0.00  0.00    +0.159 HD
ATOM      8  H   UNL     1       4.099   0.144   5.568  0.00  0.00    +0.159 HD
ATOM      9  H   UNL     1       4.459   1.247   6.837  0.00  0.00    +0.159 HD
ENDROOT
BRANCH   1  10
ATOM     10  C   UNL     1       2.820   0.571   3.382  0.00  0.00    +0.151 C 
BRANCH  10  11
ATOM     11  C   UNL     1       1.573  -0.216   3.675  0.00  0.00    -0.028 A 
ATOM     12  C   UNL     1       0.336   0.189   3.151  0.00  0.00    +0.005 A 
ATOM     13  C   UNL     1       1.622  -1.371   4.470  0.00  0.00    +0.005 A 
ATOM     14  C   UNL     1      -0.818  -0.559   3.398  0.00  0.00    +0.000 A 
ATOM     15  C   UNL     1       0.467  -2.114   4.715  0.00  0.00    +0.000 A 
ATOM     16  C   UNL     1      -0.752  -1.709   4.177  0.00  0.00    +0.000 A 
ENDBRANCH  10  11
ENDBRANCH   1  10
TORSDOF 2
ENDMDL
MODEL 4
REMARK VINA RESULT:    -4.960      3.624      5.075
REMARK INTER + INTRA:          -5.666
REMARK INTER:                  -5.518
REMARK INTRA:                  -0.148
REMARK UNBOUND:                -0.127
REMARK  Name = 1550473
REMARK  2 active torsions:
REMARK  status: ('A' for Active; 'I' for Inactive)
REMARK    1  A    between atoms: N_1  and  C_4
REMARK    2  A    between atoms: C_4  and  C_5
REMARK                            x       y       z     vdW  Elec       q    Type
REMARK                         _______ _______ _______ _____ _____    ______ ____
ROOT
ATOM      1  N   UNL     1       0.878   4.158   3.228  0.00  0.00    -0.354 N 
ATOM      2  N   UNL     1       0.629   6.119   4.434  0.00  0.00    -0.372 N 
ATOM      3  N   UNL     1       2.462   4.797   4.832  0.00  0.00    -0.372 N 
ATOM      4  C   UNL     1       1.327   5.011   4.158  0.00  0.00    +0.166 C 
ATOM      5  H   UNL     1      -0.006   4.362   2.774  0.00  0.00    +0.163 HD
ATOM      6  H   UNL     1       0.945   6.783   5.128  0.00  0.00    +0.159 HD
ATOM      7  H   UNL     1      -0.230   6.344   3.946  0.00  0.00    +0.159 HD
ATOM      8  H   UNL     1       3.032   3.977   4.674  0.00  0.00    +0.159 HD
ATOM      9  H   UNL     1       2.788   5.444   5.539  0.00  0.00    +0.159 HD
ENDROOT
BRANCH   1  10
ATOM     10  C   UNL     1       1.589   2.950   2.814  0.00  0.00    +0.151 C 
BRANCH  10  11
ATOM     11  C   UNL     1       0.697   1.758   3.025  0.00  0.00    -0.028 A 
ATOM     12  C   UNL     1       1.217   0.457   2.946  0.00  0.00    +0.005 A 
ATOM     13  C   UNL     1      -0.667   1.922   3.310  0.00  0.00    +0.005 A 
ATOM     14  C   UNL     1       0.395  -0.650   3.172  0.00  0.00    +0.000 A 
ATOM     15  C   UNL     1      -1.484   0.814   3.534  0.00  0.00    +0.000 A 
ATOM     16  C   UNL     1      -0.953  -0.471   3.467  0.00  0.00    +0.000 A 
ENDBRANCH  10  11
ENDBRANCH   1  10
TORSDOF 2
ENDMDL
MODEL 5
REMARK VINA RESULT:    -4.407     13.899     15.561
REMARK INTER + INTRA:          -5.049
REMARK INTER:                  -4.916
REMARK INTRA:                  -0.133
REMARK UNBOUND:                -0.127
REMARK  Name = 1550473
REMARK  2 active torsions:
REMARK  status: ('A' for Active; 'I' for Inactive)
REMARK    1  A    between atoms: N_1  and  C_4
REMARK    2  A    between atoms: C_4  and  C_5
REMARK                            x       y       z     vdW  Elec       q    Type
REMARK                         _______ _______ _______ _____ _____    ______ ____
ROOT
ATOM      1  N   UNL     1      -7.667  10.744  -2.054  0.00  0.00    -0.354 N 
ATOM      2  N   UNL     1      -6.430  10.269  -0.155  0.00  0.00    -0.372 N 
ATOM      3  N   UNL     1      -8.442  11.348   0.073  0.00  0.00    -0.372 N 
ATOM      4  C   UNL     1      -7.523  10.791  -0.723  0.00  0.00    +0.166 C 
ATOM      5  H   UNL     1      -6.920  10.335  -2.605  0.00  0.00    +0.163 HD
ATOM      6  H   UNL     1      -6.295  10.287   0.847  0.00  0.00    +0.159 HD
ATOM      7  H   UNL     1      -5.707   9.820  -0.704  0.00  0.00    +0.159 HD
ATOM      8  H   UNL     1      -9.287  11.765  -0.294  0.00  0.00    +0.159 HD
ATOM      9  H   UNL     1      -8.320  11.386   1.077  0.00  0.00    +0.159 HD
ENDROOT
BRANCH   1  10
ATOM     10  C   UNL     1      -8.844  11.236  -2.768  0.00  0.00    +0.151 C 
BRANCH  10  11
ATOM     11  C   UNL     1      -9.407  10.125  -3.612  0.00  0.00    -0.028 A 
ATOM     12  C   UNL     1      -9.987  10.402  -4.858  0.00  0.00    +0.005 A 
ATOM     13  C   UNL     1      -9.358   8.793  -3.173  0.00  0.00    +0.005 A 
ATOM     14  C   UNL     1     -10.483   9.368  -5.655  0.00  0.00    +0.000 A 
ATOM     15  C   UNL     1      -9.855   7.763  -3.971  0.00  0.00    +0.000 A 
ATOM     16  C   UNL     1     -10.415   8.051  -5.214  0.00  0.00    +0.000 A 
ENDBRANCH  10  11
ENDBRANCH   1  10
TORSDOF 2
ENDMDL
MODEL 6
REMARK VINA RESULT:    -4.393      3.659      4.779
REMARK INTER + INTRA:          -5.034
REMARK INTER:                  -4.876
REMARK INTRA:                  -0.158
REMARK UNBOUND:                -0.127
REMARK  Name = 1550473
REMARK  2 active torsions:
REMARK  status: ('A' for Active; 'I' for Inactive)
REMARK    1  A    between atoms: N_1  and  C_4
REMARK    2  A    between atoms: C_4  and  C_5
REMARK                            x       y       z     vdW  Elec       q    Type
REMARK                         _______ _______ _______ _____ _____    ______ ____
ROOT
ATOM      1  N   UNL     1       3.293   2.458   5.933  0.00  0.00    -0.354 N 
ATOM      2  N   UNL     1       4.639   4.315   5.609  0.00  0.00    -0.372 N 
ATOM      3  N   UNL     1       2.450   4.625   6.223  0.00  0.00    -0.372 N 
ATOM      4  C   UNL     1       3.449   3.788   5.924  0.00  0.00    +0.166 C 
ATOM      5  H   UNL     1       4.082   1.879   5.668  0.00  0.00    +0.163 HD
ATOM      6  H   UNL     1       4.788   5.315   5.598  0.00  0.00    +0.159 HD
ATOM      7  H   UNL     1       5.438   3.732   5.390  0.00  0.00    +0.159 HD
ATOM      8  H   UNL     1       1.526   4.291   6.463  0.00  0.00    +0.159 HD
ATOM      9  H   UNL     1       2.576   5.629   6.205  0.00  0.00    +0.159 HD
ENDROOT
BRANCH   1  10
ATOM     10  C   UNL     1       2.054   1.782   6.314  0.00  0.00    +0.151 C 
BRANCH  10  11
ATOM     11  C   UNL     1       1.479   1.093   5.107  0.00  0.00    -0.028 A 
ATOM     12  C   UNL     1       1.450  -0.308   5.034  0.00  0.00    +0.005 A 
ATOM     13  C   UNL     1       0.957   1.834   4.036  0.00  0.00    +0.005 A 
ATOM     14  C   UNL     1       0.889  -0.948   3.927  0.00  0.00    +0.000 A 
ATOM     15  C   UNL     1       0.399   1.191   2.932  0.00  0.00    +0.000 A 
ATOM     16  C   UNL     1       0.363  -0.201   2.879  0.00  0.00    +0.000 A 
ENDBRANCH  10  11
ENDBRANCH   1  10
TORSDOF 2
ENDMDL
MODEL 7
REMARK VINA RESULT:    -4.179     14.546     15.211
REMARK INTER + INTRA:          -4.795
REMARK INTER:                  -4.674
REMARK INTRA:                  -0.121
REMARK UNBOUND:                -0.127
REMARK  Name = 1550473
REMARK  2 active torsions:
REMARK  status: ('A' for Active; 'I' for Inactive)
REMARK    1  A    between atoms: N_1  and  C_4
REMARK    2  A    between atoms: C_4  and  C_5
REMARK                            x       y       z     vdW  Elec       q    Type
REMARK                         _______ _______ _______ _____ _____    ______ ____
ROOT
ATOM      1  N   UNL     1      -5.517   0.365  16.990  0.00  0.00    -0.354 N 
ATOM      2  N   UNL     1      -7.393  -0.959  17.292  0.00  0.00    -0.372 N 
ATOM      3  N   UNL     1      -7.418   0.642  15.649  0.00  0.00    -0.372 N 
ATOM      4  C   UNL     1      -6.765   0.027  16.640  0.00  0.00    +0.166 C 
ATOM      5  H   UNL     1      -5.087  -0.120  17.770  0.00  0.00    +0.163 HD
ATOM      6  H   UNL     1      -8.333  -1.239  17.048  0.00  0.00    +0.159 HD
ATOM      7  H   UNL     1      -6.944  -1.472  18.041  0.00  0.00    +0.159 HD
ATOM      8  H   UNL     1      -7.002   1.398  15.121  0.00  0.00    +0.159 HD
ATOM      9  H   UNL     1      -8.364   0.384  15.397  0.00  0.00    +0.159 HD
ENDROOT
BRANCH   1  10
ATOM     10  C   UNL     1      -4.725   1.387  16.308  0.00  0.00    +0.151 C 
BRANCH  10  11
ATOM     11  C   UNL     1      -3.793   2.029  17.299  0.00  0.00    -0.028 A 
ATOM     12  C   UNL     1      -3.307   1.301  18.395  0.00  0.00    +0.005 A 
ATOM     13  C   UNL     1      -3.389   3.364  17.145  0.00  0.00    +0.005 A 
ATOM     14  C   UNL     1      -2.418   1.887  19.299  0.00  0.00    +0.000 A 
ATOM     15  C   UNL     1      -2.502   3.946  18.051  0.00  0.00    +0.000 A 
ATOM     16  C   UNL     1      -2.015   3.207  19.126  0.00  0.00    +0.000 A 
ENDBRANCH  10  11
ENDBRANCH   1  10
TORSDOF 2
ENDMDL
MODEL 8
REMARK VINA RESULT:    -3.922      3.665      5.325
REMARK INTER + INTRA:          -4.507
REMARK INTER:                  -4.363
REMARK INTRA:                  -0.145
REMARK UNBOUND:                -0.127
REMARK  Name = 1550473
REMARK  2 active torsions:
REMARK  status: ('A' for Active; 'I' for Inactive)
REMARK    1  A    between atoms: N_1  and  C_4
REMARK    2  A    between atoms: C_4  and  C_5
REMARK                            x       y       z     vdW  Elec       q    Type
REMARK                         _______ _______ _______ _____ _____    ______ ____
ROOT
ATOM      1  N   UNL     1       1.687   4.027   3.825  0.00  0.00    -0.354 N 
ATOM      2  N   UNL     1       1.447   5.883   2.461  0.00  0.00    -0.372 N 
ATOM      3  N   UNL     1      -0.072   5.541   4.146  0.00  0.00    -0.372 N 
ATOM      4  C   UNL     1       1.020   5.139   3.488  0.00  0.00    +0.166 C 
ATOM      5  H   UNL     1       2.490   3.760   3.267  0.00  0.00    +0.163 HD
ATOM      6  H   UNL     1       0.965   6.729   2.185  0.00  0.00    +0.159 HD
ATOM      7  H   UNL     1       2.276   5.638   1.934  0.00  0.00    +0.159 HD
ATOM      8  H   UNL     1      -0.449   5.021   4.927  0.00  0.00    +0.159 HD
ATOM      9  H   UNL     1      -0.575   6.379   3.878  0.00  0.00    +0.159 HD
ENDROOT
BRANCH   1  10
ATOM     10  C   UNL     1       1.337   3.176   4.960  0.00  0.00    +0.151 C 
BRANCH  10  11
ATOM     11  C   UNL     1       1.229   1.751   4.491  0.00  0.00    -0.028 A 
ATOM     12  C   UNL     1       1.908   0.726   5.165  0.00  0.00    +0.005 A 
ATOM     13  C   UNL     1       0.444   1.419   3.376  0.00  0.00    +0.005 A 
ATOM     14  C   UNL     1       1.784  -0.602   4.748  0.00  0.00    +0.000 A 
ATOM     15  C   UNL     1       0.323   0.093   2.962  0.00  0.00    +0.000 A 
ATOM     16  C   UNL     1       0.991  -0.917   3.649  0.00  0.00    +0.000 A 
ENDBRANCH  10  11
ENDBRANCH   1  10
TORSDOF 2
ENDMDL
MODEL 9
REMARK VINA RESULT:    -3.886      3.417      4.132
REMARK INTER + INTRA:          -4.467
REMARK INTER:                  -4.363
REMARK INTRA:                  -0.104
REMARK UNBOUND:                -0.127
REMARK  Name = 1550473
REMARK  2 active torsions:
REMARK  status: ('A' for Active; 'I' for Inactive)
REMARK    1  A    between atoms: N_1  and  C_4
REMARK    2  A    between atoms: C_4  and  C_5
REMARK                            x       y       z     vdW  Elec       q    Type
REMARK                         _______ _______ _______ _____ _____    ______ ____
ROOT
ATOM      1  N   UNL     1       5.134  -1.073   2.964  0.00  0.00    -0.354 N 
ATOM      2  N   UNL     1       7.104  -0.837   1.769  0.00  0.00    -0.372 N 
ATOM      3  N   UNL     1       5.762  -2.650   1.348  0.00  0.00    -0.372 N 
ATOM      4  C   UNL     1       5.986  -1.524   2.034  0.00  0.00    +0.166 C 
ATOM      5  H   UNL     1       5.376  -0.229   3.470  0.00  0.00    +0.163 HD
ATOM      6  H   UNL     1       7.764  -1.150   1.070  0.00  0.00    +0.159 HD
ATOM      7  H   UNL     1       7.321   0.031   2.244  0.00  0.00    +0.159 HD
ATOM      8  H   UNL     1       4.940  -3.217   1.505  0.00  0.00    +0.159 HD
ATOM      9  H   UNL     1       6.416  -2.986   0.653  0.00  0.00    +0.159 HD
ENDROOT
BRANCH   1  10
ATOM     10  C   UNL     1       3.863  -1.718   3.290  0.00  0.00    +0.151 C 
BRANCH  10  11
ATOM     11  C   UNL     1       2.840  -0.659   3.599  0.00  0.00    -0.028 A 
ATOM     12  C   UNL     1       2.845  -0.005   4.839  0.00  0.00    +0.005 A 
ATOM     13  C   UNL     1       1.867  -0.302   2.653  0.00  0.00    +0.005 A 
ATOM     14  C   UNL     1       1.914   0.999   5.115  0.00  0.00    +0.000 A 
ATOM     15  C   UNL     1       0.939   0.700   2.932  0.00  0.00    +0.000 A 
ATOM     16  C   UNL     1       0.964   1.352   4.163  0.00  0.00    +0.000 A 
ENDBRANCH  10  11
ENDBRANCH   1  10
TORSDOF 2
ENDMDL
