MODEL 1
REMARK VINA RESULT:    -4.524      0.000      0.000
REMARK INTER + INTRA:          -5.193
REMARK INTER:                  -5.053
REMARK INTRA:                  -0.140
REMARK UNBOUND:                -0.140
REMARK  Name = 1550473
REMARK  2 active torsions:
REMARK  status: ('A' for Active; 'I' for Inactive)
REMARK    1  A    between atoms: N_1  and  C_4
REMARK    2  A    between atoms: C_4  and  C_5
REMARK                            x       y       z     vdW  Elec       q    Type
REMARK                         _______ _______ _______ _____ _____    ______ ____
ROOT
ATOM      1  N   UNL     1      -7.954 -12.708 -18.089  0.00  0.00    -0.354 N 
ATOM      2  N   UNL     1      -5.682 -12.266 -18.027  0.00  0.00    -0.372 N 
ATOM      3  N   UNL     1      -6.393 -14.311 -18.785  0.00  0.00    -0.372 N 
ATOM      4  C   UNL     1      -6.691 -13.101 -18.302  0.00  0.00    +0.166 C 
ATOM      5  H   UNL     1      -8.112 -11.789 -17.692  0.00  0.00    +0.163 HD
ATOM      6  H   UNL     1      -4.718 -12.533 -18.180  0.00  0.00    +0.159 HD
ATOM      7  H   UNL     1      -5.844 -11.331 -17.674  0.00  0.00    +0.159 HD
ATOM      8  H   UNL     1      -7.109 -14.990 -19.007  0.00  0.00    +0.159 HD
ATOM      9  H   UNL     1      -5.435 -14.601 -18.934  0.00  0.00    +0.159 HD
ENDROOT
BRANCH   1  10
ATOM     10  C   UNL     1      -9.127 -13.521 -18.406  0.00  0.00    +0.151 C 
BRANCH  10  11
ATOM     11  C   UNL     1     -10.052 -13.531 -17.220  0.00  0.00    -0.028 A 
ATOM     12  C   UNL     1      -9.568 -13.236 -15.937  0.00  0.00    +0.005 A 
ATOM     13  C   UNL     1     -11.415 -13.830 -17.373  0.00  0.00    +0.005 A 
ATOM     14  C   UNL     1     -10.432 -13.216 -14.840  0.00  0.00    +0.000 A 
ATOM     15  C   UNL     1     -12.274 -13.810 -16.275  0.00  0.00    +0.000 A 
ATOM     16  C   UNL     1     -11.783 -13.501 -15.009  0.00  0.00    +0.000 A 
ENDBRANCH  10  11
ENDBRANCH   1  10
TORSDOF 2
ENDMDL
MODEL 2
REMARK VINA RESULT:    -4.511     15.327     15.710
REMARK INTER + INTRA:          -5.178
REMARK INTER:                  -5.031
REMARK INTRA:                  -0.147
REMARK UNBOUND:                -0.140
REMARK  Name = 1550473
REMARK  2 active torsions:
REMARK  status: ('A' for Active; 'I' for Inactive)
REMARK    1  A    between atoms: N_1  and  C_4
REMARK    2  A    between atoms: C_4  and  C_5
REMARK                            x       y       z     vdW  Elec       q    Type
REMARK                         _______ _______ _______ _____ _____    ______ ____
ROOT
ATOM      1  N   UNL     1     -22.609 -12.744  -8.415  0.00  0.00    -0.354 N 
ATOM      2  N   UNL     1     -21.285 -10.933  -7.840  0.00  0.00    -0.372 N 
ATOM      3  N   UNL     1     -21.915 -11.195 -10.031  0.00  0.00    -0.372 N 
ATOM      4  C   UNL     1     -21.945 -11.635  -8.769  0.00  0.00    +0.166 C 
ATOM      5  H   UNL     1     -22.568 -13.041  -7.447  0.00  0.00    +0.163 HD
ATOM      6  H   UNL     1     -20.778 -10.091  -8.077  0.00  0.00    +0.159 HD
ATOM      7  H   UNL     1     -21.283 -11.207  -6.865  0.00  0.00    +0.159 HD
ATOM      8  H   UNL     1     -22.388 -11.683 -10.780  0.00  0.00    +0.159 HD
ATOM      9  H   UNL     1     -21.404 -10.361 -10.289  0.00  0.00    +0.159 HD
ENDROOT
BRANCH   1  10
ATOM     10  C   UNL     1     -23.404 -13.551  -9.339  0.00  0.00    +0.151 C 
BRANCH  10  11
ATOM     11  C   UNL     1     -22.860 -14.952  -9.361  0.00  0.00    -0.028 A 
ATOM     12  C   UNL     1     -21.881 -15.350  -8.438  0.00  0.00    +0.005 A 
ATOM     13  C   UNL     1     -23.322 -15.889 -10.298  0.00  0.00    +0.005 A 
ATOM     14  C   UNL     1     -21.397 -16.661  -8.438  0.00  0.00    +0.000 A 
ATOM     15  C   UNL     1     -22.835 -17.196 -10.296  0.00  0.00    +0.000 A 
ATOM     16  C   UNL     1     -21.875 -17.582  -9.364  0.00  0.00    +0.000 A 
ENDBRANCH  10  11
ENDBRANCH   1  10
TORSDOF 2
ENDMDL
MODEL 3
REMARK VINA RESULT:    -4.386      4.830      6.628
REMARK INTER + INTRA:          -5.039
REMARK INTER:                  -4.929
REMARK INTRA:                  -0.110
REMARK UNBOUND:                -0.140
REMARK  Name = 1550473
REMARK  2 active torsions:
REMARK  status: ('A' for Active; 'I' for Inactive)
REMARK    1  A    between atoms: N_1  and  C_4
REMARK    2  A    between atoms: C_4  and  C_5
REMARK                            x       y       z     vdW  Elec       q    Type
REMARK                         _______ _______ _______ _____ _____    ______ ____
ROOT
ATOM      1  N   UNL     1     -15.283 -12.490 -17.589  0.00  0.00    -0.354 N 
ATOM      2  N   UNL     1     -16.624 -10.622 -17.311  0.00  0.00    -0.372 N 
ATOM      3  N   UNL     1     -16.777 -12.333 -15.790  0.00  0.00    -0.372 N 
ATOM      4  C   UNL     1     -16.220 -11.829 -16.897  0.00  0.00    +0.166 C 
ATOM      5  H   UNL     1     -14.923 -12.066 -18.436  0.00  0.00    +0.163 HD
ATOM      6  H   UNL     1     -17.327 -10.098 -16.807  0.00  0.00    +0.159 HD
ATOM      7  H   UNL     1     -16.229 -10.181 -18.133  0.00  0.00    +0.159 HD
ATOM      8  H   UNL     1     -16.520 -13.241 -15.428  0.00  0.00    +0.159 HD
ATOM      9  H   UNL     1     -17.490 -11.829 -15.279  0.00  0.00    +0.159 HD
ENDROOT
BRANCH   1  10
ATOM     10  C   UNL     1     -14.736 -13.786 -17.193  0.00  0.00    +0.151 C 
BRANCH  10  11
ATOM     11  C   UNL     1     -13.245 -13.770 -17.389  0.00  0.00    -0.028 A 
ATOM     12  C   UNL     1     -12.696 -13.762 -18.680  0.00  0.00    +0.005 A 
ATOM     13  C   UNL     1     -12.375 -13.757 -16.288  0.00  0.00    +0.005 A 
ATOM     14  C   UNL     1     -11.312 -13.716 -18.863  0.00  0.00    +0.000 A 
ATOM     15  C   UNL     1     -10.993 -13.713 -16.474  0.00  0.00    +0.000 A 
ATOM     16  C   UNL     1     -10.463 -13.690 -17.762  0.00  0.00    +0.000 A 
ENDBRANCH  10  11
ENDBRANCH   1  10
TORSDOF 2
ENDMDL
MODEL 4
REMARK VINA RESULT:    -4.348      4.272      5.660
REMARK INTER + INTRA:          -4.996
REMARK INTER:                  -4.845
REMARK INTRA:                  -0.151
REMARK UNBOUND:                -0.140
REMARK  Name = 1550473
REMARK  2 active torsions:
REMARK  status: ('A' for Active; 'I' for Inactive)
REMARK    1  A    between atoms: N_1  and  C_4
REMARK    2  A    between atoms: C_4  and  C_5
REMARK                            x       y       z     vdW  Elec       q    Type
REMARK                         _______ _______ _______ _____ _____    ______ ____
ROOT
ATOM      1  N   UNL     1     -13.885 -15.577 -16.922  0.00  0.00    -0.354 N 
ATOM      2  N   UNL     1     -14.499 -17.201 -18.455  0.00  0.00    -0.372 N 
ATOM      3  N   UNL     1     -15.061 -15.015 -18.870  0.00  0.00    -0.372 N 
ATOM      4  C   UNL     1     -14.479 -15.918 -18.074  0.00  0.00    +0.166 C 
ATOM      5  H   UNL     1     -13.489 -16.313 -16.349  0.00  0.00    +0.163 HD
ATOM      6  H   UNL     1     -14.937 -17.488 -19.321  0.00  0.00    +0.159 HD
ATOM      7  H   UNL     1     -14.062 -17.928 -17.903  0.00  0.00    +0.159 HD
ATOM      8  H   UNL     1     -15.085 -14.031 -18.637  0.00  0.00    +0.159 HD
ATOM      9  H   UNL     1     -15.514 -15.284 -19.735  0.00  0.00    +0.159 HD
ENDROOT
BRANCH   1  10
ATOM     10  C   UNL     1     -13.761 -14.202 -16.442  0.00  0.00    +0.151 C 
BRANCH  10  11
ATOM     11  C   UNL     1     -12.304 -13.872 -16.269  0.00  0.00    -0.028 A 
ATOM     12  C   UNL     1     -11.444 -13.842 -17.376  0.00  0.00    +0.005 A 
ATOM     13  C   UNL     1     -11.779 -13.582 -15.000  0.00  0.00    +0.005 A 
ATOM     14  C   UNL     1     -10.097 -13.506 -17.220  0.00  0.00    +0.000 A 
ATOM     15  C   UNL     1     -10.433 -13.248 -14.848  0.00  0.00    +0.000 A 
ATOM     16  C   UNL     1      -9.593 -13.208 -15.958  0.00  0.00    +0.000 A 
ENDBRANCH  10  11
ENDBRANCH   1  10
TORSDOF 2
ENDMDL
MODEL 5
REMARK VINA RESULT:    -4.345     12.161     13.400
REMARK INTER + INTRA:          -4.993
REMARK INTER:                  -4.845
REMARK INTRA:                  -0.148
REMARK UNBOUND:                -0.140
REMARK  Name = 1550473
REMARK  2 active torsions:
REMARK  status: ('A' for Active; 'I' for Inactive)
REMARK    1  A    between atoms: N_1  and  C_4
REMARK    2  A    between atoms: C_4  and  C_5
REMARK                            x       y       z     vdW  Elec       q    Type
REMARK                         _______ _______ _______ _____ _____    ______ ____
ROOT
ATOM      1  N   UNL     1     -13.731 -18.742 -28.440  0.00  0.00    -0.354 N 
ATOM      2  N   UNL     1     -14.689 -18.049 -30.431  0.00  0.00    -0.372 N 
ATOM      3  N   UNL     1     -13.577 -16.511 -29.141  0.00  0.00    -0.372 N 
ATOM      4  C   UNL     1     -13.992 -17.769 -29.323  0.00  0.00    +0.166 C 
ATOM      5  H   UNL     1     -14.100 -19.669 -28.621  0.00  0.00    +0.163 HD
ATOM      6  H   UNL     1     -14.899 -17.336 -31.117  0.00  0.00    +0.159 HD
ATOM      7  H   UNL     1     -15.017 -18.986 -30.632  0.00  0.00    +0.159 HD
ATOM      8  H   UNL     1     -13.051 -16.234 -28.323  0.00  0.00    +0.159 HD
ATOM      9  H   UNL     1     -13.787 -15.782 -29.811  0.00  0.00    +0.159 HD
ENDROOT
BRANCH   1  10
ATOM     10  C   UNL     1     -12.934 -18.554 -27.229  0.00  0.00    +0.151 C 
BRANCH  10  11
ATOM     11  C   UNL     1     -11.689 -19.392 -27.326  0.00  0.00    -0.028 A 
ATOM     12  C   UNL     1     -10.486 -18.947 -26.758  0.00  0.00    +0.005 A 
ATOM     13  C   UNL     1     -11.706 -20.634 -27.979  0.00  0.00    +0.005 A 
ATOM     14  C   UNL     1      -9.336 -19.738 -26.822  0.00  0.00    +0.000 A 
ATOM     15  C   UNL     1     -10.556 -21.420 -28.041  0.00  0.00    +0.000 A 
ATOM     16  C   UNL     1      -9.372 -20.973 -27.460  0.00  0.00    +0.000 A 
ENDBRANCH  10  11
ENDBRANCH   1  10
TORSDOF 2
ENDMDL
MODEL 6
REMARK VINA RESULT:    -4.296     15.238     16.639
REMARK INTER + INTRA:          -4.938
REMARK INTER:                  -4.811
REMARK INTRA:                  -0.127
REMARK UNBOUND:                -0.140
REMARK  Name = 1550473
REMARK  2 active torsions:
REMARK  status: ('A' for Active; 'I' for Inactive)
REMARK    1  A    between atoms: N_1  and  C_4
REMARK    2  A    between atoms: C_4  and  C_5
REMARK                            x       y       z     vdW  Elec       q    Type
REMARK                         _______ _______ _______ _____ _____    ______ ____
ROOT
ATOM      1  N   UNL     1     -12.159  -4.767  -5.034  0.00  0.00    -0.354 N 
ATOM      2  N   UNL     1     -11.076  -6.152  -6.542  0.00  0.00    -0.372 N 
ATOM      3  N   UNL     1      -9.822  -4.765  -5.212  0.00  0.00    -0.372 N 
ATOM      4  C   UNL     1     -11.024  -5.217  -5.585  0.00  0.00    +0.166 C 
ATOM      5  H   UNL     1     -13.039  -5.128  -5.383  0.00  0.00    +0.163 HD
ATOM      6  H   UNL     1     -10.236  -6.513  -6.974  0.00  0.00    +0.159 HD
ATOM      7  H   UNL     1     -11.955  -6.544  -6.856  0.00  0.00    +0.159 HD
ATOM      8  H   UNL     1      -9.715  -4.055  -4.499  0.00  0.00    +0.159 HD
ATOM      9  H   UNL     1      -8.971  -5.106  -5.640  0.00  0.00    +0.159 HD
ENDROOT
BRANCH   1  10
ATOM     10  C   UNL     1     -12.209  -3.789  -3.948  0.00  0.00    +0.151 C 
BRANCH  10  11
ATOM     11  C   UNL     1     -13.404  -4.078  -3.083  0.00  0.00    -0.028 A 
ATOM     12  C   UNL     1     -14.467  -4.853  -3.571  0.00  0.00    +0.005 A 
ATOM     13  C   UNL     1     -13.478  -3.585  -1.771  0.00  0.00    +0.005 A 
ATOM     14  C   UNL     1     -15.564  -5.146  -2.757  0.00  0.00    +0.000 A 
ATOM     15  C   UNL     1     -14.575  -3.879  -0.962  0.00  0.00    +0.000 A 
ATOM     16  C   UNL     1     -15.617  -4.662  -1.455  0.00  0.00    +0.000 A 
ENDBRANCH  10  11
ENDBRANCH   1  10
TORSDOF 2
ENDMDL
MODEL 7
REMARK VINA RESULT:    -4.273      5.997      7.130
REMARK INTER + INTRA:          -4.913
REMARK INTER:                  -4.795
REMARK INTRA:                  -0.117
REMARK UNBOUND:                -0.140
REMARK  Name = 1550473
REMARK  2 active torsions:
REMARK  status: ('A' for Active; 'I' for Inactive)
REMARK    1  A    between atoms: N_1  and  C_4
REMARK    2  A    between atoms: C_4  and  C_5
REMARK                            x       y       z     vdW  Elec       q    Type
REMARK                         _______ _______ _______ _____ _____    ______ ____
ROOT
ATOM      1  N   UNL     1      -6.020 -13.723 -13.551  0.00  0.00    -0.354 N 
ATOM      2  N   UNL     1      -6.016 -15.839 -14.492  0.00  0.00    -0.372 N 
ATOM      3  N   UNL     1      -8.023 -14.877 -13.934  0.00  0.00    -0.372 N 
ATOM      4  C   UNL     1      -6.689 -14.799 -13.986  0.00  0.00    +0.166 C 
ATOM      5  H   UNL     1      -5.007 -13.738 -13.590  0.00  0.00    +0.163 HD
ATOM      6  H   UNL     1      -6.494 -16.663 -14.831  0.00  0.00    +0.159 HD
ATOM      7  H   UNL     1      -5.006 -15.832 -14.573  0.00  0.00    +0.159 HD
ATOM      8  H   UNL     1      -8.589 -14.129 -13.557  0.00  0.00    +0.159 HD
ATOM      9  H   UNL     1      -8.519 -15.698 -14.257  0.00  0.00    +0.159 HD
ENDROOT
BRANCH   1  10
ATOM     10  C   UNL     1      -6.661 -12.516 -13.031  0.00  0.00    +0.151 C 
BRANCH  10  11
ATOM     11  C   UNL     1      -5.711 -11.819 -12.097  0.00  0.00    -0.028 A 
ATOM     12  C   UNL     1      -6.196 -11.097 -10.996  0.00  0.00    +0.005 A 
ATOM     13  C   UNL     1      -4.324 -11.881 -12.303  0.00  0.00    +0.005 A 
ATOM     14  C   UNL     1      -5.313 -10.475 -10.111  0.00  0.00    +0.000 A 
ATOM     15  C   UNL     1      -3.446 -11.257 -11.417  0.00  0.00    +0.000 A 
ATOM     16  C   UNL     1      -3.940 -10.556 -10.320  0.00  0.00    +0.000 A 
ENDBRANCH  10  11
ENDBRANCH   1  10
TORSDOF 2
ENDMDL
MODEL 8
REMARK VINA RESULT:    -4.178      5.351      6.689
REMARK INTER + INTRA:          -4.807
REMARK INTER:                  -4.623
REMARK INTRA:                  -0.184
REMARK UNBOUND:                -0.140
REMARK  Name = 1550473
REMARK  2 active torsions:
REMARK  status: ('A' for Active; 'I' for Inactive)
REMARK    1  A    between atoms: N_1  and  C_4
REMARK    2  A    between atoms: C_4  and  C_5
REMARK                            x       y       z     vdW  Elec       q    Type
REMARK                         _______ _______ _______ _____ _____    ______ ____
ROOT
ATOM      1  N   UNL     1      -6.601 -12.612 -14.525  0.00  0.00    -0.354 N 
ATOM      2  N   UNL     1      -7.548 -12.363 -16.624  0.00  0.00    -0.372 N 
ATOM      3  N   UNL     1      -8.663 -11.533 -14.799  0.00  0.00    -0.372 N 
ATOM      4  C   UNL     1      -7.600 -12.170 -15.301  0.00  0.00    +0.166 C 
ATOM      5  H   UNL     1      -5.837 -13.115 -14.963  0.00  0.00    +0.163 HD
ATOM      6  H   UNL     1      -8.285 -12.038 -17.235  0.00  0.00    +0.159 HD
ATOM      7  H   UNL     1      -6.761 -12.825 -17.065  0.00  0.00    +0.159 HD
ATOM      8  H   UNL     1      -8.765 -11.361 -13.808  0.00  0.00    +0.159 HD
ATOM      9  H   UNL     1      -9.416 -11.210 -15.393  0.00  0.00    +0.159 HD
ENDROOT
BRANCH   1  10
ATOM     10  C   UNL     1      -6.535 -12.406 -13.079  0.00  0.00    +0.151 C 
BRANCH  10  11
ATOM     11  C   UNL     1      -5.603 -11.262 -12.789  0.00  0.00    -0.028 A 
ATOM     12  C   UNL     1      -4.227 -11.387 -13.027  0.00  0.00    +0.005 A 
ATOM     13  C   UNL     1      -6.091 -10.048 -12.281  0.00  0.00    +0.005 A 
ATOM     14  C   UNL     1      -3.365 -10.314 -12.785  0.00  0.00    +0.000 A 
ATOM     15  C   UNL     1      -5.227  -8.980 -12.040  0.00  0.00    +0.000 A 
ATOM     16  C   UNL     1      -3.864  -9.113 -12.295  0.00  0.00    +0.000 A 
ENDBRANCH  10  11
ENDBRANCH   1  10
TORSDOF 2
ENDMDL
MODEL 9
REMARK VINA RESULT:    -4.102      5.685      7.230
REMARK INTER + INTRA:          -4.721
REMARK INTER:                  -4.548
REMARK INTRA:                  -0.174
REMARK UNBOUND:                -0.140
REMARK  Name = 1550473
REMARK  2 active torsions:
REMARK  status: ('A' for Active; 'I' for Inactive)
REMARK    1  A    between atoms: N_1  and  C_4
REMARK    2  A    between atoms: C_4  and  C_5
REMARK                            x       y       z     vdW  Elec       q    Type
REMARK                         _______ _______ _______ _____ _____    ______ ____
ROOT
ATOM      1  N   UNL     1     -12.402 -16.013 -18.266  0.00  0.00    -0.354 N 
ATOM      2  N   UNL     1     -14.043 -16.539 -16.718  0.00  0.00    -0.372 N 
ATOM      3  N   UNL     1     -14.673 -15.755 -18.780  0.00  0.00    -0.372 N 
ATOM      4  C   UNL     1     -13.697 -16.098 -17.934  0.00  0.00    +0.166 C 
ATOM      5  H   UNL     1     -11.709 -16.260 -17.568  0.00  0.00    +0.163 HD
ATOM      6  H   UNL     1     -15.012 -16.617 -16.441  0.00  0.00    +0.159 HD
ATOM      7  H   UNL     1     -13.349 -16.829 -16.039  0.00  0.00    +0.159 HD
ATOM      8  H   UNL     1     -14.478 -15.408 -19.710  0.00  0.00    +0.159 HD
ATOM      9  H   UNL     1     -15.649 -15.814 -18.517  0.00  0.00    +0.159 HD
ENDROOT
BRANCH   1  10
ATOM     10  C   UNL     1     -11.920 -15.596 -19.582  0.00  0.00    +0.151 C 
BRANCH  10  11
ATOM     11  C   UNL     1     -11.613 -16.818 -20.402  0.00  0.00    -0.028 A 
ATOM     12  C   UNL     1     -12.069 -16.922 -21.724  0.00  0.00    +0.005 A 
ATOM     13  C   UNL     1     -10.860 -17.874 -19.865  0.00  0.00    +0.005 A 
ATOM     14  C   UNL     1     -11.758 -18.044 -22.496  0.00  0.00    +0.000 A 
ATOM     15  C   UNL     1     -10.552 -18.992 -20.639  0.00  0.00    +0.000 A 
ATOM     16  C   UNL     1     -10.999 -19.076 -21.955  0.00  0.00    +0.000 A 
ENDBRANCH  10  11
ENDBRANCH   1  10
TORSDOF 2
ENDMDL
