MODEL 1
REMARK VINA RESULT:    -5.691      0.000      0.000
REMARK INTER + INTRA:          -6.488
REMARK INTER:                  -6.357
REMARK INTRA:                  -0.131
REMARK UNBOUND:                -0.131
REMARK  Name = 1550473
REMARK  2 active torsions:
REMARK  status: ('A' for Active; 'I' for Inactive)
REMARK    1  A    between atoms: N_1  and  C_4
REMARK    2  A    between atoms: C_4  and  C_5
REMARK                            x       y       z     vdW  Elec       q    Type
REMARK                         _______ _______ _______ _____ _____    ______ ____
ROOT
ATOM      1  N   UNL     1      -5.603  -7.034  -6.994  0.00  0.00    -0.354 N 
ATOM      2  N   UNL     1      -5.602  -5.473  -5.282  0.00  0.00    -0.372 N 
ATOM      3  N   UNL     1      -3.809  -6.891  -5.493  0.00  0.00    -0.372 N 
ATOM      4  C   UNL     1      -5.002  -6.478  -5.934  0.00  0.00    +0.166 C 
ATOM      5  H   UNL     1      -6.521  -6.695  -7.260  0.00  0.00    +0.163 HD
ATOM      6  H   UNL     1      -5.171  -5.032  -4.481  0.00  0.00    +0.159 HD
ATOM      7  H   UNL     1      -6.498  -5.106  -5.578  0.00  0.00    +0.159 HD
ATOM      8  H   UNL     1      -3.307  -7.648  -5.937  0.00  0.00    +0.159 HD
ATOM      9  H   UNL     1      -3.368  -6.469  -4.685  0.00  0.00    +0.159 HD
ENDROOT
BRANCH   1  10
ATOM     10  C   UNL     1      -5.012  -8.096  -7.805  0.00  0.00    +0.151 C 
BRANCH  10  11
ATOM     11  C   UNL     1      -5.953  -9.268  -7.842  0.00  0.00    -0.028 A 
ATOM     12  C   UNL     1      -5.545 -10.525  -7.373  0.00  0.00    +0.005 A 
ATOM     13  C   UNL     1      -7.258  -9.127  -8.339  0.00  0.00    +0.005 A 
ATOM     14  C   UNL     1      -6.429 -11.607  -7.379  0.00  0.00    +0.000 A 
ATOM     15  C   UNL     1      -8.137 -10.209  -8.345  0.00  0.00    +0.000 A 
ATOM     16  C   UNL     1      -7.723 -11.448  -7.862  0.00  0.00    +0.000 A 
ENDBRANCH  10  11
ENDBRANCH   1  10
TORSDOF 2
ENDMDL
MODEL 2
REMARK VINA RESULT:    -5.367      1.369      2.166
REMARK INTER + INTRA:          -6.126
REMARK INTER:                  -6.030
REMARK INTRA:                  -0.096
REMARK UNBOUND:                -0.131
REMARK  Name = 1550473
REMARK  2 active torsions:
REMARK  status: ('A' for Active; 'I' for Inactive)
REMARK    1  A    between atoms: N_1  and  C_4
REMARK    2  A    between atoms: C_4  and  C_5
REMARK                            x       y       z     vdW  Elec       q    Type
REMARK                         _______ _______ _______ _____ _____    ______ ____
ROOT
ATOM      1  N   UNL     1      -5.332  -6.406  -7.173  0.00  0.00    -0.354 N 
ATOM      2  N   UNL     1      -3.975  -5.121  -5.805  0.00  0.00    -0.372 N 
ATOM      3  N   UNL     1      -5.357  -6.682  -4.846  0.00  0.00    -0.372 N 
ATOM      4  C   UNL     1      -4.898  -6.080  -5.949  0.00  0.00    +0.166 C 
ATOM      5  H   UNL     1      -4.967  -5.891  -7.966  0.00  0.00    +0.163 HD
ATOM      6  H   UNL     1      -3.626  -4.856  -4.894  0.00  0.00    +0.159 HD
ATOM      7  H   UNL     1      -3.578  -4.640  -6.603  0.00  0.00    +0.159 HD
ATOM      8  H   UNL     1      -6.058  -7.410  -4.886  0.00  0.00    +0.159 HD
ATOM      9  H   UNL     1      -5.028  -6.423  -3.925  0.00  0.00    +0.159 HD
ENDROOT
BRANCH   1  10
ATOM     10  C   UNL     1      -6.295  -7.472  -7.443  0.00  0.00    +0.151 C 
BRANCH  10  11
ATOM     11  C   UNL     1      -5.551  -8.754  -7.697  0.00  0.00    -0.028 A 
ATOM     12  C   UNL     1      -4.244  -8.730  -8.204  0.00  0.00    +0.005 A 
ATOM     13  C   UNL     1      -6.145  -9.996  -7.426  0.00  0.00    +0.005 A 
ATOM     14  C   UNL     1      -3.541  -9.919  -8.412  0.00  0.00    +0.000 A 
ATOM     15  C   UNL     1      -5.441 -11.182  -7.636  0.00  0.00    +0.000 A 
ATOM     16  C   UNL     1      -4.138 -11.143  -8.127  0.00  0.00    +0.000 A 
ENDBRANCH  10  11
ENDBRANCH   1  10
TORSDOF 2
ENDMDL
MODEL 3
REMARK VINA RESULT:    -5.130     23.285     25.167
REMARK INTER + INTRA:          -5.861
REMARK INTER:                  -5.756
REMARK INTRA:                  -0.105
REMARK UNBOUND:                -0.131
REMARK  Name = 1550473
REMARK  2 active torsions:
REMARK  status: ('A' for Active; 'I' for Inactive)
REMARK    1  A    between atoms: N_1  and  C_4
REMARK    2  A    between atoms: C_4  and  C_5
REMARK                            x       y       z     vdW  Elec       q    Type
REMARK                         _______ _______ _______ _____ _____    ______ ____
ROOT
ATOM      1  N   UNL     1      15.565   1.198 -10.496  0.00  0.00    -0.354 N 
ATOM      2  N   UNL     1      14.982  -1.009 -10.889  0.00  0.00    -0.372 N 
ATOM      3  N   UNL     1      14.597   0.549 -12.529  0.00  0.00    -0.372 N 
ATOM      4  C   UNL     1      15.051   0.262 -11.305  0.00  0.00    +0.166 C 
ATOM      5  H   UNL     1      15.864   0.921  -9.568  0.00  0.00    +0.163 HD
ATOM      6  H   UNL     1      14.602  -1.737 -11.478  0.00  0.00    +0.159 HD
ATOM      7  H   UNL     1      15.324  -1.291  -9.978  0.00  0.00    +0.159 HD
ATOM      8  H   UNL     1      14.615   1.490 -12.900  0.00  0.00    +0.159 HD
ATOM      9  H   UNL     1      14.203  -0.164 -13.129  0.00  0.00    +0.159 HD
ENDROOT
BRANCH   1  10
ATOM     10  C   UNL     1      15.735   2.600 -10.873  0.00  0.00    +0.151 C 
BRANCH  10  11
ATOM     11  C   UNL     1      15.970   3.417  -9.632  0.00  0.00    -0.028 A 
ATOM     12  C   UNL     1      15.235   4.589  -9.401  0.00  0.00    +0.005 A 
ATOM     13  C   UNL     1      16.923   3.022  -8.681  0.00  0.00    +0.005 A 
ATOM     14  C   UNL     1      15.432   5.332  -8.235  0.00  0.00    +0.000 A 
ATOM     15  C   UNL     1      17.118   3.767  -7.518  0.00  0.00    +0.000 A 
ATOM     16  C   UNL     1      16.370   4.920  -7.294  0.00  0.00    +0.000 A 
ENDBRANCH  10  11
ENDBRANCH   1  10
TORSDOF 2
ENDMDL
MODEL 4
REMARK VINA RESULT:    -4.990     23.214     24.887
REMARK INTER + INTRA:          -5.705
REMARK INTER:                  -5.525
REMARK INTRA:                  -0.179
REMARK UNBOUND:                -0.131
REMARK  Name = 1550473
REMARK  2 active torsions:
REMARK  status: ('A' for Active; 'I' for Inactive)
REMARK    1  A    between atoms: N_1  and  C_4
REMARK    2  A    between atoms: C_4  and  C_5
REMARK                            x       y       z     vdW  Elec       q    Type
REMARK                         _______ _______ _______ _____ _____    ______ ____
ROOT
ATOM      1  N   UNL     1      16.424   0.070 -10.746  0.00  0.00    -0.354 N 
ATOM      2  N   UNL     1      15.050  -1.794 -10.690  0.00  0.00    -0.372 N 
ATOM      3  N   UNL     1      14.721  -0.223 -12.329  0.00  0.00    -0.372 N 
ATOM      4  C   UNL     1      15.406  -0.635 -11.257  0.00  0.00    +0.166 C 
ATOM      5  H   UNL     1      16.883  -0.282  -9.914  0.00  0.00    +0.163 HD
ATOM      6  H   UNL     1      14.289  -2.350 -11.055  0.00  0.00    +0.159 HD
ATOM      7  H   UNL     1      15.541  -2.166  -9.886  0.00  0.00    +0.159 HD
ATOM      8  H   UNL     1      14.935   0.646 -12.800  0.00  0.00    +0.159 HD
ATOM      9  H   UNL     1      13.948  -0.759 -12.703  0.00  0.00    +0.159 HD
ENDROOT
BRANCH   1  10
ATOM     10  C   UNL     1      16.925   1.317 -11.321  0.00  0.00    +0.151 C 
BRANCH  10  11
ATOM     11  C   UNL     1      16.366   2.476 -10.543  0.00  0.00    -0.028 A 
ATOM     12  C   UNL     1      16.906   2.824  -9.297  0.00  0.00    +0.005 A 
ATOM     13  C   UNL     1      15.300   3.235 -11.050  0.00  0.00    +0.005 A 
ATOM     14  C   UNL     1      16.408   3.919  -8.587  0.00  0.00    +0.000 A 
ATOM     15  C   UNL     1      14.804   4.327 -10.339  0.00  0.00    +0.000 A 
ATOM     16  C   UNL     1      15.360   4.670  -9.108  0.00  0.00    +0.000 A 
ENDBRANCH  10  11
ENDBRANCH   1  10
TORSDOF 2
ENDMDL
MODEL 5
REMARK VINA RESULT:    -4.604     25.490     26.493
REMARK INTER + INTRA:          -5.274
REMARK INTER:                  -5.146
REMARK INTRA:                  -0.128
REMARK UNBOUND:                -0.131
REMARK  Name = 1550473
REMARK  2 active torsions:
REMARK  status: ('A' for Active; 'I' for Inactive)
REMARK    1  A    between atoms: N_1  and  C_4
REMARK    2  A    between atoms: C_4  and  C_5
REMARK                            x       y       z     vdW  Elec       q    Type
REMARK                         _______ _______ _______ _____ _____    ______ ____
ROOT
ATOM      1  N   UNL     1       0.693  -2.069  18.638  0.00  0.00    -0.354 N 
ATOM      2  N   UNL     1       2.897  -1.392  18.864  0.00  0.00    -0.372 N 
ATOM      3  N   UNL     1       2.401  -3.627  19.025  0.00  0.00    -0.372 N 
ATOM      4  C   UNL     1       1.983  -2.370  18.842  0.00  0.00    +0.166 C 
ATOM      5  H   UNL     1       0.437  -1.094  18.535  0.00  0.00    +0.163 HD
ATOM      6  H   UNL     1       3.877  -1.589  19.013  0.00  0.00    +0.159 HD
ATOM      7  H   UNL     1       2.644  -0.423  18.716  0.00  0.00    +0.159 HD
ATOM      8  H   UNL     1       1.761  -4.410  19.025  0.00  0.00    +0.159 HD
ATOM      9  H   UNL     1       3.377  -3.843  19.187  0.00  0.00    +0.159 HD
ENDROOT
BRANCH   1  10
ATOM     10  C   UNL     1      -0.373  -3.065  18.541  0.00  0.00    +0.151 C 
BRANCH  10  11
ATOM     11  C   UNL     1      -1.505  -2.494  17.732  0.00  0.00    -0.028 A 
ATOM     12  C   UNL     1      -2.620  -3.283  17.413  0.00  0.00    +0.005 A 
ATOM     13  C   UNL     1      -1.472  -1.164  17.286  0.00  0.00    +0.005 A 
ATOM     14  C   UNL     1      -3.686  -2.745  16.688  0.00  0.00    +0.000 A 
ATOM     15  C   UNL     1      -2.537  -0.631  16.561  0.00  0.00    +0.000 A 
ATOM     16  C   UNL     1      -3.645  -1.421  16.264  0.00  0.00    +0.000 A 
ENDBRANCH  10  11
ENDBRANCH   1  10
TORSDOF 2
ENDMDL
MODEL 6
REMARK VINA RESULT:    -4.555      9.470     11.264
REMARK INTER + INTRA:          -5.218
REMARK INTER:                  -5.099
REMARK INTRA:                  -0.120
REMARK UNBOUND:                -0.131
REMARK  Name = 1550473
REMARK  2 active torsions:
REMARK  status: ('A' for Active; 'I' for Inactive)
REMARK    1  A    between atoms: N_1  and  C_4
REMARK    2  A    between atoms: C_4  and  C_5
REMARK                            x       y       z     vdW  Elec       q    Type
REMARK                         _______ _______ _______ _____ _____    ______ ____
ROOT
ATOM      1  N   UNL     1     -14.361  -9.502 -15.543  0.00  0.00    -0.354 N 
ATOM      2  N   UNL     1     -15.175  -8.043 -17.147  0.00  0.00    -0.372 N 
ATOM      3  N   UNL     1     -14.466 -10.125 -17.800  0.00  0.00    -0.372 N 
ATOM      4  C   UNL     1     -14.661  -9.235 -16.821  0.00  0.00    +0.166 C 
ATOM      5  H   UNL     1     -14.504  -8.774 -14.853  0.00  0.00    +0.163 HD
ATOM      6  H   UNL     1     -15.414  -7.814 -18.103  0.00  0.00    +0.159 HD
ATOM      7  H   UNL     1     -15.360  -7.333 -16.449  0.00  0.00    +0.159 HD
ATOM      8  H   UNL     1     -14.076 -11.041 -17.621  0.00  0.00    +0.159 HD
ATOM      9  H   UNL     1     -14.688  -9.911 -18.764  0.00  0.00    +0.159 HD
ENDROOT
BRANCH   1  10
ATOM     10  C   UNL     1     -13.847 -10.788 -15.075  0.00  0.00    +0.151 C 
BRANCH  10  11
ATOM     11  C   UNL     1     -13.246 -10.609 -13.708  0.00  0.00    -0.028 A 
ATOM     12  C   UNL     1     -13.647  -9.544 -12.888  0.00  0.00    +0.005 A 
ATOM     13  C   UNL     1     -12.279 -11.504 -13.226  0.00  0.00    +0.005 A 
ATOM     14  C   UNL     1     -13.111  -9.395 -11.607  0.00  0.00    +0.000 A 
ATOM     15  C   UNL     1     -11.745 -11.350 -11.946  0.00  0.00    +0.000 A 
ATOM     16  C   UNL     1     -12.164 -10.298 -11.136  0.00  0.00    +0.000 A 
ENDBRANCH  10  11
ENDBRANCH   1  10
TORSDOF 2
ENDMDL
MODEL 7
REMARK VINA RESULT:    -4.546     23.436     25.000
REMARK INTER + INTRA:          -5.208
REMARK INTER:                  -5.038
REMARK INTRA:                  -0.170
REMARK UNBOUND:                -0.131
REMARK  Name = 1550473
REMARK  2 active torsions:
REMARK  status: ('A' for Active; 'I' for Inactive)
REMARK    1  A    between atoms: N_1  and  C_4
REMARK    2  A    between atoms: C_4  and  C_5
REMARK                            x       y       z     vdW  Elec       q    Type
REMARK                         _______ _______ _______ _____ _____    ______ ____
ROOT
ATOM      1  N   UNL     1      15.731   0.733 -12.898  0.00  0.00    -0.354 N 
ATOM      2  N   UNL     1      14.183  -0.859 -13.554  0.00  0.00    -0.372 N 
ATOM      3  N   UNL     1      14.023   1.263 -14.412  0.00  0.00    -0.372 N 
ATOM      4  C   UNL     1      14.655   0.392 -13.618  0.00  0.00    +0.166 C 
ATOM      5  H   UNL     1      16.147   0.034 -12.292  0.00  0.00    +0.163 HD
ATOM      6  H   UNL     1      13.374  -1.147 -14.089  0.00  0.00    +0.159 HD
ATOM      7  H   UNL     1      14.627  -1.568 -12.983  0.00  0.00    +0.159 HD
ATOM      8  H   UNL     1      14.326   2.224 -14.500  0.00  0.00    +0.159 HD
ATOM      9  H   UNL     1      13.205   0.998 -14.946  0.00  0.00    +0.159 HD
ENDROOT
BRANCH   1  10
ATOM     10  C   UNL     1      16.357   2.054 -12.938  0.00  0.00    +0.151 C 
BRANCH  10  11
ATOM     11  C   UNL     1      16.123   2.748 -11.624  0.00  0.00    -0.028 A 
ATOM     12  C   UNL     1      16.988   2.531 -10.541  0.00  0.00    +0.005 A 
ATOM     13  C   UNL     1      15.043   3.628 -11.458  0.00  0.00    +0.005 A 
ATOM     14  C   UNL     1      16.788   3.198  -9.330  0.00  0.00    +0.000 A 
ATOM     15  C   UNL     1      14.847   4.291 -10.247  0.00  0.00    +0.000 A 
ATOM     16  C   UNL     1      15.722   4.078  -9.184  0.00  0.00    +0.000 A 
ENDBRANCH  10  11
ENDBRANCH   1  10
TORSDOF 2
ENDMDL
MODEL 8
REMARK VINA RESULT:    -4.514     16.469     17.470
REMARK INTER + INTRA:          -5.172
REMARK INTER:                  -5.042
REMARK INTRA:                  -0.130
REMARK UNBOUND:                -0.131
REMARK  Name = 1550473
REMARK  2 active torsions:
REMARK  status: ('A' for Active; 'I' for Inactive)
REMARK    1  A    between atoms: N_1  and  C_4
REMARK    2  A    between atoms: C_4  and  C_5
REMARK                            x       y       z     vdW  Elec       q    Type
REMARK                         _______ _______ _______ _____ _____    ______ ____
ROOT
ATOM      1  N   UNL     1      11.112  -7.789 -13.482  0.00  0.00    -0.354 N 
ATOM      2  N   UNL     1      12.078  -7.680 -11.380  0.00  0.00    -0.372 N 
ATOM      3  N   UNL     1      11.082  -9.638 -12.042  0.00  0.00    -0.372 N 
ATOM      4  C   UNL     1      11.416  -8.372 -12.315  0.00  0.00    +0.166 C 
ATOM      5  H   UNL     1      11.367  -6.817 -13.615  0.00  0.00    +0.163 HD
ATOM      6  H   UNL     1      12.324  -8.094 -10.491  0.00  0.00    +0.159 HD
ATOM      7  H   UNL     1      12.372  -6.723 -11.533  0.00  0.00    +0.159 HD
ATOM      8  H   UNL     1      10.577 -10.213 -12.704  0.00  0.00    +0.159 HD
ATOM      9  H   UNL     1      11.309 -10.067 -11.154  0.00  0.00    +0.159 HD
ENDROOT
BRANCH   1  10
ATOM     10  C   UNL     1      10.442  -8.472 -14.587  0.00  0.00    +0.151 C 
BRANCH  10  11
ATOM     11  C   UNL     1       9.288  -7.630 -15.057  0.00  0.00    -0.028 A 
ATOM     12  C   UNL     1       9.406  -6.235 -15.125  0.00  0.00    +0.005 A 
ATOM     13  C   UNL     1       8.075  -8.223 -15.442  0.00  0.00    +0.005 A 
ATOM     14  C   UNL     1       8.344  -5.454 -15.589  0.00  0.00    +0.000 A 
ATOM     15  C   UNL     1       7.017  -7.441 -15.904  0.00  0.00    +0.000 A 
ATOM     16  C   UNL     1       7.153  -6.057 -15.980  0.00  0.00    +0.000 A 
ENDBRANCH  10  11
ENDBRANCH   1  10
TORSDOF 2
ENDMDL
MODEL 9
REMARK VINA RESULT:    -4.462     16.619     17.824
REMARK INTER + INTRA:          -5.115
REMARK INTER:                  -4.934
REMARK INTRA:                  -0.181
REMARK UNBOUND:                -0.131
REMARK  Name = 1550473
REMARK  2 active torsions:
REMARK  status: ('A' for Active; 'I' for Inactive)
REMARK    1  A    between atoms: N_1  and  C_4
REMARK    2  A    between atoms: C_4  and  C_5
REMARK                            x       y       z     vdW  Elec       q    Type
REMARK                         _______ _______ _______ _____ _____    ______ ____
ROOT
ATOM      1  N   UNL     1     -10.921   5.771  -1.664  0.00  0.00    -0.354 N 
ATOM      2  N   UNL     1     -10.274   5.809   0.559  0.00  0.00    -0.372 N 
ATOM      3  N   UNL     1      -9.916   7.672  -0.733  0.00  0.00    -0.372 N 
ATOM      4  C   UNL     1     -10.373   6.420  -0.628  0.00  0.00    +0.166 C 
ATOM      5  H   UNL     1     -11.222   4.812  -1.527  0.00  0.00    +0.163 HD
ATOM      6  H   UNL     1      -9.868   6.275   1.360  0.00  0.00    +0.159 HD
ATOM      7  H   UNL     1     -10.617   4.868   0.705  0.00  0.00    +0.159 HD
ATOM      8  H   UNL     1      -9.956   8.185  -1.603  0.00  0.00    +0.159 HD
ATOM      9  H   UNL     1      -9.496   8.150   0.055  0.00  0.00    +0.159 HD
ENDROOT
BRANCH   1  10
ATOM     10  C   UNL     1     -11.126   6.364  -2.984  0.00  0.00    +0.151 C 
BRANCH  10  11
ATOM     11  C   UNL     1     -12.543   6.856  -3.088  0.00  0.00    -0.028 A 
ATOM     12  C   UNL     1     -12.809   8.207  -3.355  0.00  0.00    +0.005 A 
ATOM     13  C   UNL     1     -13.623   5.976  -2.924  0.00  0.00    +0.005 A 
ATOM     14  C   UNL     1     -14.125   8.659  -3.481  0.00  0.00    +0.000 A 
ATOM     15  C   UNL     1     -14.936   6.432  -3.050  0.00  0.00    +0.000 A 
ATOM     16  C   UNL     1     -15.186   7.773  -3.331  0.00  0.00    +0.000 A 
ENDBRANCH  10  11
ENDBRANCH   1  10
TORSDOF 2
ENDMDL
