MODEL 1
REMARK VINA RESULT:    -5.764      0.000      0.000
REMARK INTER + INTRA:          -6.546
REMARK INTER:                  -6.438
REMARK INTRA:                  -0.108
REMARK UNBOUND:                -0.108
REMARK  Name = 1550473
REMARK  2 active torsions:
REMARK  status: ('A' for Active; 'I' for Inactive)
REMARK    1  A    between atoms: N_1  and  C_4
REMARK    2  A    between atoms: C_4  and  C_5
REMARK                            x       y       z     vdW  Elec       q    Type
REMARK                         _______ _______ _______ _____ _____    ______ ____
ROOT
ATOM      1  N   UNL     1      -5.558   4.666   3.974  0.00  0.00    -0.354 N 
ATOM      2  N   UNL     1      -7.620   3.632   3.766  0.00  0.00    -0.372 N 
ATOM      3  N   UNL     1      -6.188   3.621   1.973  0.00  0.00    -0.372 N 
ATOM      4  C   UNL     1      -6.441   3.979   3.236  0.00  0.00    +0.166 C 
ATOM      5  H   UNL     1      -5.823   4.934   4.915  0.00  0.00    +0.163 HD
ATOM      6  H   UNL     1      -8.305   3.111   3.234  0.00  0.00    +0.159 HD
ATOM      7  H   UNL     1      -7.863   3.861   4.722  0.00  0.00    +0.159 HD
ATOM      8  H   UNL     1      -5.319   3.858   1.513  0.00  0.00    +0.159 HD
ATOM      9  H   UNL     1      -6.865   3.109   1.421  0.00  0.00    +0.159 HD
ENDROOT
BRANCH   1  10
ATOM     10  C   UNL     1      -4.225   5.047   3.510  0.00  0.00    +0.151 C 
BRANCH  10  11
ATOM     11  C   UNL     1      -3.471   5.679   4.647  0.00  0.00    -0.028 A 
ATOM     12  C   UNL     1      -2.796   6.895   4.465  0.00  0.00    +0.005 A 
ATOM     13  C   UNL     1      -3.433   5.070   5.911  0.00  0.00    +0.005 A 
ATOM     14  C   UNL     1      -2.120   7.497   5.529  0.00  0.00    +0.000 A 
ATOM     15  C   UNL     1      -2.757   5.675   6.971  0.00  0.00    +0.000 A 
ATOM     16  C   UNL     1      -2.103   6.890   6.780  0.00  0.00    +0.000 A 
ENDBRANCH  10  11
ENDBRANCH   1  10
TORSDOF 2
ENDMDL
MODEL 2
REMARK VINA RESULT:    -5.615      1.906      3.170
REMARK INTER + INTRA:          -6.380
REMARK INTER:                  -6.318
REMARK INTRA:                  -0.062
REMARK UNBOUND:                -0.108
REMARK  Name = 1550473
REMARK  2 active torsions:
REMARK  status: ('A' for Active; 'I' for Inactive)
REMARK    1  A    between atoms: N_1  and  C_4
REMARK    2  A    between atoms: C_4  and  C_5
REMARK                            x       y       z     vdW  Elec       q    Type
REMARK                         _______ _______ _______ _____ _____    ______ ____
ROOT
ATOM      1  N   UNL     1      -5.684   4.888   3.886  0.00  0.00    -0.354 N 
ATOM      2  N   UNL     1      -7.662   3.790   3.389  0.00  0.00    -0.372 N 
ATOM      3  N   UNL     1      -5.691   2.952   2.565  0.00  0.00    -0.372 N 
ATOM      4  C   UNL     1      -6.331   3.883   3.282  0.00  0.00    +0.166 C 
ATOM      5  H   UNL     1      -6.230   5.578   4.389  0.00  0.00    +0.163 HD
ATOM      6  H   UNL     1      -8.177   3.041   2.947  0.00  0.00    +0.159 HD
ATOM      7  H   UNL     1      -8.200   4.456   3.931  0.00  0.00    +0.159 HD
ATOM      8  H   UNL     1      -4.688   2.969   2.441  0.00  0.00    +0.159 HD
ATOM      9  H   UNL     1      -6.190   2.201   2.106  0.00  0.00    +0.159 HD
ENDROOT
BRANCH   1  10
ATOM     10  C   UNL     1      -4.231   5.049   3.876  0.00  0.00    +0.151 C 
BRANCH  10  11
ATOM     11  C   UNL     1      -3.871   6.208   2.988  0.00  0.00    -0.028 A 
ATOM     12  C   UNL     1      -2.779   7.031   3.300  0.00  0.00    +0.005 A 
ATOM     13  C   UNL     1      -4.615   6.486   1.831  0.00  0.00    +0.005 A 
ATOM     14  C   UNL     1      -2.426   8.090   2.460  0.00  0.00    +0.000 A 
ATOM     15  C   UNL     1      -4.260   7.544   0.995  0.00  0.00    +0.000 A 
ATOM     16  C   UNL     1      -3.164   8.345   1.309  0.00  0.00    +0.000 A 
ENDBRANCH  10  11
ENDBRANCH   1  10
TORSDOF 2
ENDMDL
MODEL 3
REMARK VINA RESULT:    -5.331      2.480      2.979
REMARK INTER + INTRA:          -6.062
REMARK INTER:                  -5.886
REMARK INTRA:                  -0.176
REMARK UNBOUND:                -0.108
REMARK  Name = 1550473
REMARK  2 active torsions:
REMARK  status: ('A' for Active; 'I' for Inactive)
REMARK    1  A    between atoms: N_1  and  C_4
REMARK    2  A    between atoms: C_4  and  C_5
REMARK                            x       y       z     vdW  Elec       q    Type
REMARK                         _______ _______ _______ _____ _____    ______ ____
ROOT
ATOM      1  N   UNL     1      -3.989   8.102   2.074  0.00  0.00    -0.354 N 
ATOM      2  N   UNL     1      -6.145   8.303   1.251  0.00  0.00    -0.372 N 
ATOM      3  N   UNL     1      -4.993   6.353   0.879  0.00  0.00    -0.372 N 
ATOM      4  C   UNL     1      -5.028   7.582   1.405  0.00  0.00    +0.166 C 
ATOM      5  H   UNL     1      -4.067   9.050   2.422  0.00  0.00    +0.163 HD
ATOM      6  H   UNL     1      -6.946   7.936   0.754  0.00  0.00    +0.159 HD
ATOM      7  H   UNL     1      -6.237   9.233   1.640  0.00  0.00    +0.159 HD
ATOM      8  H   UNL     1      -4.178   5.760   0.956  0.00  0.00    +0.159 HD
ATOM      9  H   UNL     1      -5.781   5.973   0.369  0.00  0.00    +0.159 HD
ENDROOT
BRANCH   1  10
ATOM     10  C   UNL     1      -2.747   7.380   2.344  0.00  0.00    +0.151 C 
BRANCH  10  11
ATOM     11  C   UNL     1      -2.754   6.909   3.772  0.00  0.00    -0.028 A 
ATOM     12  C   UNL     1      -2.222   7.714   4.790  0.00  0.00    +0.005 A 
ATOM     13  C   UNL     1      -3.296   5.661   4.115  0.00  0.00    +0.005 A 
ATOM     14  C   UNL     1      -2.255   7.290   6.121  0.00  0.00    +0.000 A 
ATOM     15  C   UNL     1      -3.327   5.241   5.445  0.00  0.00    +0.000 A 
ATOM     16  C   UNL     1      -2.808   6.056   6.447  0.00  0.00    +0.000 A 
ENDBRANCH  10  11
ENDBRANCH   1  10
TORSDOF 2
ENDMDL
MODEL 4
REMARK VINA RESULT:    -5.154      3.190      5.049
REMARK INTER + INTRA:          -5.865
REMARK INTER:                  -5.765
REMARK INTRA:                  -0.100
REMARK UNBOUND:                -0.108
REMARK  Name = 1550473
REMARK  2 active torsions:
REMARK  status: ('A' for Active; 'I' for Inactive)
REMARK    1  A    between atoms: N_1  and  C_4
REMARK    2  A    between atoms: C_4  and  C_5
REMARK                            x       y       z     vdW  Elec       q    Type
REMARK                         _______ _______ _______ _____ _____    ______ ____
ROOT
ATOM      1  N   UNL     1      -2.925   6.914   5.230  0.00  0.00    -0.354 N 
ATOM      2  N   UNL     1      -2.914   7.386   7.497  0.00  0.00    -0.372 N 
ATOM      3  N   UNL     1      -2.893   5.194   6.821  0.00  0.00    -0.372 N 
ATOM      4  C   UNL     1      -2.911   6.492   6.501  0.00  0.00    +0.166 C 
ATOM      5  H   UNL     1      -2.970   7.911   5.054  0.00  0.00    +0.163 HD
ATOM      6  H   UNL     1      -2.900   7.098   8.466  0.00  0.00    +0.159 HD
ATOM      7  H   UNL     1      -2.912   8.383   7.318  0.00  0.00    +0.159 HD
ATOM      8  H   UNL     1      -2.895   4.468   6.117  0.00  0.00    +0.159 HD
ATOM      9  H   UNL     1      -2.890   4.885   7.786  0.00  0.00    +0.159 HD
ENDROOT
BRANCH   1  10
ATOM     10  C   UNL     1      -2.869   6.023   4.072  0.00  0.00    +0.151 C 
BRANCH  10  11
ATOM     11  C   UNL     1      -3.302   6.780   2.848  0.00  0.00    -0.028 A 
ATOM     12  C   UNL     1      -4.404   6.348   2.095  0.00  0.00    +0.005 A 
ATOM     13  C   UNL     1      -2.618   7.935   2.438  0.00  0.00    +0.005 A 
ATOM     14  C   UNL     1      -4.825   7.068   0.975  0.00  0.00    +0.000 A 
ATOM     15  C   UNL     1      -3.041   8.651   1.318  0.00  0.00    +0.000 A 
ATOM     16  C   UNL     1      -4.146   8.219   0.588  0.00  0.00    +0.000 A 
ENDBRANCH  10  11
ENDBRANCH   1  10
TORSDOF 2
ENDMDL
MODEL 5
REMARK VINA RESULT:    -5.084     16.250     17.848
REMARK INTER + INTRA:          -5.787
REMARK INTER:                  -5.629
REMARK INTRA:                  -0.158
REMARK UNBOUND:                -0.108
REMARK  Name = 1550473
REMARK  2 active torsions:
REMARK  status: ('A' for Active; 'I' for Inactive)
REMARK    1  A    between atoms: N_1  and  C_4
REMARK    2  A    between atoms: C_4  and  C_5
REMARK                            x       y       z     vdW  Elec       q    Type
REMARK                         _______ _______ _______ _____ _____    ______ ____
ROOT
ATOM      1  N   UNL     1     -14.683  -6.465  -6.339  0.00  0.00    -0.354 N 
ATOM      2  N   UNL     1     -13.462  -7.562  -7.972  0.00  0.00    -0.372 N 
ATOM      3  N   UNL     1     -13.137  -5.311  -7.669  0.00  0.00    -0.372 N 
ATOM      4  C   UNL     1     -13.768  -6.436  -7.316  0.00  0.00    +0.166 C 
ATOM      5  H   UNL     1     -15.148  -7.343  -6.139  0.00  0.00    +0.163 HD
ATOM      6  H   UNL     1     -12.773  -7.573  -8.712  0.00  0.00    +0.159 HD
ATOM      7  H   UNL     1     -13.894  -8.448  -7.740  0.00  0.00    +0.159 HD
ATOM      8  H   UNL     1     -13.327  -4.427  -7.217  0.00  0.00    +0.159 HD
ATOM      9  H   UNL     1     -12.452  -5.299  -8.415  0.00  0.00    +0.159 HD
ENDROOT
BRANCH   1  10
ATOM     10  C   UNL     1     -15.049  -5.305  -5.527  0.00  0.00    +0.151 C 
BRANCH  10  11
ATOM     11  C   UNL     1     -14.561  -5.515  -4.121  0.00  0.00    -0.028 A 
ATOM     12  C   UNL     1     -15.082  -6.552  -3.334  0.00  0.00    +0.005 A 
ATOM     13  C   UNL     1     -13.572  -4.684  -3.572  0.00  0.00    +0.005 A 
ATOM     14  C   UNL     1     -14.607  -6.767  -2.037  0.00  0.00    +0.000 A 
ATOM     15  C   UNL     1     -13.101  -4.901  -2.277  0.00  0.00    +0.000 A 
ATOM     16  C   UNL     1     -13.617  -5.944  -1.511  0.00  0.00    +0.000 A 
ENDBRANCH  10  11
ENDBRANCH   1  10
TORSDOF 2
ENDMDL
MODEL 6
REMARK VINA RESULT:    -5.071     28.988     30.282
REMARK INTER + INTRA:          -5.772
REMARK INTER:                  -5.672
REMARK INTRA:                  -0.100
REMARK UNBOUND:                -0.108
REMARK  Name = 1550473
REMARK  2 active torsions:
REMARK  status: ('A' for Active; 'I' for Inactive)
REMARK    1  A    between atoms: N_1  and  C_4
REMARK    2  A    between atoms: C_4  and  C_5
REMARK                            x       y       z     vdW  Elec       q    Type
REMARK                         _______ _______ _______ _____ _____    ______ ____
ROOT
ATOM      1  N   UNL     1       5.175   1.656 -25.021  0.00  0.00    -0.354 N 
ATOM      2  N   UNL     1       4.355  -0.338 -25.867  0.00  0.00    -0.372 N 
ATOM      3  N   UNL     1       6.506   0.282 -26.374  0.00  0.00    -0.372 N 
ATOM      4  C   UNL     1       5.353   0.546 -25.750  0.00  0.00    +0.166 C 
ATOM      5  H   UNL     1       4.268   1.813 -24.597  0.00  0.00    +0.163 HD
ATOM      6  H   UNL     1       4.462  -1.186 -26.408  0.00  0.00    +0.159 HD
ATOM      7  H   UNL     1       3.465  -0.201 -25.405  0.00  0.00    +0.159 HD
ATOM      8  H   UNL     1       7.296   0.911 -26.330  0.00  0.00    +0.159 HD
ATOM      9  H   UNL     1       6.628  -0.556 -26.929  0.00  0.00    +0.159 HD
ENDROOT
BRANCH   1  10
ATOM     10  C   UNL     1       6.215   2.656 -24.785  0.00  0.00    +0.151 C 
BRANCH  10  11
ATOM     11  C   UNL     1       5.850   3.469 -23.574  0.00  0.00    -0.028 A 
ATOM     12  C   UNL     1       4.648   4.190 -23.537  0.00  0.00    +0.005 A 
ATOM     13  C   UNL     1       6.700   3.518 -22.458  0.00  0.00    +0.005 A 
ATOM     14  C   UNL     1       4.294   4.922 -22.401  0.00  0.00    +0.000 A 
ATOM     15  C   UNL     1       6.343   4.250 -21.326  0.00  0.00    +0.000 A 
ATOM     16  C   UNL     1       5.139   4.950 -21.297  0.00  0.00    +0.000 A 
ENDBRANCH  10  11
ENDBRANCH   1  10
TORSDOF 2
ENDMDL
MODEL 7
REMARK VINA RESULT:    -4.971      3.593      4.377
REMARK INTER + INTRA:          -5.660
REMARK INTER:                  -5.483
REMARK INTRA:                  -0.177
REMARK UNBOUND:                -0.108
REMARK  Name = 1550473
REMARK  2 active torsions:
REMARK  status: ('A' for Active; 'I' for Inactive)
REMARK    1  A    between atoms: N_1  and  C_4
REMARK    2  A    between atoms: C_4  and  C_5
REMARK                            x       y       z     vdW  Elec       q    Type
REMARK                         _______ _______ _______ _____ _____    ______ ____
ROOT
ATOM      1  N   UNL     1      -5.794   7.810   0.983  0.00  0.00    -0.354 N 
ATOM      2  N   UNL     1      -6.892   9.847   0.887  0.00  0.00    -0.372 N 
ATOM      3  N   UNL     1      -4.627   9.789   0.524  0.00  0.00    -0.372 N 
ATOM      4  C   UNL     1      -5.761   9.136   0.798  0.00  0.00    +0.166 C 
ATOM      5  H   UNL     1      -6.681   7.379   1.219  0.00  0.00    +0.163 HD
ATOM      6  H   UNL     1      -6.899  10.849   0.749  0.00  0.00    +0.159 HD
ATOM      7  H   UNL     1      -7.784   9.407   1.078  0.00  0.00    +0.159 HD
ATOM      8  H   UNL     1      -3.739   9.312   0.449  0.00  0.00    +0.159 HD
ATOM      9  H   UNL     1      -4.612  10.793   0.394  0.00  0.00    +0.159 HD
ENDROOT
BRANCH   1  10
ATOM     10  C   UNL     1      -4.629   6.937   0.855  0.00  0.00    +0.151 C 
BRANCH  10  11
ATOM     11  C   UNL     1      -4.166   6.531   2.227  0.00  0.00    -0.028 A 
ATOM     12  C   UNL     1      -4.919   5.631   2.995  0.00  0.00    +0.005 A 
ATOM     13  C   UNL     1      -2.972   7.038   2.763  0.00  0.00    +0.005 A 
ATOM     14  C   UNL     1      -4.475   5.230   4.258  0.00  0.00    +0.000 A 
ATOM     15  C   UNL     1      -2.532   6.636   4.024  0.00  0.00    +0.000 A 
ATOM     16  C   UNL     1      -3.282   5.730   4.770  0.00  0.00    +0.000 A 
ENDBRANCH  10  11
ENDBRANCH   1  10
TORSDOF 2
ENDMDL
MODEL 8
REMARK VINA RESULT:    -4.784     17.353     18.781
REMARK INTER + INTRA:          -5.451
REMARK INTER:                  -5.340
REMARK INTRA:                  -0.112
REMARK UNBOUND:                -0.108
REMARK  Name = 1550473
REMARK  2 active torsions:
REMARK  status: ('A' for Active; 'I' for Inactive)
REMARK    1  A    between atoms: N_1  and  C_4
REMARK    2  A    between atoms: C_4  and  C_5
REMARK                            x       y       z     vdW  Elec       q    Type
REMARK                         _______ _______ _______ _____ _____    ______ ____
ROOT
ATOM      1  N   UNL     1     -15.200  -4.875  -8.292  0.00  0.00    -0.354 N 
ATOM      2  N   UNL     1     -16.441  -3.885  -9.979  0.00  0.00    -0.372 N 
ATOM      3  N   UNL     1     -14.517  -5.008 -10.530  0.00  0.00    -0.372 N 
ATOM      4  C   UNL     1     -15.375  -4.597  -9.591  0.00  0.00    +0.166 C 
ATOM      5  H   UNL     1     -15.871  -4.508  -7.626  0.00  0.00    +0.163 HD
ATOM      6  H   UNL     1     -16.601  -3.663 -10.952  0.00  0.00    +0.159 HD
ATOM      7  H   UNL     1     -17.134  -3.559  -9.316  0.00  0.00    +0.159 HD
ATOM      8  H   UNL     1     -13.690  -5.544 -10.302  0.00  0.00    +0.159 HD
ATOM      9  H   UNL     1     -14.654  -4.785 -11.508  0.00  0.00    +0.159 HD
ENDROOT
BRANCH   1  10
ATOM     10  C   UNL     1     -14.102  -5.688  -7.771  0.00  0.00    +0.151 C 
BRANCH  10  11
ATOM     11  C   UNL     1     -14.042  -5.532  -6.276  0.00  0.00    -0.028 A 
ATOM     12  C   UNL     1     -13.903  -6.656  -5.448  0.00  0.00    +0.005 A 
ATOM     13  C   UNL     1     -14.118  -4.263  -5.682  0.00  0.00    +0.005 A 
ATOM     14  C   UNL     1     -13.817  -6.509  -4.062  0.00  0.00    +0.000 A 
ATOM     15  C   UNL     1     -14.033  -4.121  -4.297  0.00  0.00    +0.000 A 
ATOM     16  C   UNL     1     -13.880  -5.244  -3.488  0.00  0.00    +0.000 A 
ENDBRANCH  10  11
ENDBRANCH   1  10
TORSDOF 2
ENDMDL
MODEL 9
REMARK VINA RESULT:    -4.779     17.377     18.740
REMARK INTER + INTRA:          -5.446
REMARK INTER:                  -5.328
REMARK INTRA:                  -0.118
REMARK UNBOUND:                -0.108
REMARK  Name = 1550473
REMARK  2 active torsions:
REMARK  status: ('A' for Active; 'I' for Inactive)
REMARK    1  A    between atoms: N_1  and  C_4
REMARK    2  A    between atoms: C_4  and  C_5
REMARK                            x       y       z     vdW  Elec       q    Type
REMARK                         _______ _______ _______ _____ _____    ______ ____
ROOT
ATOM      1  N   UNL     1     -15.245  -4.861  -8.313  0.00  0.00    -0.354 N 
ATOM      2  N   UNL     1     -16.383  -3.716  -9.974  0.00  0.00    -0.372 N 
ATOM      3  N   UNL     1     -14.462  -4.845 -10.522  0.00  0.00    -0.372 N 
ATOM      4  C   UNL     1     -15.354  -4.482  -9.593  0.00  0.00    +0.166 C 
ATOM      5  H   UNL     1     -15.938  -4.527  -7.652  0.00  0.00    +0.163 HD
ATOM      6  H   UNL     1     -16.493  -3.418 -10.934  0.00  0.00    +0.159 HD
ATOM      7  H   UNL     1     -17.099  -3.423  -9.321  0.00  0.00    +0.159 HD
ATOM      8  H   UNL     1     -13.659  -5.418 -10.298  0.00  0.00    +0.159 HD
ATOM      9  H   UNL     1     -14.549  -4.547 -11.485  0.00  0.00    +0.159 HD
ENDROOT
BRANCH   1  10
ATOM     10  C   UNL     1     -14.192  -5.739  -7.806  0.00  0.00    +0.151 C 
BRANCH  10  11
ATOM     11  C   UNL     1     -14.072  -5.554  -6.319  0.00  0.00    -0.028 A 
ATOM     12  C   UNL     1     -14.104  -4.270  -5.756  0.00  0.00    +0.005 A 
ATOM     13  C   UNL     1     -13.932  -6.660  -5.466  0.00  0.00    +0.005 A 
ATOM     14  C   UNL     1     -14.023  -4.100  -4.371  0.00  0.00    +0.000 A 
ATOM     15  C   UNL     1     -13.851  -6.486  -4.084  0.00  0.00    +0.000 A 
ATOM     16  C   UNL     1     -13.898  -5.206  -3.537  0.00  0.00    +0.000 A 
ENDBRANCH  10  11
ENDBRANCH   1  10
TORSDOF 2
ENDMDL
