MODEL 1
REMARK VINA RESULT:    -4.548      0.000      0.000
REMARK INTER + INTRA:          -5.204
REMARK INTER:                  -5.079
REMARK INTRA:                  -0.125
REMARK UNBOUND:                -0.125
REMARK  Name = 1550473
REMARK  2 active torsions:
REMARK  status: ('A' for Active; 'I' for Inactive)
REMARK    1  A    between atoms: N_1  and  C_4
REMARK    2  A    between atoms: C_4  and  C_5
REMARK                            x       y       z     vdW  Elec       q    Type
REMARK                         _______ _______ _______ _____ _____    ______ ____
ROOT
ATOM      1  N   UNL     1      12.207   4.344  18.209  0.00  0.00    -0.354 N 
ATOM      2  N   UNL     1      10.194   4.280  19.351  0.00  0.00    -0.372 N 
ATOM      3  N   UNL     1      10.852   6.249  18.375  0.00  0.00    -0.372 N 
ATOM      4  C   UNL     1      11.098   4.961  18.637  0.00  0.00    +0.166 C 
ATOM      5  H   UNL     1      12.349   3.374  18.467  0.00  0.00    +0.163 HD
ATOM      6  H   UNL     1       9.345   4.718  19.685  0.00  0.00    +0.159 HD
ATOM      7  H   UNL     1      10.316   3.298  19.568  0.00  0.00    +0.159 HD
ATOM      8  H   UNL     1      11.498   6.820  17.846  0.00  0.00    +0.159 HD
ATOM      9  H   UNL     1      10.015   6.708  18.711  0.00  0.00    +0.159 HD
ENDROOT
BRANCH   1  10
ATOM     10  C   UNL     1      13.228   4.981  17.379  0.00  0.00    +0.151 C 
BRANCH  10  11
ATOM     11  C   UNL     1      13.950   3.924  16.590  0.00  0.00    -0.028 A 
ATOM     12  C   UNL     1      14.768   4.277  15.507  0.00  0.00    +0.005 A 
ATOM     13  C   UNL     1      13.823   2.566  16.923  0.00  0.00    +0.005 A 
ATOM     14  C   UNL     1      15.462   3.298  14.793  0.00  0.00    +0.000 A 
ATOM     15  C   UNL     1      14.517   1.591  16.206  0.00  0.00    +0.000 A 
ATOM     16  C   UNL     1      15.338   1.958  15.143  0.00  0.00    +0.000 A 
ENDBRANCH  10  11
ENDBRANCH   1  10
TORSDOF 2
ENDMDL
MODEL 2
REMARK VINA RESULT:    -4.515     23.727     23.956
REMARK INTER + INTRA:          -5.168
REMARK INTER:                  -5.013
REMARK INTRA:                  -0.155
REMARK UNBOUND:                -0.125
REMARK  Name = 1550473
REMARK  2 active torsions:
REMARK  status: ('A' for Active; 'I' for Inactive)
REMARK    1  A    between atoms: N_1  and  C_4
REMARK    2  A    between atoms: C_4  and  C_5
REMARK                            x       y       z     vdW  Elec       q    Type
REMARK                         _______ _______ _______ _____ _____    ______ ____
ROOT
ATOM      1  N   UNL     1      -3.556   1.337   1.877  0.00  0.00    -0.354 N 
ATOM      2  N   UNL     1      -1.966   0.373   3.257  0.00  0.00    -0.372 N 
ATOM      3  N   UNL     1      -1.825   2.617   2.803  0.00  0.00    -0.372 N 
ATOM      4  C   UNL     1      -2.459   1.451   2.636  0.00  0.00    +0.166 C 
ATOM      5  H   UNL     1      -3.972   0.419   1.766  0.00  0.00    +0.163 HD
ATOM      6  H   UNL     1      -1.142   0.429   3.840  0.00  0.00    +0.159 HD
ATOM      7  H   UNL     1      -2.411  -0.534   3.182  0.00  0.00    +0.159 HD
ATOM      8  H   UNL     1      -2.143   3.468   2.357  0.00  0.00    +0.159 HD
ATOM      9  H   UNL     1      -0.992   2.691   3.373  0.00  0.00    +0.159 HD
ENDROOT
BRANCH   1  10
ATOM     10  C   UNL     1      -4.203   2.461   1.201  0.00  0.00    +0.151 C 
BRANCH  10  11
ATOM     11  C   UNL     1      -4.010   2.318  -0.284  0.00  0.00    -0.028 A 
ATOM     12  C   UNL     1      -4.133   1.065  -0.901  0.00  0.00    +0.005 A 
ATOM     13  C   UNL     1      -3.709   3.434  -1.079  0.00  0.00    +0.005 A 
ATOM     14  C   UNL     1      -3.983   0.938  -2.284  0.00  0.00    +0.000 A 
ATOM     15  C   UNL     1      -3.559   3.303  -2.460  0.00  0.00    +0.000 A 
ATOM     16  C   UNL     1      -3.699   2.055  -3.062  0.00  0.00    +0.000 A 
ENDBRANCH  10  11
ENDBRANCH   1  10
TORSDOF 2
ENDMDL
MODEL 3
REMARK VINA RESULT:    -4.426     15.843     16.955
REMARK INTER + INTRA:          -5.068
REMARK INTER:                  -4.959
REMARK INTRA:                  -0.109
REMARK UNBOUND:                -0.125
REMARK  Name = 1550473
REMARK  2 active torsions:
REMARK  status: ('A' for Active; 'I' for Inactive)
REMARK    1  A    between atoms: N_1  and  C_4
REMARK    2  A    between atoms: C_4  and  C_5
REMARK                            x       y       z     vdW  Elec       q    Type
REMARK                         _______ _______ _______ _____ _____    ______ ____
ROOT
ATOM      1  N   UNL     1       5.354  -9.124  12.941  0.00  0.00    -0.354 N 
ATOM      2  N   UNL     1       6.860 -10.453  11.788  0.00  0.00    -0.372 N 
ATOM      3  N   UNL     1       5.242  -9.331  10.609  0.00  0.00    -0.372 N 
ATOM      4  C   UNL     1       5.807  -9.627  11.785  0.00  0.00    +0.166 C 
ATOM      5  H   UNL     1       5.807  -9.410  13.801  0.00  0.00    +0.163 HD
ATOM      6  H   UNL     1       7.226 -10.845  10.931  0.00  0.00    +0.159 HD
ATOM      7  H   UNL     1       7.339 -10.702  12.644  0.00  0.00    +0.159 HD
ATOM      8  H   UNL     1       4.441  -8.718  10.539  0.00  0.00    +0.159 HD
ATOM      9  H   UNL     1       5.587  -9.723   9.742  0.00  0.00    +0.159 HD
ENDROOT
BRANCH   1  10
ATOM     10  C   UNL     1       4.248  -8.173  13.042  0.00  0.00    +0.151 C 
BRANCH  10  11
ATOM     11  C   UNL     1       3.423  -8.506  14.254  0.00  0.00    -0.028 A 
ATOM     12  C   UNL     1       2.059  -8.804  14.127  0.00  0.00    +0.005 A 
ATOM     13  C   UNL     1       4.001  -8.531  15.532  0.00  0.00    +0.005 A 
ATOM     14  C   UNL     1       1.299  -9.143  15.249  0.00  0.00    +0.000 A 
ATOM     15  C   UNL     1       3.239  -8.868  16.650  0.00  0.00    +0.000 A 
ATOM     16  C   UNL     1       1.888  -9.177  16.508  0.00  0.00    +0.000 A 
ENDBRANCH  10  11
ENDBRANCH   1  10
TORSDOF 2
ENDMDL
MODEL 4
REMARK VINA RESULT:    -4.353     23.382     23.760
REMARK INTER + INTRA:          -4.987
REMARK INTER:                  -4.862
REMARK INTRA:                  -0.124
REMARK UNBOUND:                -0.125
REMARK  Name = 1550473
REMARK  2 active torsions:
REMARK  status: ('A' for Active; 'I' for Inactive)
REMARK    1  A    between atoms: N_1  and  C_4
REMARK    2  A    between atoms: C_4  and  C_5
REMARK                            x       y       z     vdW  Elec       q    Type
REMARK                         _______ _______ _______ _____ _____    ______ ____
ROOT
ATOM      1  N   UNL     1      -5.627   0.184   0.775  0.00  0.00    -0.354 N 
ATOM      2  N   UNL     1      -6.717  -1.070  -0.838  0.00  0.00    -0.372 N 
ATOM      3  N   UNL     1      -5.284   0.593  -1.506  0.00  0.00    -0.372 N 
ATOM      4  C   UNL     1      -5.868  -0.087  -0.514  0.00  0.00    +0.166 C 
ATOM      5  H   UNL     1      -6.124  -0.348   1.480  0.00  0.00    +0.163 HD
ATOM      6  H   UNL     1      -6.916  -1.300  -1.803  0.00  0.00    +0.159 HD
ATOM      7  H   UNL     1      -7.177  -1.631  -0.132  0.00  0.00    +0.159 HD
ATOM      8  H   UNL     1      -4.638   1.351  -1.329  0.00  0.00    +0.159 HD
ATOM      9  H   UNL     1      -5.479   0.386  -2.478  0.00  0.00    +0.159 HD
ENDROOT
BRANCH   1  10
ATOM     10  C   UNL     1      -4.679   1.198   1.235  0.00  0.00    +0.151 C 
BRANCH  10  11
ATOM     11  C   UNL     1      -3.935   0.668   2.430  0.00  0.00    -0.028 A 
ATOM     12  C   UNL     1      -2.612   1.063   2.676  0.00  0.00    +0.005 A 
ATOM     13  C   UNL     1      -4.549  -0.224   3.322  0.00  0.00    +0.005 A 
ATOM     14  C   UNL     1      -1.930   0.595   3.802  0.00  0.00    +0.000 A 
ATOM     15  C   UNL     1      -3.865  -0.689   4.445  0.00  0.00    +0.000 A 
ATOM     16  C   UNL     1      -2.556  -0.278   4.686  0.00  0.00    +0.000 A 
ENDBRANCH  10  11
ENDBRANCH   1  10
TORSDOF 2
ENDMDL
MODEL 5
REMARK VINA RESULT:    -4.307     19.818     20.372
REMARK INTER + INTRA:          -4.935
REMARK INTER:                  -4.788
REMARK INTRA:                  -0.147
REMARK UNBOUND:                -0.125
REMARK  Name = 1550473
REMARK  2 active torsions:
REMARK  status: ('A' for Active; 'I' for Inactive)
REMARK    1  A    between atoms: N_1  and  C_4
REMARK    2  A    between atoms: C_4  and  C_5
REMARK                            x       y       z     vdW  Elec       q    Type
REMARK                         _______ _______ _______ _____ _____    ______ ____
ROOT
ATOM      1  N   UNL     1      -3.929   3.817   5.661  0.00  0.00    -0.354 N 
ATOM      2  N   UNL     1      -2.967   5.640   6.717  0.00  0.00    -0.372 N 
ATOM      3  N   UNL     1      -3.775   3.915   7.997  0.00  0.00    -0.372 N 
ATOM      4  C   UNL     1      -3.564   4.444   6.787  0.00  0.00    +0.166 C 
ATOM      5  H   UNL     1      -3.769   4.284   4.776  0.00  0.00    +0.163 HD
ATOM      6  H   UNL     1      -2.678   6.135   7.550  0.00  0.00    +0.159 HD
ATOM      7  H   UNL     1      -2.767   6.084   5.829  0.00  0.00    +0.159 HD
ATOM      8  H   UNL     1      -4.226   3.018   8.119  0.00  0.00    +0.159 HD
ATOM      9  H   UNL     1      -3.503   4.401   8.843  0.00  0.00    +0.159 HD
ENDROOT
BRANCH   1  10
ATOM     10  C   UNL     1      -4.537   2.488   5.625  0.00  0.00    +0.151 C 
BRANCH  10  11
ATOM     11  C   UNL     1      -3.597   1.536   4.939  0.00  0.00    -0.028 A 
ATOM     12  C   UNL     1      -3.366   0.258   5.469  0.00  0.00    +0.005 A 
ATOM     13  C   UNL     1      -2.939   1.904   3.756  0.00  0.00    +0.005 A 
ATOM     14  C   UNL     1      -2.516  -0.638   4.816  0.00  0.00    +0.000 A 
ATOM     15  C   UNL     1      -2.090   1.007   3.107  0.00  0.00    +0.000 A 
ATOM     16  C   UNL     1      -1.881  -0.265   3.636  0.00  0.00    +0.000 A 
ENDBRANCH  10  11
ENDBRANCH   1  10
TORSDOF 2
ENDMDL
MODEL 6
REMARK VINA RESULT:    -4.268     23.292     23.704
REMARK INTER + INTRA:          -4.892
REMARK INTER:                  -4.779
REMARK INTRA:                  -0.112
REMARK UNBOUND:                -0.125
REMARK  Name = 1550473
REMARK  2 active torsions:
REMARK  status: ('A' for Active; 'I' for Inactive)
REMARK    1  A    between atoms: N_1  and  C_4
REMARK    2  A    between atoms: C_4  and  C_5
REMARK                            x       y       z     vdW  Elec       q    Type
REMARK                         _______ _______ _______ _____ _____    ______ ____
ROOT
ATOM      1  N   UNL     1      -5.622   0.064   0.942  0.00  0.00    -0.354 N 
ATOM      2  N   UNL     1      -6.537  -1.017  -0.890  0.00  0.00    -0.372 N 
ATOM      3  N   UNL     1      -5.516   1.015  -1.197  0.00  0.00    -0.372 N 
ATOM      4  C   UNL     1      -5.885   0.030  -0.371  0.00  0.00    +0.166 C 
ATOM      5  H   UNL     1      -5.955  -0.700   1.520  0.00  0.00    +0.163 HD
ATOM      6  H   UNL     1      -6.746  -1.072  -1.878  0.00  0.00    +0.159 HD
ATOM      7  H   UNL     1      -6.828  -1.801  -0.319  0.00  0.00    +0.159 HD
ATOM      8  H   UNL     1      -5.027   1.836  -0.866  0.00  0.00    +0.159 HD
ATOM      9  H   UNL     1      -5.727   0.984  -2.186  0.00  0.00    +0.159 HD
ENDROOT
BRANCH   1  10
ATOM     10  C   UNL     1      -4.871   1.132   1.599  0.00  0.00    +0.151 C 
BRANCH  10  11
ATOM     11  C   UNL     1      -4.009   0.536   2.677  0.00  0.00    -0.028 A 
ATOM     12  C   UNL     1      -4.557  -0.344   3.621  0.00  0.00    +0.005 A 
ATOM     13  C   UNL     1      -2.642   0.843   2.756  0.00  0.00    +0.005 A 
ATOM     14  C   UNL     1      -3.750  -0.922   4.605  0.00  0.00    +0.000 A 
ATOM     15  C   UNL     1      -1.840   0.265   3.740  0.00  0.00    +0.000 A 
ATOM     16  C   UNL     1      -2.394  -0.619   4.663  0.00  0.00    +0.000 A 
ENDBRANCH  10  11
ENDBRANCH   1  10
TORSDOF 2
ENDMDL
MODEL 7
REMARK VINA RESULT:    -4.253     21.453     21.945
REMARK INTER + INTRA:          -4.875
REMARK INTER:                  -4.741
REMARK INTRA:                  -0.134
REMARK UNBOUND:                -0.125
REMARK  Name = 1550473
REMARK  2 active torsions:
REMARK  status: ('A' for Active; 'I' for Inactive)
REMARK    1  A    between atoms: N_1  and  C_4
REMARK    2  A    between atoms: C_4  and  C_5
REMARK                            x       y       z     vdW  Elec       q    Type
REMARK                         _______ _______ _______ _____ _____    ______ ____
ROOT
ATOM      1  N   UNL     1      -3.797  -2.156   4.887  0.00  0.00    -0.354 N 
ATOM      2  N   UNL     1      -5.198  -3.948   5.323  0.00  0.00    -0.372 N 
ATOM      3  N   UNL     1      -4.645  -2.529   7.040  0.00  0.00    -0.372 N 
ATOM      4  C   UNL     1      -4.537  -2.865   5.750  0.00  0.00    +0.166 C 
ATOM      5  H   UNL     1      -3.731  -2.480   3.929  0.00  0.00    +0.163 HD
ATOM      6  H   UNL     1      -5.767  -4.500   5.951  0.00  0.00    +0.159 HD
ATOM      7  H   UNL     1      -5.168  -4.243   4.355  0.00  0.00    +0.159 HD
ATOM      8  H   UNL     1      -4.166  -1.726   7.426  0.00  0.00    +0.159 HD
ATOM      9  H   UNL     1      -5.200  -3.076   7.685  0.00  0.00    +0.159 HD
ENDROOT
BRANCH   1  10
ATOM     10  C   UNL     1      -3.081  -0.930   5.238  0.00  0.00    +0.151 C 
BRANCH  10  11
ATOM     11  C   UNL     1      -3.173   0.037   4.090  0.00  0.00    -0.028 A 
ATOM     12  C   UNL     1      -2.174   1.002   3.892  0.00  0.00    +0.005 A 
ATOM     13  C   UNL     1      -4.252  -0.009   3.195  0.00  0.00    +0.005 A 
ATOM     14  C   UNL     1      -2.243   1.882   2.808  0.00  0.00    +0.000 A 
ATOM     15  C   UNL     1      -4.318   0.871   2.115  0.00  0.00    +0.000 A 
ATOM     16  C   UNL     1      -3.312   1.815   1.921  0.00  0.00    +0.000 A 
ENDBRANCH  10  11
ENDBRANCH   1  10
TORSDOF 2
ENDMDL
MODEL 8
REMARK VINA RESULT:    -4.127     21.764     22.242
REMARK INTER + INTRA:          -4.734
REMARK INTER:                  -4.644
REMARK INTRA:                  -0.090
REMARK UNBOUND:                -0.125
REMARK  Name = 1550473
REMARK  2 active torsions:
REMARK  status: ('A' for Active; 'I' for Inactive)
REMARK    1  A    between atoms: N_1  and  C_4
REMARK    2  A    between atoms: C_4  and  C_5
REMARK                            x       y       z     vdW  Elec       q    Type
REMARK                         _______ _______ _______ _____ _____    ______ ____
ROOT
ATOM      1  N   UNL     1      -3.482   2.518   1.167  0.00  0.00    -0.354 N 
ATOM      2  N   UNL     1      -4.394   2.916  -0.924  0.00  0.00    -0.372 N 
ATOM      3  N   UNL     1      -2.707   4.278  -0.173  0.00  0.00    -0.372 N 
ATOM      4  C   UNL     1      -3.520   3.237   0.037  0.00  0.00    +0.166 C 
ATOM      5  H   UNL     1      -4.145   1.759   1.277  0.00  0.00    +0.163 HD
ATOM      6  H   UNL     1      -4.444   3.439  -1.789  0.00  0.00    +0.159 HD
ATOM      7  H   UNL     1      -5.025   2.129  -0.830  0.00  0.00    +0.159 HD
ATOM      8  H   UNL     1      -2.029   4.575   0.516  0.00  0.00    +0.159 HD
ATOM      9  H   UNL     1      -2.750   4.820  -1.027  0.00  0.00    +0.159 HD
ENDROOT
BRANCH   1  10
ATOM     10  C   UNL     1      -2.531   2.751   2.252  0.00  0.00    +0.151 C 
BRANCH  10  11
ATOM     11  C   UNL     1      -2.745   1.717   3.323  0.00  0.00    -0.028 A 
ATOM     12  C   UNL     1      -2.036   0.507   3.296  0.00  0.00    +0.005 A 
ATOM     13  C   UNL     1      -3.651   1.943   4.371  0.00  0.00    +0.005 A 
ATOM     14  C   UNL     1      -2.213  -0.442   4.307  0.00  0.00    +0.000 A 
ATOM     15  C   UNL     1      -3.825   0.994   5.377  0.00  0.00    +0.000 A 
ATOM     16  C   UNL     1      -3.104  -0.197   5.346  0.00  0.00    +0.000 A 
ENDBRANCH  10  11
ENDBRANCH   1  10
TORSDOF 2
ENDMDL
MODEL 9
REMARK VINA RESULT:    -3.986     23.959     24.333
REMARK INTER + INTRA:          -4.577
REMARK INTER:                  -4.483
REMARK INTRA:                  -0.094
REMARK UNBOUND:                -0.125
REMARK  Name = 1550473
REMARK  2 active torsions:
REMARK  status: ('A' for Active; 'I' for Inactive)
REMARK    1  A    between atoms: N_1  and  C_4
REMARK    2  A    between atoms: C_4  and  C_5
REMARK                            x       y       z     vdW  Elec       q    Type
REMARK                         _______ _______ _______ _____ _____    ______ ____
ROOT
ATOM      1  N   UNL     1      -3.886   1.326  -1.021  0.00  0.00    -0.354 N 
ATOM      2  N   UNL     1      -3.511   0.884  -3.264  0.00  0.00    -0.372 N 
ATOM      3  N   UNL     1      -5.384   2.067  -2.665  0.00  0.00    -0.372 N 
ATOM      4  C   UNL     1      -4.265   1.430  -2.302  0.00  0.00    +0.166 C 
ATOM      5  H   UNL     1      -3.044   0.804  -0.810  0.00  0.00    +0.163 HD
ATOM      6  H   UNL     1      -3.770   0.949  -4.239  0.00  0.00    +0.159 HD
ATOM      7  H   UNL     1      -2.645   0.403  -3.053  0.00  0.00    +0.159 HD
ATOM      8  H   UNL     1      -6.000   2.495  -1.986  0.00  0.00    +0.159 HD
ATOM      9  H   UNL     1      -5.666   2.133  -3.635  0.00  0.00    +0.159 HD
ENDROOT
BRANCH   1  10
ATOM     10  C   UNL     1      -4.608   1.930   0.097  0.00  0.00    +0.151 C 
BRANCH  10  11
ATOM     11  C   UNL     1      -4.154   1.289   1.379  0.00  0.00    -0.028 A 
ATOM     12  C   UNL     1      -2.901   1.601   1.926  0.00  0.00    +0.005 A 
ATOM     13  C   UNL     1      -4.974   0.373   2.055  0.00  0.00    +0.005 A 
ATOM     14  C   UNL     1      -2.491   1.029   3.133  0.00  0.00    +0.000 A 
ATOM     15  C   UNL     1      -4.561  -0.197   3.259  0.00  0.00    +0.000 A 
ATOM     16  C   UNL     1      -3.320   0.133   3.799  0.00  0.00    +0.000 A 
ENDBRANCH  10  11
ENDBRANCH   1  10
TORSDOF 2
ENDMDL
