MODEL 1
REMARK VINA RESULT:    -5.733      0.000      0.000
REMARK INTER + INTRA:          -6.495
REMARK INTER:                  -6.403
REMARK INTRA:                  -0.092
REMARK UNBOUND:                -0.092
REMARK  Name = 1550473
REMARK  2 active torsions:
REMARK  status: ('A' for Active; 'I' for Inactive)
REMARK    1  A    between atoms: N_1  and  C_4
REMARK    2  A    between atoms: C_4  and  C_5
REMARK                            x       y       z     vdW  Elec       q    Type
REMARK                         _______ _______ _______ _____ _____    ______ ____
ROOT
ATOM      1  N   UNL     1       0.333  -5.096  -7.215  0.00  0.00    -0.354 N 
ATOM      2  N   UNL     1      -1.505  -5.452  -5.851  0.00  0.00    -0.372 N 
ATOM      3  N   UNL     1       0.480  -6.477  -5.327  0.00  0.00    -0.372 N 
ATOM      4  C   UNL     1      -0.217  -5.674  -6.138  0.00  0.00    +0.166 C 
ATOM      5  H   UNL     1      -0.257  -4.523  -7.807  0.00  0.00    +0.163 HD
ATOM      6  H   UNL     1      -1.947  -5.872  -5.044  0.00  0.00    +0.159 HD
ATOM      7  H   UNL     1      -2.080  -4.842  -6.419  0.00  0.00    +0.159 HD
ATOM      8  H   UNL     1       1.454  -6.689  -5.491  0.00  0.00    +0.159 HD
ATOM      9  H   UNL     1       0.053  -6.915  -4.520  0.00  0.00    +0.159 HD
ENDROOT
BRANCH   1  10
ATOM     10  C   UNL     1       1.740  -5.230  -7.585  0.00  0.00    +0.151 C 
BRANCH  10  11
ATOM     11  C   UNL     1       1.994  -4.445  -8.843  0.00  0.00    -0.028 A 
ATOM     12  C   UNL     1       1.688  -4.992 -10.097  0.00  0.00    +0.005 A 
ATOM     13  C   UNL     1       2.535  -3.151  -8.785  0.00  0.00    +0.005 A 
ATOM     14  C   UNL     1       1.896  -4.251 -11.264  0.00  0.00    +0.000 A 
ATOM     15  C   UNL     1       2.742  -2.415  -9.952  0.00  0.00    +0.000 A 
ATOM     16  C   UNL     1       2.419  -2.965 -11.191  0.00  0.00    +0.000 A 
ENDBRANCH  10  11
ENDBRANCH   1  10
TORSDOF 2
ENDMDL
MODEL 2
REMARK VINA RESULT:    -5.572      1.266      1.780
REMARK INTER + INTRA:          -6.315
REMARK INTER:                  -6.147
REMARK INTRA:                  -0.167
REMARK UNBOUND:                -0.092
REMARK  Name = 1550473
REMARK  2 active torsions:
REMARK  status: ('A' for Active; 'I' for Inactive)
REMARK    1  A    between atoms: N_1  and  C_4
REMARK    2  A    between atoms: C_4  and  C_5
REMARK                            x       y       z     vdW  Elec       q    Type
REMARK                         _______ _______ _______ _____ _____    ______ ____
ROOT
ATOM      1  N   UNL     1       1.541  -5.160  -7.929  0.00  0.00    -0.354 N 
ATOM      2  N   UNL     1      -0.440  -5.657  -6.837  0.00  0.00    -0.372 N 
ATOM      3  N   UNL     1      -0.137  -6.412  -8.983  0.00  0.00    -0.372 N 
ATOM      4  C   UNL     1       0.334  -5.741  -7.926  0.00  0.00    +0.166 C 
ATOM      5  H   UNL     1       1.827  -4.640  -7.107  0.00  0.00    +0.163 HD
ATOM      6  H   UNL     1      -1.354  -6.088  -6.804  0.00  0.00    +0.159 HD
ATOM      7  H   UNL     1      -0.132  -5.176  -6.001  0.00  0.00    +0.159 HD
ATOM      8  H   UNL     1       0.396  -6.506  -9.837  0.00  0.00    +0.159 HD
ATOM      9  H   UNL     1      -1.054  -6.840  -8.973  0.00  0.00    +0.159 HD
ENDROOT
BRANCH   1  10
ATOM     10  C   UNL     1       2.483  -5.237  -9.044  0.00  0.00    +0.151 C 
BRANCH  10  11
ATOM     11  C   UNL     1       2.492  -3.922  -9.773  0.00  0.00    -0.028 A 
ATOM     12  C   UNL     1       2.383  -3.881 -11.170  0.00  0.00    +0.005 A 
ATOM     13  C   UNL     1       2.603  -2.712  -9.070  0.00  0.00    +0.005 A 
ATOM     14  C   UNL     1       2.361  -2.658 -11.845  0.00  0.00    +0.000 A 
ATOM     15  C   UNL     1       2.581  -1.493  -9.747  0.00  0.00    +0.000 A 
ATOM     16  C   UNL     1       2.458  -1.466 -11.134  0.00  0.00    +0.000 A 
ENDBRANCH  10  11
ENDBRANCH   1  10
TORSDOF 2
ENDMDL
MODEL 3
REMARK VINA RESULT:    -5.414     13.435     15.291
REMARK INTER + INTRA:          -6.139
REMARK INTER:                  -6.008
REMARK INTRA:                  -0.131
REMARK UNBOUND:                -0.092
REMARK  Name = 1550473
REMARK  2 active torsions:
REMARK  status: ('A' for Active; 'I' for Inactive)
REMARK    1  A    between atoms: N_1  and  C_4
REMARK    2  A    between atoms: C_4  and  C_5
REMARK                            x       y       z     vdW  Elec       q    Type
REMARK                         _______ _______ _______ _____ _____    ______ ____
ROOT
ATOM      1  N   UNL     1       1.386 -19.496  -1.273  0.00  0.00    -0.354 N 
ATOM      2  N   UNL     1      -0.168 -21.213  -1.223  0.00  0.00    -0.372 N 
ATOM      3  N   UNL     1       1.353 -21.044   0.486  0.00  0.00    -0.372 N 
ATOM      4  C   UNL     1       0.869 -20.574  -0.668  0.00  0.00    +0.166 C 
ATOM      5  H   UNL     1       0.993 -19.208  -2.162  0.00  0.00    +0.163 HD
ATOM      6  H   UNL     1      -0.581 -22.027  -0.788  0.00  0.00    +0.159 HD
ATOM      7  H   UNL     1      -0.588 -20.896  -2.088  0.00  0.00    +0.159 HD
ATOM      8  H   UNL     1       2.138 -20.610   0.954  0.00  0.00    +0.159 HD
ATOM      9  H   UNL     1       0.961 -21.864   0.931  0.00  0.00    +0.159 HD
ENDROOT
BRANCH   1  10
ATOM     10  C   UNL     1       2.480 -18.697  -0.725  0.00  0.00    +0.151 C 
BRANCH  10  11
ATOM     11  C   UNL     1       2.338 -17.278  -1.201  0.00  0.00    -0.028 A 
ATOM     12  C   UNL     1       1.204 -16.879  -1.924  0.00  0.00    +0.005 A 
ATOM     13  C   UNL     1       3.332 -16.325  -0.928  0.00  0.00    +0.005 A 
ATOM     14  C   UNL     1       1.058 -15.554  -2.341  0.00  0.00    +0.000 A 
ATOM     15  C   UNL     1       3.183 -15.003  -1.347  0.00  0.00    +0.000 A 
ATOM     16  C   UNL     1       2.045 -14.617  -2.051  0.00  0.00    +0.000 A 
ENDBRANCH  10  11
ENDBRANCH   1  10
TORSDOF 2
ENDMDL
MODEL 4
REMARK VINA RESULT:    -5.307      1.562      2.528
REMARK INTER + INTRA:          -6.019
REMARK INTER:                  -5.880
REMARK INTRA:                  -0.139
REMARK UNBOUND:                -0.092
REMARK  Name = 1550473
REMARK  2 active torsions:
REMARK  status: ('A' for Active; 'I' for Inactive)
REMARK    1  A    between atoms: N_1  and  C_4
REMARK    2  A    between atoms: C_4  and  C_5
REMARK                            x       y       z     vdW  Elec       q    Type
REMARK                         _______ _______ _______ _____ _____    ______ ____
ROOT
ATOM      1  N   UNL     1       1.508  -5.190  -7.480  0.00  0.00    -0.354 N 
ATOM      2  N   UNL     1      -0.610  -5.676  -6.678  0.00  0.00    -0.372 N 
ATOM      3  N   UNL     1      -0.109  -6.174  -8.861  0.00  0.00    -0.372 N 
ATOM      4  C   UNL     1       0.276  -5.678  -7.681  0.00  0.00    +0.166 C 
ATOM      5  H   UNL     1       1.729  -4.800  -6.571  0.00  0.00    +0.163 HD
ATOM      6  H   UNL     1      -1.545  -6.041  -6.799  0.00  0.00    +0.159 HD
ATOM      7  H   UNL     1      -0.372  -5.328  -5.758  0.00  0.00    +0.159 HD
ATOM      8  H   UNL     1       0.510  -6.199  -9.660  0.00  0.00    +0.159 HD
ATOM      9  H   UNL     1      -1.045  -6.533  -9.005  0.00  0.00    +0.159 HD
ENDROOT
BRANCH   1  10
ATOM     10  C   UNL     1       2.564  -5.194  -8.491  0.00  0.00    +0.151 C 
BRANCH  10  11
ATOM     11  C   UNL     1       3.095  -3.797  -8.653  0.00  0.00    -0.028 A 
ATOM     12  C   UNL     1       4.238  -3.384  -7.953  0.00  0.00    +0.005 A 
ATOM     13  C   UNL     1       2.463  -2.882  -9.509  0.00  0.00    +0.005 A 
ATOM     14  C   UNL     1       4.749  -2.095  -8.126  0.00  0.00    +0.000 A 
ATOM     15  C   UNL     1       2.976  -1.596  -9.678  0.00  0.00    +0.000 A 
ATOM     16  C   UNL     1       4.120  -1.204  -8.988  0.00  0.00    +0.000 A 
ENDBRANCH  10  11
ENDBRANCH   1  10
TORSDOF 2
ENDMDL
MODEL 5
REMARK VINA RESULT:    -5.103     19.889     22.160
REMARK INTER + INTRA:          -5.791
REMARK INTER:                  -5.712
REMARK INTRA:                  -0.079
REMARK UNBOUND:                -0.092
REMARK  Name = 1550473
REMARK  2 active torsions:
REMARK  status: ('A' for Active; 'I' for Inactive)
REMARK    1  A    between atoms: N_1  and  C_4
REMARK    2  A    between atoms: C_4  and  C_5
REMARK                            x       y       z     vdW  Elec       q    Type
REMARK                         _______ _______ _______ _____ _____    ______ ____
ROOT
ATOM      1  N   UNL     1       6.475 -10.675  10.769  0.00  0.00    -0.354 N 
ATOM      2  N   UNL     1       5.123 -10.438   8.903  0.00  0.00    -0.372 N 
ATOM      3  N   UNL     1       4.673 -12.125  10.391  0.00  0.00    -0.372 N 
ATOM      4  C   UNL     1       5.431 -11.083  10.034  0.00  0.00    +0.166 C 
ATOM      5  H   UNL     1       7.028  -9.897  10.428  0.00  0.00    +0.163 HD
ATOM      6  H   UNL     1       4.339 -10.721   8.330  0.00  0.00    +0.159 HD
ATOM      7  H   UNL     1       5.650  -9.632   8.589  0.00  0.00    +0.159 HD
ATOM      8  H   UNL     1       4.857 -12.659  11.231  0.00  0.00    +0.159 HD
ATOM      9  H   UNL     1       3.892 -12.431   9.825  0.00  0.00    +0.159 HD
ENDROOT
BRANCH   1  10
ATOM     10  C   UNL     1       6.862 -11.275  12.044  0.00  0.00    +0.151 C 
BRANCH  10  11
ATOM     11  C   UNL     1       8.142 -12.042  11.857  0.00  0.00    -0.028 A 
ATOM     12  C   UNL     1       8.869 -12.496  12.968  0.00  0.00    +0.005 A 
ATOM     13  C   UNL     1       8.630 -12.324  10.572  0.00  0.00    +0.005 A 
ATOM     14  C   UNL     1      10.042 -13.235  12.794  0.00  0.00    +0.000 A 
ATOM     15  C   UNL     1       9.802 -13.061  10.403  0.00  0.00    +0.000 A 
ATOM     16  C   UNL     1      10.506 -13.518  11.514  0.00  0.00    +0.000 A 
ENDBRANCH  10  11
ENDBRANCH   1  10
TORSDOF 2
ENDMDL
MODEL 6
REMARK VINA RESULT:    -5.068     15.432     16.930
REMARK INTER + INTRA:          -5.752
REMARK INTER:                  -5.584
REMARK INTRA:                  -0.168
REMARK UNBOUND:                -0.092
REMARK  Name = 1550473
REMARK  2 active torsions:
REMARK  status: ('A' for Active; 'I' for Inactive)
REMARK    1  A    between atoms: N_1  and  C_4
REMARK    2  A    between atoms: C_4  and  C_5
REMARK                            x       y       z     vdW  Elec       q    Type
REMARK                         _______ _______ _______ _____ _____    ______ ____
ROOT
ATOM      1  N   UNL     1       1.359 -21.310  -0.687  0.00  0.00    -0.354 N 
ATOM      2  N   UNL     1       0.925 -22.914  -2.300  0.00  0.00    -0.372 N 
ATOM      3  N   UNL     1      -0.808 -21.628  -1.520  0.00  0.00    -0.372 N 
ATOM      4  C   UNL     1       0.492 -21.939  -1.491  0.00  0.00    +0.166 C 
ATOM      5  H   UNL     1       2.326 -21.613  -0.690  0.00  0.00    +0.163 HD
ATOM      6  H   UNL     1       0.295 -23.405  -2.920  0.00  0.00    +0.159 HD
ATOM      7  H   UNL     1       1.900 -23.184  -2.334  0.00  0.00    +0.159 HD
ATOM      8  H   UNL     1      -1.199 -20.906  -0.931  0.00  0.00    +0.159 HD
ATOM      9  H   UNL     1      -1.456 -22.116  -2.126  0.00  0.00    +0.159 HD
ENDROOT
BRANCH   1  10
ATOM     10  C   UNL     1       1.000 -20.199   0.192  0.00  0.00    +0.151 C 
BRANCH  10  11
ATOM     11  C   UNL     1       1.651 -18.941  -0.315  0.00  0.00    -0.028 A 
ATOM     12  C   UNL     1       1.011 -18.146  -1.277  0.00  0.00    +0.005 A 
ATOM     13  C   UNL     1       2.905 -18.536   0.168  0.00  0.00    +0.005 A 
ATOM     14  C   UNL     1       1.602 -16.963  -1.726  0.00  0.00    +0.000 A 
ATOM     15  C   UNL     1       3.492 -17.354  -0.283  0.00  0.00    +0.000 A 
ATOM     16  C   UNL     1       2.839 -16.566  -1.228  0.00  0.00    +0.000 A 
ENDBRANCH  10  11
ENDBRANCH   1  10
TORSDOF 2
ENDMDL
MODEL 7
REMARK VINA RESULT:    -4.966     20.673     21.737
REMARK INTER + INTRA:          -5.638
REMARK INTER:                  -5.499
REMARK INTRA:                  -0.139
REMARK UNBOUND:                -0.092
REMARK  Name = 1550473
REMARK  2 active torsions:
REMARK  status: ('A' for Active; 'I' for Inactive)
REMARK    1  A    between atoms: N_1  and  C_4
REMARK    2  A    between atoms: C_4  and  C_5
REMARK                            x       y       z     vdW  Elec       q    Type
REMARK                         _______ _______ _______ _____ _____    ______ ____
ROOT
ATOM      1  N   UNL     1       5.477 -10.089  10.678  0.00  0.00    -0.354 N 
ATOM      2  N   UNL     1       5.367  -7.986  11.642  0.00  0.00    -0.372 N 
ATOM      3  N   UNL     1       5.037  -9.831  12.966  0.00  0.00    -0.372 N 
ATOM      4  C   UNL     1       5.293  -9.317  11.758  0.00  0.00    +0.166 C 
ATOM      5  H   UNL     1       5.637  -9.637   9.785  0.00  0.00    +0.163 HD
ATOM      6  H   UNL     1       5.236  -7.378  12.440  0.00  0.00    +0.159 HD
ATOM      7  H   UNL     1       5.573  -7.538  10.758  0.00  0.00    +0.159 HD
ATOM      8  H   UNL     1       4.963 -10.828  13.119  0.00  0.00    +0.159 HD
ATOM      9  H   UNL     1       4.892  -9.239  13.774  0.00  0.00    +0.159 HD
ENDROOT
BRANCH   1  10
ATOM     10  C   UNL     1       5.471 -11.550  10.707  0.00  0.00    +0.151 C 
BRANCH  10  11
ATOM     11  C   UNL     1       6.886 -12.045  10.821  0.00  0.00    -0.028 A 
ATOM     12  C   UNL     1       7.457 -12.287  12.079  0.00  0.00    +0.005 A 
ATOM     13  C   UNL     1       7.660 -12.279   9.674  0.00  0.00    +0.005 A 
ATOM     14  C   UNL     1       8.761 -12.775  12.184  0.00  0.00    +0.000 A 
ATOM     15  C   UNL     1       8.963 -12.766   9.783  0.00  0.00    +0.000 A 
ATOM     16  C   UNL     1       9.512 -13.016  11.039  0.00  0.00    +0.000 A 
ENDBRANCH  10  11
ENDBRANCH   1  10
TORSDOF 2
ENDMDL
MODEL 8
REMARK VINA RESULT:    -4.765     11.741     13.706
REMARK INTER + INTRA:          -5.414
REMARK INTER:                  -5.283
REMARK INTRA:                  -0.131
REMARK UNBOUND:                -0.092
REMARK  Name = 1550473
REMARK  2 active torsions:
REMARK  status: ('A' for Active; 'I' for Inactive)
REMARK    1  A    between atoms: N_1  and  C_4
REMARK    2  A    between atoms: C_4  and  C_5
REMARK                            x       y       z     vdW  Elec       q    Type
REMARK                         _______ _______ _______ _____ _____    ______ ____
ROOT
ATOM      1  N   UNL     1      -9.179 -10.258 -10.949  0.00  0.00    -0.354 N 
ATOM      2  N   UNL     1      -7.278 -11.572 -11.102  0.00  0.00    -0.372 N 
ATOM      3  N   UNL     1      -7.049  -9.346 -10.594  0.00  0.00    -0.372 N 
ATOM      4  C   UNL     1      -7.846 -10.381 -10.880  0.00  0.00    +0.166 C 
ATOM      5  H   UNL     1      -9.725 -11.074 -11.201  0.00  0.00    +0.163 HD
ATOM      6  H   UNL     1      -6.275 -11.697 -11.053  0.00  0.00    +0.159 HD
ATOM      7  H   UNL     1      -7.829 -12.396 -11.308  0.00  0.00    +0.159 HD
ATOM      8  H   UNL     1      -7.415  -8.420 -10.422  0.00  0.00    +0.159 HD
ATOM      9  H   UNL     1      -6.043  -9.448 -10.552  0.00  0.00    +0.159 HD
ENDROOT
BRANCH   1  10
ATOM     10  C   UNL     1      -9.901  -9.018 -10.673  0.00  0.00    +0.151 C 
BRANCH  10  11
ATOM     11  C   UNL     1     -11.088  -9.324  -9.802  0.00  0.00    -0.028 A 
ATOM     12  C   UNL     1     -11.714 -10.577  -9.868  0.00  0.00    +0.005 A 
ATOM     13  C   UNL     1     -11.588  -8.367  -8.905  0.00  0.00    +0.005 A 
ATOM     14  C   UNL     1     -12.799 -10.873  -9.038  0.00  0.00    +0.000 A 
ATOM     15  C   UNL     1     -12.671  -8.666  -8.079  0.00  0.00    +0.000 A 
ATOM     16  C   UNL     1     -13.274  -9.920  -8.144  0.00  0.00    +0.000 A 
ENDBRANCH  10  11
ENDBRANCH   1  10
TORSDOF 2
ENDMDL
MODEL 9
REMARK VINA RESULT:    -4.738     20.850     23.513
REMARK INTER + INTRA:          -5.383
REMARK INTER:                  -5.255
REMARK INTRA:                  -0.128
REMARK UNBOUND:                -0.092
REMARK  Name = 1550473
REMARK  2 active torsions:
REMARK  status: ('A' for Active; 'I' for Inactive)
REMARK    1  A    between atoms: N_1  and  C_4
REMARK    2  A    between atoms: C_4  and  C_5
REMARK                            x       y       z     vdW  Elec       q    Type
REMARK                         _______ _______ _______ _____ _____    ______ ____
ROOT
ATOM      1  N   UNL     1       4.982 -10.675  11.653  0.00  0.00    -0.354 N 
ATOM      2  N   UNL     1       5.972  -9.657   9.823  0.00  0.00    -0.372 N 
ATOM      3  N   UNL     1       5.481  -8.385  11.668  0.00  0.00    -0.372 N 
ATOM      4  C   UNL     1       5.471  -9.577  11.062  0.00  0.00    +0.166 C 
ATOM      5  H   UNL     1       4.976 -11.542  11.129  0.00  0.00    +0.163 HD
ATOM      6  H   UNL     1       6.351  -8.847   9.352  0.00  0.00    +0.159 HD
ATOM      7  H   UNL     1       6.007 -10.535   9.318  0.00  0.00    +0.159 HD
ATOM      8  H   UNL     1       5.112  -8.256  12.601  0.00  0.00    +0.159 HD
ATOM      9  H   UNL     1       5.845  -7.559  11.209  0.00  0.00    +0.159 HD
ENDROOT
BRANCH   1  10
ATOM     10  C   UNL     1       4.463 -10.705  13.019  0.00  0.00    +0.151 C 
BRANCH  10  11
ATOM     11  C   UNL     1       5.276 -11.675  13.832  0.00  0.00    -0.028 A 
ATOM     12  C   UNL     1       4.872 -12.033  15.126  0.00  0.00    +0.005 A 
ATOM     13  C   UNL     1       6.449 -12.243  13.311  0.00  0.00    +0.005 A 
ATOM     14  C   UNL     1       5.610 -12.957  15.870  0.00  0.00    +0.000 A 
ATOM     15  C   UNL     1       7.184 -13.164  14.057  0.00  0.00    +0.000 A 
ATOM     16  C   UNL     1       6.763 -13.523  15.335  0.00  0.00    +0.000 A 
ENDBRANCH  10  11
ENDBRANCH   1  10
TORSDOF 2
ENDMDL
