MODEL 1
REMARK VINA RESULT:    -5.347      0.000      0.000
REMARK INTER + INTRA:          -6.065
REMARK INTER:                  -5.972
REMARK INTRA:                  -0.093
REMARK UNBOUND:                -0.093
REMARK  Name = 1550473
REMARK  2 active torsions:
REMARK  status: ('A' for Active; 'I' for Inactive)
REMARK    1  A    between atoms: N_1  and  C_4
REMARK    2  A    between atoms: C_4  and  C_5
REMARK                            x       y       z     vdW  Elec       q    Type
REMARK                         _______ _______ _______ _____ _____    ______ ____
ROOT
ATOM      1  N   UNL     1      -0.821   2.851 -20.527  0.00  0.00    -0.354 N 
ATOM      2  N   UNL     1      -1.336   4.315 -22.246  0.00  0.00    -0.372 N 
ATOM      3  N   UNL     1      -2.756   4.170 -20.450  0.00  0.00    -0.372 N 
ATOM      4  C   UNL     1      -1.637   3.769 -21.062  0.00  0.00    +0.166 C 
ATOM      5  H   UNL     1      -0.003   2.568 -21.055  0.00  0.00    +0.163 HD
ATOM      6  H   UNL     1      -1.931   5.013 -22.673  0.00  0.00    +0.159 HD
ATOM      7  H   UNL     1      -0.494   4.063 -22.751  0.00  0.00    +0.159 HD
ATOM      8  H   UNL     1      -3.042   3.793 -19.556  0.00  0.00    +0.159 HD
ATOM      9  H   UNL     1      -3.370   4.859 -20.866  0.00  0.00    +0.159 HD
ENDROOT
BRANCH   1  10
ATOM     10  C   UNL     1      -1.029   2.235 -19.218  0.00  0.00    +0.151 C 
BRANCH  10  11
ATOM     11  C   UNL     1      -1.793   0.952 -19.394  0.00  0.00    -0.028 A 
ATOM     12  C   UNL     1      -2.563   0.432 -18.344  0.00  0.00    +0.005 A 
ATOM     13  C   UNL     1      -1.757   0.255 -20.612  0.00  0.00    +0.005 A 
ATOM     14  C   UNL     1      -3.297  -0.744 -18.517  0.00  0.00    +0.000 A 
ATOM     15  C   UNL     1      -2.491  -0.919 -20.781  0.00  0.00    +0.000 A 
ATOM     16  C   UNL     1      -3.263  -1.417 -19.734  0.00  0.00    +0.000 A 
ENDBRANCH  10  11
ENDBRANCH   1  10
TORSDOF 2
ENDMDL
MODEL 2
REMARK VINA RESULT:    -5.284     38.143     39.243
REMARK INTER + INTRA:          -5.994
REMARK INTER:                  -5.865
REMARK INTRA:                  -0.129
REMARK UNBOUND:                -0.093
REMARK  Name = 1550473
REMARK  2 active torsions:
REMARK  status: ('A' for Active; 'I' for Inactive)
REMARK    1  A    between atoms: N_1  and  C_4
REMARK    2  A    between atoms: C_4  and  C_5
REMARK                            x       y       z     vdW  Elec       q    Type
REMARK                         _______ _______ _______ _____ _____    ______ ____
ROOT
ATOM      1  N   UNL     1       2.474   6.764  17.297  0.00  0.00    -0.354 N 
ATOM      2  N   UNL     1       0.902   7.139  15.638  0.00  0.00    -0.372 N 
ATOM      3  N   UNL     1       2.958   6.309  15.050  0.00  0.00    -0.372 N 
ATOM      4  C   UNL     1       2.124   6.734  16.004  0.00  0.00    +0.166 C 
ATOM      5  H   UNL     1       1.806   7.126  17.968  0.00  0.00    +0.163 HD
ATOM      6  H   UNL     1       0.608   7.124  14.670  0.00  0.00    +0.159 HD
ATOM      7  H   UNL     1       0.220   7.457  16.316  0.00  0.00    +0.159 HD
ATOM      8  H   UNL     1       3.897   5.996  15.260  0.00  0.00    +0.159 HD
ATOM      9  H   UNL     1       2.687   6.298  14.075  0.00  0.00    +0.159 HD
ENDROOT
BRANCH   1  10
ATOM     10  C   UNL     1       3.761   6.295  17.807  0.00  0.00    +0.151 C 
BRANCH  10  11
ATOM     11  C   UNL     1       3.538   5.556  19.097  0.00  0.00    -0.028 A 
ATOM     12  C   UNL     1       4.477   4.618  19.552  0.00  0.00    +0.005 A 
ATOM     13  C   UNL     1       2.393   5.793  19.873  0.00  0.00    +0.005 A 
ATOM     14  C   UNL     1       4.285   3.954  20.766  0.00  0.00    +0.000 A 
ATOM     15  C   UNL     1       2.205   5.127  21.084  0.00  0.00    +0.000 A 
ATOM     16  C   UNL     1       3.152   4.209  21.531  0.00  0.00    +0.000 A 
ENDBRANCH  10  11
ENDBRANCH   1  10
TORSDOF 2
ENDMDL
MODEL 3
REMARK VINA RESULT:    -5.244     42.146     43.281
REMARK INTER + INTRA:          -5.950
REMARK INTER:                  -5.803
REMARK INTRA:                  -0.147
REMARK UNBOUND:                -0.093
REMARK  Name = 1550473
REMARK  2 active torsions:
REMARK  status: ('A' for Active; 'I' for Inactive)
REMARK    1  A    between atoms: N_1  and  C_4
REMARK    2  A    between atoms: C_4  and  C_5
REMARK                            x       y       z     vdW  Elec       q    Type
REMARK                         _______ _______ _______ _____ _____    ______ ____
ROOT
ATOM      1  N   UNL     1       3.772   3.853  24.181  0.00  0.00    -0.354 N 
ATOM      2  N   UNL     1       4.170   4.890  26.213  0.00  0.00    -0.372 N 
ATOM      3  N   UNL     1       2.001   4.539  25.554  0.00  0.00    -0.372 N 
ATOM      4  C   UNL     1       3.309   4.421  25.302  0.00  0.00    +0.166 C 
ATOM      5  H   UNL     1       4.774   3.821  24.036  0.00  0.00    +0.163 HD
ATOM      6  H   UNL     1       3.851   5.320  27.070  0.00  0.00    +0.159 HD
ATOM      7  H   UNL     1       5.172   4.815  26.087  0.00  0.00    +0.159 HD
ATOM      8  H   UNL     1       1.299   4.211  24.904  0.00  0.00    +0.159 HD
ATOM      9  H   UNL     1       1.661   4.978  26.401  0.00  0.00    +0.159 HD
ENDROOT
BRANCH   1  10
ATOM     10  C   UNL     1       2.918   3.262  23.151  0.00  0.00    +0.151 C 
BRANCH  10  11
ATOM     11  C   UNL     1       3.128   4.000  21.857  0.00  0.00    -0.028 A 
ATOM     12  C   UNL     1       2.174   4.920  21.400  0.00  0.00    +0.005 A 
ATOM     13  C   UNL     1       4.281   3.786  21.087  0.00  0.00    +0.005 A 
ATOM     14  C   UNL     1       2.382   5.628  20.213  0.00  0.00    +0.000 A 
ATOM     15  C   UNL     1       4.485   4.494  19.902  0.00  0.00    +0.000 A 
ATOM     16  C   UNL     1       3.537   5.416  19.467  0.00  0.00    +0.000 A 
ENDBRANCH  10  11
ENDBRANCH   1  10
TORSDOF 2
ENDMDL
MODEL 4
REMARK VINA RESULT:    -5.196     49.350     50.473
REMARK INTER + INTRA:          -5.896
REMARK INTER:                  -5.805
REMARK INTRA:                  -0.091
REMARK UNBOUND:                -0.093
REMARK  Name = 1550473
REMARK  2 active torsions:
REMARK  status: ('A' for Active; 'I' for Inactive)
REMARK    1  A    between atoms: N_1  and  C_4
REMARK    2  A    between atoms: C_4  and  C_5
REMARK                            x       y       z     vdW  Elec       q    Type
REMARK                         _______ _______ _______ _____ _____    ______ ____
ROOT
ATOM      1  N   UNL     1      10.780   3.221  30.091  0.00  0.00    -0.354 N 
ATOM      2  N   UNL     1      12.082   3.900  31.882  0.00  0.00    -0.372 N 
ATOM      3  N   UNL     1      11.174   1.793  31.907  0.00  0.00    -0.372 N 
ATOM      4  C   UNL     1      11.336   2.964  31.283  0.00  0.00    +0.166 C 
ATOM      5  H   UNL     1      10.916   4.140  29.685  0.00  0.00    +0.163 HD
ATOM      6  H   UNL     1      12.517   3.733  32.780  0.00  0.00    +0.159 HD
ATOM      7  H   UNL     1      12.254   4.800  31.452  0.00  0.00    +0.159 HD
ATOM      8  H   UNL     1      10.617   1.047  31.510  0.00  0.00    +0.159 HD
ATOM      9  H   UNL     1      11.591   1.611  32.811  0.00  0.00    +0.159 HD
ENDROOT
BRANCH   1  10
ATOM     10  C   UNL     1       9.994   2.252  29.329  0.00  0.00    +0.151 C 
BRANCH  10  11
ATOM     11  C   UNL     1       9.416   2.932  28.119  0.00  0.00    -0.028 A 
ATOM     12  C   UNL     1       8.140   3.511  28.169  0.00  0.00    +0.005 A 
ATOM     13  C   UNL     1      10.142   3.004  26.920  0.00  0.00    +0.005 A 
ATOM     14  C   UNL     1       7.614   4.169  27.054  0.00  0.00    +0.000 A 
ATOM     15  C   UNL     1       9.613   3.661  25.808  0.00  0.00    +0.000 A 
ATOM     16  C   UNL     1       8.351   4.245  25.877  0.00  0.00    +0.000 A 
ENDBRANCH  10  11
ENDBRANCH   1  10
TORSDOF 2
ENDMDL
MODEL 5
REMARK VINA RESULT:    -5.062     37.612     38.701
REMARK INTER + INTRA:          -5.747
REMARK INTER:                  -5.611
REMARK INTRA:                  -0.135
REMARK UNBOUND:                -0.093
REMARK  Name = 1550473
REMARK  2 active torsions:
REMARK  status: ('A' for Active; 'I' for Inactive)
REMARK    1  A    between atoms: N_1  and  C_4
REMARK    2  A    between atoms: C_4  and  C_5
REMARK                            x       y       z     vdW  Elec       q    Type
REMARK                         _______ _______ _______ _____ _____    ______ ____
ROOT
ATOM      1  N   UNL     1       4.819   5.887  16.372  0.00  0.00    -0.354 N 
ATOM      2  N   UNL     1       4.973   4.996  14.240  0.00  0.00    -0.372 N 
ATOM      3  N   UNL     1       3.324   6.529  14.685  0.00  0.00    -0.372 N 
ATOM      4  C   UNL     1       4.369   5.811  15.112  0.00  0.00    +0.166 C 
ATOM      5  H   UNL     1       5.596   5.294  16.642  0.00  0.00    +0.163 HD
ATOM      6  H   UNL     1       4.657   4.920  13.282  0.00  0.00    +0.159 HD
ATOM      7  H   UNL     1       5.778   4.439  14.500  0.00  0.00    +0.159 HD
ATOM      8  H   UNL     1       2.821   7.158  15.296  0.00  0.00    +0.159 HD
ATOM      9  H   UNL     1       2.987   6.458  13.733  0.00  0.00    +0.159 HD
ENDROOT
BRANCH   1  10
ATOM     10  C   UNL     1       4.266   6.783  17.386  0.00  0.00    +0.151 C 
BRANCH  10  11
ATOM     11  C   UNL     1       3.916   5.983  18.610  0.00  0.00    -0.028 A 
ATOM     12  C   UNL     1       2.781   6.304  19.370  0.00  0.00    +0.005 A 
ATOM     13  C   UNL     1       4.713   4.900  19.013  0.00  0.00    +0.005 A 
ATOM     14  C   UNL     1       2.439   5.543  20.490  0.00  0.00    +0.000 A 
ATOM     15  C   UNL     1       4.368   4.144  20.133  0.00  0.00    +0.000 A 
ATOM     16  C   UNL     1       3.230   4.463  20.870  0.00  0.00    +0.000 A 
ENDBRANCH  10  11
ENDBRANCH   1  10
TORSDOF 2
ENDMDL
MODEL 6
REMARK VINA RESULT:    -4.840     26.787     28.153
REMARK INTER + INTRA:          -5.498
REMARK INTER:                  -5.399
REMARK INTRA:                  -0.099
REMARK UNBOUND:                -0.093
REMARK  Name = 1550473
REMARK  2 active torsions:
REMARK  status: ('A' for Active; 'I' for Inactive)
REMARK    1  A    between atoms: N_1  and  C_4
REMARK    2  A    between atoms: C_4  and  C_5
REMARK                            x       y       z     vdW  Elec       q    Type
REMARK                         _______ _______ _______ _____ _____    ______ ____
ROOT
ATOM      1  N   UNL     1      -7.484  -7.176   7.005  0.00  0.00    -0.354 N 
ATOM      2  N   UNL     1      -9.491  -8.140   7.642  0.00  0.00    -0.372 N 
ATOM      3  N   UNL     1      -9.074  -5.960   8.224  0.00  0.00    -0.372 N 
ATOM      4  C   UNL     1      -8.670  -7.083   7.621  0.00  0.00    +0.166 C 
ATOM      5  H   UNL     1      -7.223  -8.064   6.593  0.00  0.00    +0.163 HD
ATOM      6  H   UNL     1     -10.393  -8.100   8.096  0.00  0.00    +0.159 HD
ATOM      7  H   UNL     1      -9.247  -9.013   7.190  0.00  0.00    +0.159 HD
ATOM      8  H   UNL     1      -8.499  -5.129   8.249  0.00  0.00    +0.159 HD
ATOM      9  H   UNL     1      -9.969  -5.903   8.694  0.00  0.00    +0.159 HD
ENDROOT
BRANCH   1  10
ATOM     10  C   UNL     1      -6.540  -6.067   6.879  0.00  0.00    +0.151 C 
BRANCH  10  11
ATOM     11  C   UNL     1      -5.406  -6.487   5.985  0.00  0.00    -0.028 A 
ATOM     12  C   UNL     1      -4.601  -7.584   6.324  0.00  0.00    +0.005 A 
ATOM     13  C   UNL     1      -5.134  -5.796   4.794  0.00  0.00    +0.005 A 
ATOM     14  C   UNL     1      -3.566  -7.993   5.480  0.00  0.00    +0.000 A 
ATOM     15  C   UNL     1      -4.100  -6.207   3.954  0.00  0.00    +0.000 A 
ATOM     16  C   UNL     1      -3.317  -7.307   4.296  0.00  0.00    +0.000 A 
ENDBRANCH  10  11
ENDBRANCH   1  10
TORSDOF 2
ENDMDL
MODEL 7
REMARK VINA RESULT:    -4.471     35.634     36.767
REMARK INTER + INTRA:          -5.086
REMARK INTER:                  -4.957
REMARK INTRA:                  -0.129
REMARK UNBOUND:                -0.093
REMARK  Name = 1550473
REMARK  2 active torsions:
REMARK  status: ('A' for Active; 'I' for Inactive)
REMARK    1  A    between atoms: N_1  and  C_4
REMARK    2  A    between atoms: C_4  and  C_5
REMARK                            x       y       z     vdW  Elec       q    Type
REMARK                         _______ _______ _______ _____ _____    ______ ____
ROOT
ATOM      1  N   UNL     1       5.900   6.026  14.256  0.00  0.00    -0.354 N 
ATOM      2  N   UNL     1       8.026   6.352  13.398  0.00  0.00    -0.372 N 
ATOM      3  N   UNL     1       7.265   4.207  13.690  0.00  0.00    -0.372 N 
ATOM      4  C   UNL     1       7.050   5.523  13.787  0.00  0.00    +0.166 C 
ATOM      5  H   UNL     1       5.810   7.033  14.333  0.00  0.00    +0.163 HD
ATOM      6  H   UNL     1       8.903   6.002  13.037  0.00  0.00    +0.159 HD
ATOM      7  H   UNL     1       7.917   7.358  13.433  0.00  0.00    +0.159 HD
ATOM      8  H   UNL     1       6.570   3.529  13.972  0.00  0.00    +0.159 HD
ATOM      9  H   UNL     1       8.141   3.837  13.342  0.00  0.00    +0.159 HD
ENDROOT
BRANCH   1  10
ATOM     10  C   UNL     1       4.754   5.211  14.655  0.00  0.00    +0.151 C 
BRANCH  10  11
ATOM     11  C   UNL     1       4.071   5.863  15.826  0.00  0.00    -0.028 A 
ATOM     12  C   UNL     1       4.825   6.425  16.866  0.00  0.00    +0.005 A 
ATOM     13  C   UNL     1       2.671   5.927  15.897  0.00  0.00    +0.005 A 
ATOM     14  C   UNL     1       4.192   7.057  17.939  0.00  0.00    +0.000 A 
ATOM     15  C   UNL     1       2.043   6.558  16.971  0.00  0.00    +0.000 A 
ATOM     16  C   UNL     1       2.803   7.125  17.990  0.00  0.00    +0.000 A 
ENDBRANCH  10  11
ENDBRANCH   1  10
TORSDOF 2
ENDMDL
MODEL 8
REMARK VINA RESULT:    -4.424      3.506      4.971
REMARK INTER + INTRA:          -5.034
REMARK INTER:                  -4.940
REMARK INTRA:                  -0.094
REMARK UNBOUND:                -0.093
REMARK  Name = 1550473
REMARK  2 active torsions:
REMARK  status: ('A' for Active; 'I' for Inactive)
REMARK    1  A    between atoms: N_1  and  C_4
REMARK    2  A    between atoms: C_4  and  C_5
REMARK                            x       y       z     vdW  Elec       q    Type
REMARK                         _______ _______ _______ _____ _____    ______ ____
ROOT
ATOM      1  N   UNL     1      -2.550  -1.001 -20.275  0.00  0.00    -0.354 N 
ATOM      2  N   UNL     1      -1.561   0.430 -18.746  0.00  0.00    -0.372 N 
ATOM      3  N   UNL     1      -3.445  -0.725 -18.128  0.00  0.00    -0.372 N 
ATOM      4  C   UNL     1      -2.528  -0.442 -19.058  0.00  0.00    +0.166 C 
ATOM      5  H   UNL     1      -1.843  -0.722 -20.946  0.00  0.00    +0.163 HD
ATOM      6  H   UNL     1      -1.516   0.865 -17.835  0.00  0.00    +0.159 HD
ATOM      7  H   UNL     1      -0.829   0.672 -19.403  0.00  0.00    +0.159 HD
ATOM      8  H   UNL     1      -4.204  -1.370 -18.302  0.00  0.00    +0.159 HD
ATOM      9  H   UNL     1      -3.424  -0.290 -17.213  0.00  0.00    +0.159 HD
ENDROOT
BRANCH   1  10
ATOM     10  C   UNL     1      -3.528  -2.003 -20.697  0.00  0.00    +0.151 C 
BRANCH  10  11
ATOM     11  C   UNL     1      -2.985  -2.749 -21.885  0.00  0.00    -0.028 A 
ATOM     12  C   UNL     1      -2.250  -3.931 -21.708  0.00  0.00    +0.005 A 
ATOM     13  C   UNL     1      -3.207  -2.283 -23.190  0.00  0.00    +0.005 A 
ATOM     14  C   UNL     1      -1.771  -4.641 -22.812  0.00  0.00    +0.000 A 
ATOM     15  C   UNL     1      -2.727  -2.995 -24.289  0.00  0.00    +0.000 A 
ATOM     16  C   UNL     1      -2.011  -4.174 -24.100  0.00  0.00    +0.000 A 
ENDBRANCH  10  11
ENDBRANCH   1  10
TORSDOF 2
ENDMDL
MODEL 9
REMARK VINA RESULT:    -4.348     25.834     26.799
REMARK INTER + INTRA:          -4.949
REMARK INTER:                  -4.833
REMARK INTRA:                  -0.115
REMARK UNBOUND:                -0.093
REMARK  Name = 1550473
REMARK  2 active torsions:
REMARK  status: ('A' for Active; 'I' for Inactive)
REMARK    1  A    between atoms: N_1  and  C_4
REMARK    2  A    between atoms: C_4  and  C_5
REMARK                            x       y       z     vdW  Elec       q    Type
REMARK                         _______ _______ _______ _____ _____    ______ ____
ROOT
ATOM      1  N   UNL     1      11.858  -8.984   0.811  0.00  0.00    -0.354 N 
ATOM      2  N   UNL     1      11.555  -7.208   2.267  0.00  0.00    -0.372 N 
ATOM      3  N   UNL     1      12.696  -9.060   2.998  0.00  0.00    -0.372 N 
ATOM      4  C   UNL     1      12.040  -8.431   2.018  0.00  0.00    +0.166 C 
ATOM      5  H   UNL     1      11.325  -8.467   0.120  0.00  0.00    +0.163 HD
ATOM      6  H   UNL     1      11.680  -6.764   3.167  0.00  0.00    +0.159 HD
ATOM      7  H   UNL     1      11.063  -6.676   1.560  0.00  0.00    +0.159 HD
ATOM      8  H   UNL     1      13.081  -9.987   2.876  0.00  0.00    +0.159 HD
ATOM      9  H   UNL     1      12.821  -8.637   3.909  0.00  0.00    +0.159 HD
ENDROOT
BRANCH   1  10
ATOM     10  C   UNL     1      12.392 -10.287   0.420  0.00  0.00    +0.151 C 
BRANCH  10  11
ATOM     11  C   UNL     1      11.633 -10.789  -0.777  0.00  0.00    -0.028 A 
ATOM     12  C   UNL     1      10.231 -10.763  -0.795  0.00  0.00    +0.005 A 
ATOM     13  C   UNL     1      12.311 -11.288  -1.900  0.00  0.00    +0.005 A 
ATOM     14  C   UNL     1       9.527 -11.201  -1.919  0.00  0.00    +0.000 A 
ATOM     15  C   UNL     1      11.604 -11.726  -3.020  0.00  0.00    +0.000 A 
ATOM     16  C   UNL     1      10.212 -11.680  -3.030  0.00  0.00    +0.000 A 
ENDBRANCH  10  11
ENDBRANCH   1  10
TORSDOF 2
ENDMDL
