MODEL 1
REMARK VINA RESULT:    -5.677      0.000      0.000
REMARK INTER + INTRA:          -6.441
REMARK INTER:                  -6.341
REMARK INTRA:                  -0.101
REMARK UNBOUND:                -0.101
REMARK  Name = 1550473
REMARK  2 active torsions:
REMARK  status: ('A' for Active; 'I' for Inactive)
REMARK    1  A    between atoms: N_1  and  C_4
REMARK    2  A    between atoms: C_4  and  C_5
REMARK                            x       y       z     vdW  Elec       q    Type
REMARK                         _______ _______ _______ _____ _____    ______ ____
ROOT
ATOM      1  N   UNL     1       4.319 -13.278 -15.055  0.00  0.00    -0.354 N 
ATOM      2  N   UNL     1       6.328 -12.270 -15.611  0.00  0.00    -0.372 N 
ATOM      3  N   UNL     1       5.927 -12.810 -13.417  0.00  0.00    -0.372 N 
ATOM      4  C   UNL     1       5.512 -12.793 -14.688  0.00  0.00    +0.166 C 
ATOM      5  H   UNL     1       4.050 -13.208 -16.030  0.00  0.00    +0.163 HD
ATOM      6  H   UNL     1       7.236 -11.899 -15.364  0.00  0.00    +0.159 HD
ATOM      7  H   UNL     1       6.076 -12.243 -16.591  0.00  0.00    +0.159 HD
ATOM      8  H   UNL     1       5.356 -13.185 -12.672  0.00  0.00    +0.159 HD
ATOM      9  H   UNL     1       6.828 -12.432 -13.148  0.00  0.00    +0.159 HD
ENDROOT
BRANCH   1  10
ATOM     10  C   UNL     1       3.378 -13.917 -14.137  0.00  0.00    +0.151 C 
BRANCH  10  11
ATOM     11  C   UNL     1       2.146 -14.322 -14.898  0.00  0.00    -0.028 A 
ATOM     12  C   UNL     1       1.730 -15.661 -14.920  0.00  0.00    +0.005 A 
ATOM     13  C   UNL     1       1.387 -13.369 -15.595  0.00  0.00    +0.005 A 
ATOM     14  C   UNL     1       0.568 -16.032 -15.603  0.00  0.00    +0.000 A 
ATOM     15  C   UNL     1       0.228 -13.744 -16.276  0.00  0.00    +0.000 A 
ATOM     16  C   UNL     1      -0.182 -15.075 -16.277  0.00  0.00    +0.000 A 
ENDBRANCH  10  11
ENDBRANCH   1  10
TORSDOF 2
ENDMDL
MODEL 2
REMARK VINA RESULT:    -5.572      2.223      3.713
REMARK INTER + INTRA:          -6.324
REMARK INTER:                  -6.195
REMARK INTRA:                  -0.129
REMARK UNBOUND:                -0.101
REMARK  Name = 1550473
REMARK  2 active torsions:
REMARK  status: ('A' for Active; 'I' for Inactive)
REMARK    1  A    between atoms: N_1  and  C_4
REMARK    2  A    between atoms: C_4  and  C_5
REMARK                            x       y       z     vdW  Elec       q    Type
REMARK                         _______ _______ _______ _____ _____    ______ ____
ROOT
ATOM      1  N   UNL     1       6.744 -12.111 -13.025  0.00  0.00    -0.354 N 
ATOM      2  N   UNL     1       7.671 -11.593 -10.966  0.00  0.00    -0.372 N 
ATOM      3  N   UNL     1       8.703 -13.162 -12.285  0.00  0.00    -0.372 N 
ATOM      4  C   UNL     1       7.702 -12.294 -12.106  0.00  0.00    +0.166 C 
ATOM      5  H   UNL     1       5.995 -11.460 -12.816  0.00  0.00    +0.163 HD
ATOM      6  H   UNL     1       8.382 -11.707 -10.256  0.00  0.00    +0.159 HD
ATOM      7  H   UNL     1       6.947 -10.910 -10.780  0.00  0.00    +0.159 HD
ATOM      8  H   UNL     1       8.780 -13.726 -13.120  0.00  0.00    +0.159 HD
ATOM      9  H   UNL     1       9.418 -13.299 -11.581  0.00  0.00    +0.159 HD
ENDROOT
BRANCH   1  10
ATOM     10  C   UNL     1       6.715 -12.784 -14.322  0.00  0.00    +0.151 C 
BRANCH  10  11
ATOM     11  C   UNL     1       5.287 -13.084 -14.688  0.00  0.00    -0.028 A 
ATOM     12  C   UNL     1       4.835 -12.899 -16.002  0.00  0.00    +0.005 A 
ATOM     13  C   UNL     1       4.383 -13.559 -13.725  0.00  0.00    +0.005 A 
ATOM     14  C   UNL     1       3.518 -13.205 -16.350  0.00  0.00    +0.000 A 
ATOM     15  C   UNL     1       3.068 -13.864 -14.076  0.00  0.00    +0.000 A 
ATOM     16  C   UNL     1       2.636 -13.689 -15.388  0.00  0.00    +0.000 A 
ENDBRANCH  10  11
ENDBRANCH   1  10
TORSDOF 2
ENDMDL
MODEL 3
REMARK VINA RESULT:    -5.408      1.579      2.622
REMARK INTER + INTRA:          -6.141
REMARK INTER:                  -5.999
REMARK INTRA:                  -0.142
REMARK UNBOUND:                -0.101
REMARK  Name = 1550473
REMARK  2 active torsions:
REMARK  status: ('A' for Active; 'I' for Inactive)
REMARK    1  A    between atoms: N_1  and  C_4
REMARK    2  A    between atoms: C_4  and  C_5
REMARK                            x       y       z     vdW  Elec       q    Type
REMARK                         _______ _______ _______ _____ _____    ______ ____
ROOT
ATOM      1  N   UNL     1       5.981 -13.088 -13.555  0.00  0.00    -0.354 N 
ATOM      2  N   UNL     1       6.781 -12.431 -11.483  0.00  0.00    -0.372 N 
ATOM      3  N   UNL     1       7.091 -11.042 -13.282  0.00  0.00    -0.372 N 
ATOM      4  C   UNL     1       6.613 -12.189 -12.788  0.00  0.00    +0.166 C 
ATOM      5  H   UNL     1       5.670 -13.952 -13.126  0.00  0.00    +0.163 HD
ATOM      6  H   UNL     1       7.251 -11.770 -10.879  0.00  0.00    +0.159 HD
ATOM      7  H   UNL     1       6.427 -13.275 -11.047  0.00  0.00    +0.159 HD
ATOM      8  H   UNL     1       7.002 -10.803 -14.261  0.00  0.00    +0.159 HD
ATOM      9  H   UNL     1       7.574 -10.373 -12.696  0.00  0.00    +0.159 HD
ENDROOT
BRANCH   1  10
ATOM     10  C   UNL     1       5.700 -12.897 -14.976  0.00  0.00    +0.151 C 
BRANCH  10  11
ATOM     11  C   UNL     1       4.245 -13.178 -15.231  0.00  0.00    -0.028 A 
ATOM     12  C   UNL     1       3.460 -13.809 -14.255  0.00  0.00    +0.005 A 
ATOM     13  C   UNL     1       3.644 -12.811 -16.445  0.00  0.00    +0.005 A 
ATOM     14  C   UNL     1       2.101 -14.043 -14.480  0.00  0.00    +0.000 A 
ATOM     15  C   UNL     1       2.287 -13.047 -16.666  0.00  0.00    +0.000 A 
ATOM     16  C   UNL     1       1.515 -13.661 -15.682  0.00  0.00    +0.000 A 
ENDBRANCH  10  11
ENDBRANCH   1  10
TORSDOF 2
ENDMDL
MODEL 4
REMARK VINA RESULT:    -5.372     22.462     24.218
REMARK INTER + INTRA:          -6.101
REMARK INTER:                  -5.930
REMARK INTRA:                  -0.171
REMARK UNBOUND:                -0.101
REMARK  Name = 1550473
REMARK  2 active torsions:
REMARK  status: ('A' for Active; 'I' for Inactive)
REMARK    1  A    between atoms: N_1  and  C_4
REMARK    2  A    between atoms: C_4  and  C_5
REMARK                            x       y       z     vdW  Elec       q    Type
REMARK                         _______ _______ _______ _____ _____    ______ ____
ROOT
ATOM      1  N   UNL     1     -18.573  -9.326 -28.390  0.00  0.00    -0.354 N 
ATOM      2  N   UNL     1     -18.707  -8.686 -30.612  0.00  0.00    -0.372 N 
ATOM      3  N   UNL     1     -18.317 -10.892 -30.114  0.00  0.00    -0.372 N 
ATOM      4  C   UNL     1     -18.531  -9.641 -29.691  0.00  0.00    +0.166 C 
ATOM      5  H   UNL     1     -18.709  -8.354 -28.134  0.00  0.00    +0.163 HD
ATOM      6  H   UNL     1     -18.684  -8.895 -31.601  0.00  0.00    +0.159 HD
ATOM      7  H   UNL     1     -18.888  -7.724 -30.353  0.00  0.00    +0.159 HD
ATOM      8  H   UNL     1     -18.171 -11.657 -29.470  0.00  0.00    +0.159 HD
ATOM      9  H   UNL     1     -18.279 -11.119 -31.100  0.00  0.00    +0.159 HD
ENDROOT
BRANCH   1  10
ATOM     10  C   UNL     1     -18.447 -10.300 -27.307  0.00  0.00    +0.151 C 
BRANCH  10  11
ATOM     11  C   UNL     1     -17.139 -10.080 -26.598  0.00  0.00    -0.028 A 
ATOM     12  C   UNL     1     -15.998 -10.807 -26.967  0.00  0.00    +0.005 A 
ATOM     13  C   UNL     1     -17.034  -9.141 -25.561  0.00  0.00    +0.005 A 
ATOM     14  C   UNL     1     -14.776 -10.581 -26.329  0.00  0.00    +0.000 A 
ATOM     15  C   UNL     1     -15.812  -8.919 -24.925  0.00  0.00    +0.000 A 
ATOM     16  C   UNL     1     -14.683  -9.638 -25.311  0.00  0.00    +0.000 A 
ENDBRANCH  10  11
ENDBRANCH   1  10
TORSDOF 2
ENDMDL
MODEL 5
REMARK VINA RESULT:    -5.051     22.719     24.434
REMARK INTER + INTRA:          -5.742
REMARK INTER:                  -5.616
REMARK INTRA:                  -0.127
REMARK UNBOUND:                -0.101
REMARK  Name = 1550473
REMARK  2 active torsions:
REMARK  status: ('A' for Active; 'I' for Inactive)
REMARK    1  A    between atoms: N_1  and  C_4
REMARK    2  A    between atoms: C_4  and  C_5
REMARK                            x       y       z     vdW  Elec       q    Type
REMARK                         _______ _______ _______ _____ _____    ______ ____
ROOT
ATOM      1  N   UNL     1     -18.058  -9.104 -27.629  0.00  0.00    -0.354 N 
ATOM      2  N   UNL     1     -19.101 -11.164 -27.806  0.00  0.00    -0.372 N 
ATOM      3  N   UNL     1     -19.208  -9.711 -29.579  0.00  0.00    -0.372 N 
ATOM      4  C   UNL     1     -18.783  -9.978 -28.339  0.00  0.00    +0.166 C 
ATOM      5  H   UNL     1     -17.792  -9.355 -26.684  0.00  0.00    +0.163 HD
ATOM      6  H   UNL     1     -19.644 -11.845 -28.319  0.00  0.00    +0.159 HD
ATOM      7  H   UNL     1     -18.795 -11.430 -26.878  0.00  0.00    +0.159 HD
ATOM      8  H   UNL     1     -19.006  -8.832 -30.036  0.00  0.00    +0.159 HD
ATOM      9  H   UNL     1     -19.762 -10.375 -30.104  0.00  0.00    +0.159 HD
ENDROOT
BRANCH   1  10
ATOM     10  C   UNL     1     -17.612  -7.808 -28.137  0.00  0.00    +0.151 C 
BRANCH  10  11
ATOM     11  C   UNL     1     -16.443  -7.334 -27.319  0.00  0.00    -0.028 A 
ATOM     12  C   UNL     1     -15.839  -6.098 -27.588  0.00  0.00    +0.005 A 
ATOM     13  C   UNL     1     -15.938  -8.115 -26.267  0.00  0.00    +0.005 A 
ATOM     14  C   UNL     1     -14.772  -5.644 -26.809  0.00  0.00    +0.000 A 
ATOM     15  C   UNL     1     -14.872  -7.659 -25.492  0.00  0.00    +0.000 A 
ATOM     16  C   UNL     1     -14.291  -6.423 -25.762  0.00  0.00    +0.000 A 
ENDBRANCH  10  11
ENDBRANCH   1  10
TORSDOF 2
ENDMDL
MODEL 6
REMARK VINA RESULT:    -5.025      0.928      1.970
REMARK INTER + INTRA:          -5.713
REMARK INTER:                  -5.603
REMARK INTRA:                  -0.110
REMARK UNBOUND:                -0.101
REMARK  Name = 1550473
REMARK  2 active torsions:
REMARK  status: ('A' for Active; 'I' for Inactive)
REMARK    1  A    between atoms: N_1  and  C_4
REMARK    2  A    between atoms: C_4  and  C_5
REMARK                            x       y       z     vdW  Elec       q    Type
REMARK                         _______ _______ _______ _____ _____    ______ ____
ROOT
ATOM      1  N   UNL     1       4.712 -13.103 -14.687  0.00  0.00    -0.354 N 
ATOM      2  N   UNL     1       6.483 -12.716 -13.245  0.00  0.00    -0.372 N 
ATOM      3  N   UNL     1       6.865 -12.674 -15.507  0.00  0.00    -0.372 N 
ATOM      4  C   UNL     1       6.010 -12.834 -14.492  0.00  0.00    +0.166 C 
ATOM      5  H   UNL     1       4.122 -13.243 -13.875  0.00  0.00    +0.163 HD
ATOM      6  H   UNL     1       7.456 -12.510 -13.067  0.00  0.00    +0.159 HD
ATOM      7  H   UNL     1       5.881 -12.811 -12.436  0.00  0.00    +0.159 HD
ATOM      8  H   UNL     1       6.573 -12.756 -16.472  0.00  0.00    +0.159 HD
ATOM      9  H   UNL     1       7.846 -12.479 -15.349  0.00  0.00    +0.159 HD
ENDROOT
BRANCH   1  10
ATOM     10  C   UNL     1       4.086 -13.198 -16.005  0.00  0.00    +0.151 C 
BRANCH  10  11
ATOM     11  C   UNL     1       2.765 -13.903 -15.871  0.00  0.00    -0.028 A 
ATOM     12  C   UNL     1       1.593 -13.323 -16.379  0.00  0.00    +0.005 A 
ATOM     13  C   UNL     1       2.678 -15.155 -15.242  0.00  0.00    +0.005 A 
ATOM     14  C   UNL     1       0.370 -13.991 -16.282  0.00  0.00    +0.000 A 
ATOM     15  C   UNL     1       1.455 -15.819 -15.147  0.00  0.00    +0.000 A 
ATOM     16  C   UNL     1       0.302 -15.237 -15.669  0.00  0.00    +0.000 A 
ENDBRANCH  10  11
ENDBRANCH   1  10
TORSDOF 2
ENDMDL
MODEL 7
REMARK VINA RESULT:    -4.959      6.836      9.708
REMARK INTER + INTRA:          -5.640
REMARK INTER:                  -5.514
REMARK INTRA:                  -0.126
REMARK UNBOUND:                -0.101
REMARK  Name = 1550473
REMARK  2 active torsions:
REMARK  status: ('A' for Active; 'I' for Inactive)
REMARK    1  A    between atoms: N_1  and  C_4
REMARK    2  A    between atoms: C_4  and  C_5
REMARK                            x       y       z     vdW  Elec       q    Type
REMARK                         _______ _______ _______ _____ _____    ______ ____
ROOT
ATOM      1  N   UNL     1       9.694 -12.575 -12.639  0.00  0.00    -0.354 N 
ATOM      2  N   UNL     1       8.172 -11.685 -11.137  0.00  0.00    -0.372 N 
ATOM      3  N   UNL     1       7.388 -12.718 -13.029  0.00  0.00    -0.372 N 
ATOM      4  C   UNL     1       8.426 -12.333 -12.280  0.00  0.00    +0.166 C 
ATOM      5  H   UNL     1      10.437 -12.230 -12.042  0.00  0.00    +0.163 HD
ATOM      6  H   UNL     1       7.226 -11.491 -10.838  0.00  0.00    +0.159 HD
ATOM      7  H   UNL     1       8.916 -11.382 -10.520  0.00  0.00    +0.159 HD
ATOM      8  H   UNL     1       7.512 -13.206 -13.906  0.00  0.00    +0.159 HD
ATOM      9  H   UNL     1       6.434 -12.523 -12.753  0.00  0.00    +0.159 HD
ENDROOT
BRANCH   1  10
ATOM     10  C   UNL     1      10.077 -13.320 -13.837  0.00  0.00    +0.151 C 
BRANCH  10  11
ATOM     11  C   UNL     1      11.498 -12.980 -14.193  0.00  0.00    -0.028 A 
ATOM     12  C   UNL     1      12.070 -11.774 -13.764  0.00  0.00    +0.005 A 
ATOM     13  C   UNL     1      12.278 -13.863 -14.955  0.00  0.00    +0.005 A 
ATOM     14  C   UNL     1      13.399 -11.471 -14.070  0.00  0.00    +0.000 A 
ATOM     15  C   UNL     1      13.605 -13.556 -15.259  0.00  0.00    +0.000 A 
ATOM     16  C   UNL     1      14.166 -12.362 -14.814  0.00  0.00    +0.000 A 
ENDBRANCH  10  11
ENDBRANCH   1  10
TORSDOF 2
ENDMDL
MODEL 8
REMARK VINA RESULT:    -4.907      1.269      2.384
REMARK INTER + INTRA:          -5.581
REMARK INTER:                  -5.457
REMARK INTRA:                  -0.124
REMARK UNBOUND:                -0.101
REMARK  Name = 1550473
REMARK  2 active torsions:
REMARK  status: ('A' for Active; 'I' for Inactive)
REMARK    1  A    between atoms: N_1  and  C_4
REMARK    2  A    between atoms: C_4  and  C_5
REMARK                            x       y       z     vdW  Elec       q    Type
REMARK                         _______ _______ _______ _____ _____    ______ ____
ROOT
ATOM      1  N   UNL     1       2.899 -14.421 -15.193  0.00  0.00    -0.354 N 
ATOM      2  N   UNL     1       4.748 -13.031 -15.078  0.00  0.00    -0.372 N 
ATOM      3  N   UNL     1       3.777 -13.749 -13.127  0.00  0.00    -0.372 N 
ATOM      4  C   UNL     1       3.795 -13.743 -14.464  0.00  0.00    +0.166 C 
ATOM      5  H   UNL     1       2.948 -14.351 -16.203  0.00  0.00    +0.163 HD
ATOM      6  H   UNL     1       5.440 -12.512 -14.555  0.00  0.00    +0.159 HD
ATOM      7  H   UNL     1       4.822 -13.000 -16.088  0.00  0.00    +0.159 HD
ATOM      8  H   UNL     1       3.081 -14.262 -12.603  0.00  0.00    +0.159 HD
ATOM      9  H   UNL     1       4.454 -13.227 -12.585  0.00  0.00    +0.159 HD
ENDROOT
BRANCH   1  10
ATOM     10  C   UNL     1       1.854 -15.270 -14.622  0.00  0.00    +0.151 C 
BRANCH  10  11
ATOM     11  C   UNL     1       0.689 -15.321 -15.571  0.00  0.00    -0.028 A 
ATOM     12  C   UNL     1       0.268 -14.164 -16.244  0.00  0.00    +0.005 A 
ATOM     13  C   UNL     1       0.006 -16.523 -15.807  0.00  0.00    +0.005 A 
ATOM     14  C   UNL     1      -0.796 -14.217 -17.148  0.00  0.00    +0.000 A 
ATOM     15  C   UNL     1      -1.056 -16.572 -16.710  0.00  0.00    +0.000 A 
ATOM     16  C   UNL     1      -1.455 -15.419 -17.382  0.00  0.00    +0.000 A 
ENDBRANCH  10  11
ENDBRANCH   1  10
TORSDOF 2
ENDMDL
MODEL 9
REMARK VINA RESULT:    -4.715     14.999     15.676
REMARK INTER + INTRA:          -5.367
REMARK INTER:                  -5.242
REMARK INTRA:                  -0.125
REMARK UNBOUND:                -0.101
REMARK  Name = 1550473
REMARK  2 active torsions:
REMARK  status: ('A' for Active; 'I' for Inactive)
REMARK    1  A    between atoms: N_1  and  C_4
REMARK    2  A    between atoms: C_4  and  C_5
REMARK                            x       y       z     vdW  Elec       q    Type
REMARK                         _______ _______ _______ _____ _____    ______ ____
ROOT
ATOM      1  N   UNL     1      -1.036   0.316  -7.592  0.00  0.00    -0.354 N 
ATOM      2  N   UNL     1       0.071   2.099  -6.612  0.00  0.00    -0.372 N 
ATOM      3  N   UNL     1      -1.797   1.252  -5.583  0.00  0.00    -0.372 N 
ATOM      4  C   UNL     1      -0.930   1.211  -6.601  0.00  0.00    +0.166 C 
ATOM      5  H   UNL     1      -0.364   0.356  -8.350  0.00  0.00    +0.163 HD
ATOM      6  H   UNL     1       0.179   2.783  -5.875  0.00  0.00    +0.159 HD
ATOM      7  H   UNL     1       0.768   2.107  -7.347  0.00  0.00    +0.159 HD
ATOM      8  H   UNL     1      -2.579   0.614  -5.519  0.00  0.00    +0.159 HD
ATOM      9  H   UNL     1      -1.713   1.938  -4.843  0.00  0.00    +0.159 HD
ENDROOT
BRANCH   1  10
ATOM     10  C   UNL     1      -2.058  -0.727  -7.647  0.00  0.00    +0.151 C 
BRANCH  10  11
ATOM     11  C   UNL     1      -2.144  -1.259  -9.051  0.00  0.00    -0.028 A 
ATOM     12  C   UNL     1      -2.834  -2.449  -9.321  0.00  0.00    +0.005 A 
ATOM     13  C   UNL     1      -1.542  -0.573 -10.117  0.00  0.00    +0.005 A 
ATOM     14  C   UNL     1      -2.940  -2.927 -10.629  0.00  0.00    +0.000 A 
ATOM     15  C   UNL     1      -1.649  -1.053 -11.422  0.00  0.00    +0.000 A 
ATOM     16  C   UNL     1      -2.350  -2.229 -11.678  0.00  0.00    +0.000 A 
ENDBRANCH  10  11
ENDBRANCH   1  10
TORSDOF 2
ENDMDL
