MODEL 1
REMARK VINA RESULT:    -5.271      0.000      0.000
REMARK INTER + INTRA:          -6.015
REMARK INTER:                  -5.887
REMARK INTRA:                  -0.128
REMARK UNBOUND:                -0.128
REMARK  Name = 1550473
REMARK  2 active torsions:
REMARK  status: ('A' for Active; 'I' for Inactive)
REMARK    1  A    between atoms: N_1  and  C_4
REMARK    2  A    between atoms: C_4  and  C_5
REMARK                            x       y       z     vdW  Elec       q    Type
REMARK                         _______ _______ _______ _____ _____    ______ ____
ROOT
ATOM      1  N   UNL     1       0.478  -4.313  -1.675  0.00  0.00    -0.354 N 
ATOM      2  N   UNL     1       1.604  -2.309  -1.390  0.00  0.00    -0.372 N 
ATOM      3  N   UNL     1       1.453  -3.758   0.383  0.00  0.00    -0.372 N 
ATOM      4  C   UNL     1       1.171  -3.474  -0.893  0.00  0.00    +0.166 C 
ATOM      5  H   UNL     1       0.272  -4.026  -2.624  0.00  0.00    +0.163 HD
ATOM      6  H   UNL     1       2.131  -1.657  -0.825  0.00  0.00    +0.159 HD
ATOM      7  H   UNL     1       1.435  -2.045  -2.353  0.00  0.00    +0.159 HD
ATOM      8  H   UNL     1       1.150  -4.618   0.820  0.00  0.00    +0.159 HD
ATOM      9  H   UNL     1       1.970  -3.113   0.968  0.00  0.00    +0.159 HD
ENDROOT
BRANCH   1  10
ATOM     10  C   UNL     1       0.008  -5.630  -1.246  0.00  0.00    +0.151 C 
BRANCH  10  11
ATOM     11  C   UNL     1      -0.189  -6.499  -2.458  0.00  0.00    -0.028 A 
ATOM     12  C   UNL     1       0.085  -6.004  -3.741  0.00  0.00    +0.005 A 
ATOM     13  C   UNL     1      -0.645  -7.820  -2.329  0.00  0.00    +0.005 A 
ATOM     14  C   UNL     1      -0.069  -6.820  -4.864  0.00  0.00    +0.000 A 
ATOM     15  C   UNL     1      -0.799  -8.631  -3.453  0.00  0.00    +0.000 A 
ATOM     16  C   UNL     1      -0.509  -8.132  -4.720  0.00  0.00    +0.000 A 
ENDBRANCH  10  11
ENDBRANCH   1  10
TORSDOF 2
ENDMDL
MODEL 2
REMARK VINA RESULT:    -5.087      1.345      2.262
REMARK INTER + INTRA:          -5.810
REMARK INTER:                  -5.667
REMARK INTRA:                  -0.143
REMARK UNBOUND:                -0.128
REMARK  Name = 1550473
REMARK  2 active torsions:
REMARK  status: ('A' for Active; 'I' for Inactive)
REMARK    1  A    between atoms: N_1  and  C_4
REMARK    2  A    between atoms: C_4  and  C_5
REMARK                            x       y       z     vdW  Elec       q    Type
REMARK                         _______ _______ _______ _____ _____    ______ ____
ROOT
ATOM      1  N   UNL     1       0.062  -4.964  -1.168  0.00  0.00    -0.354 N 
ATOM      2  N   UNL     1       1.336  -3.361  -0.086  0.00  0.00    -0.372 N 
ATOM      3  N   UNL     1       1.599  -3.646  -2.348  0.00  0.00    -0.372 N 
ATOM      4  C   UNL     1       0.992  -4.001  -1.211  0.00  0.00    +0.166 C 
ATOM      5  H   UNL     1      -0.339  -5.207  -0.270  0.00  0.00    +0.163 HD
ATOM      6  H   UNL     1       2.032  -2.628  -0.088  0.00  0.00    +0.159 HD
ATOM      7  H   UNL     1       0.901  -3.574   0.803  0.00  0.00    +0.159 HD
ATOM      8  H   UNL     1       1.388  -4.094  -3.230  0.00  0.00    +0.159 HD
ATOM      9  H   UNL     1       2.306  -2.922  -2.368  0.00  0.00    +0.159 HD
ENDROOT
BRANCH   1  10
ATOM     10  C   UNL     1      -0.423  -5.685  -2.344  0.00  0.00    +0.151 C 
BRANCH  10  11
ATOM     11  C   UNL     1      -0.361  -7.163  -2.075  0.00  0.00    -0.028 A 
ATOM     12  C   UNL     1      -0.876  -8.078  -3.005  0.00  0.00    +0.005 A 
ATOM     13  C   UNL     1       0.217  -7.655  -0.894  0.00  0.00    +0.005 A 
ATOM     14  C   UNL     1      -0.791  -9.453  -2.769  0.00  0.00    +0.000 A 
ATOM     15  C   UNL     1       0.299  -9.028  -0.662  0.00  0.00    +0.000 A 
ATOM     16  C   UNL     1      -0.203  -9.926  -1.601  0.00  0.00    +0.000 A 
ENDBRANCH  10  11
ENDBRANCH   1  10
TORSDOF 2
ENDMDL
MODEL 3
REMARK VINA RESULT:    -5.037     18.531     19.697
REMARK INTER + INTRA:          -5.754
REMARK INTER:                  -5.621
REMARK INTRA:                  -0.134
REMARK UNBOUND:                -0.128
REMARK  Name = 1550473
REMARK  2 active torsions:
REMARK  status: ('A' for Active; 'I' for Inactive)
REMARK    1  A    between atoms: N_1  and  C_4
REMARK    2  A    between atoms: C_4  and  C_5
REMARK                            x       y       z     vdW  Elec       q    Type
REMARK                         _______ _______ _______ _____ _____    ______ ____
ROOT
ATOM      1  N   UNL     1       8.577   7.256  11.373  0.00  0.00    -0.354 N 
ATOM      2  N   UNL     1      10.803   6.977  10.799  0.00  0.00    -0.372 N 
ATOM      3  N   UNL     1       9.376   7.930   9.276  0.00  0.00    -0.372 N 
ATOM      4  C   UNL     1       9.570   7.390  10.484  0.00  0.00    +0.166 C 
ATOM      5  H   UNL     1       8.782   6.811  12.261  0.00  0.00    +0.163 HD
ATOM      6  H   UNL     1      11.573   7.069  10.150  0.00  0.00    +0.159 HD
ATOM      7  H   UNL     1      11.016   6.575  11.704  0.00  0.00    +0.159 HD
ATOM      8  H   UNL     1       8.468   8.256   8.975  0.00  0.00    +0.159 HD
ATOM      9  H   UNL     1      10.132   8.019   8.608  0.00  0.00    +0.159 HD
ENDROOT
BRANCH   1  10
ATOM     10  C   UNL     1       7.210   7.723  11.149  0.00  0.00    +0.151 C 
BRANCH  10  11
ATOM     11  C   UNL     1       6.254   6.596  11.428  0.00  0.00    -0.028 A 
ATOM     12  C   UNL     1       5.107   6.424  10.640  0.00  0.00    +0.005 A 
ATOM     13  C   UNL     1       6.493   5.692  12.475  0.00  0.00    +0.005 A 
ATOM     14  C   UNL     1       4.234   5.359  10.879  0.00  0.00    +0.000 A 
ATOM     15  C   UNL     1       5.619   4.631  12.711  0.00  0.00    +0.000 A 
ATOM     16  C   UNL     1       4.492   4.464  11.911  0.00  0.00    +0.000 A 
ENDBRANCH  10  11
ENDBRANCH   1  10
TORSDOF 2
ENDMDL
MODEL 4
REMARK VINA RESULT:    -5.007     24.957     25.584
REMARK INTER + INTRA:          -5.721
REMARK INTER:                  -5.598
REMARK INTRA:                  -0.123
REMARK UNBOUND:                -0.128
REMARK  Name = 1550473
REMARK  2 active torsions:
REMARK  status: ('A' for Active; 'I' for Inactive)
REMARK    1  A    between atoms: N_1  and  C_4
REMARK    2  A    between atoms: C_4  and  C_5
REMARK                            x       y       z     vdW  Elec       q    Type
REMARK                         _______ _______ _______ _____ _____    ______ ____
ROOT
ATOM      1  N   UNL     1       8.152  -2.400  21.806  0.00  0.00    -0.354 N 
ATOM      2  N   UNL     1       9.298  -1.298  20.122  0.00  0.00    -0.372 N 
ATOM      3  N   UNL     1      10.370  -2.954  21.294  0.00  0.00    -0.372 N 
ATOM      4  C   UNL     1       9.268  -2.226  21.086  0.00  0.00    +0.166 C 
ATOM      5  H   UNL     1       7.360  -1.796  21.620  0.00  0.00    +0.163 HD
ATOM      6  H   UNL     1      10.125  -1.146  19.561  0.00  0.00    +0.159 HD
ATOM      7  H   UNL     1       8.490  -0.727  19.907  0.00  0.00    +0.159 HD
ATOM      8  H   UNL     1      10.414  -3.667  22.010  0.00  0.00    +0.159 HD
ATOM      9  H   UNL     1      11.212  -2.809  20.750  0.00  0.00    +0.159 HD
ENDROOT
BRANCH   1  10
ATOM     10  C   UNL     1       7.997  -3.420  22.842  0.00  0.00    +0.151 C 
BRANCH  10  11
ATOM     11  C   UNL     1       6.649  -4.070  22.695  0.00  0.00    -0.028 A 
ATOM     12  C   UNL     1       5.521  -3.303  22.370  0.00  0.00    +0.005 A 
ATOM     13  C   UNL     1       6.495  -5.453  22.873  0.00  0.00    +0.005 A 
ATOM     14  C   UNL     1       4.274  -3.910  22.204  0.00  0.00    +0.000 A 
ATOM     15  C   UNL     1       5.248  -6.056  22.706  0.00  0.00    +0.000 A 
ATOM     16  C   UNL     1       4.138  -5.285  22.369  0.00  0.00    +0.000 A 
ENDBRANCH  10  11
ENDBRANCH   1  10
TORSDOF 2
ENDMDL
MODEL 5
REMARK VINA RESULT:    -4.681      3.864      5.320
REMARK INTER + INTRA:          -5.357
REMARK INTER:                  -5.204
REMARK INTRA:                  -0.152
REMARK UNBOUND:                -0.128
REMARK  Name = 1550473
REMARK  2 active torsions:
REMARK  status: ('A' for Active; 'I' for Inactive)
REMARK    1  A    between atoms: N_1  and  C_4
REMARK    2  A    between atoms: C_4  and  C_5
REMARK                            x       y       z     vdW  Elec       q    Type
REMARK                         _______ _______ _______ _____ _____    ______ ____
ROOT
ATOM      1  N   UNL     1       0.040 -10.056  -1.776  0.00  0.00    -0.354 N 
ATOM      2  N   UNL     1       0.551 -12.162  -2.594  0.00  0.00    -0.372 N 
ATOM      3  N   UNL     1      -1.617 -11.421  -2.717  0.00  0.00    -0.372 N 
ATOM      4  C   UNL     1      -0.348 -11.199  -2.357  0.00  0.00    +0.166 C 
ATOM      5  H   UNL     1       1.010  -9.962  -1.500  0.00  0.00    +0.163 HD
ATOM      6  H   UNL     1       0.288 -13.034  -3.034  0.00  0.00    +0.159 HD
ATOM      7  H   UNL     1       1.529 -12.047  -2.358  0.00  0.00    +0.159 HD
ATOM      8  H   UNL     1      -2.345 -10.736  -2.561  0.00  0.00    +0.159 HD
ATOM      9  H   UNL     1      -1.902 -12.291  -3.148  0.00  0.00    +0.159 HD
ENDROOT
BRANCH   1  10
ATOM     10  C   UNL     1      -0.850  -8.924  -1.524  0.00  0.00    +0.151 C 
BRANCH  10  11
ATOM     11  C   UNL     1      -0.490  -7.800  -2.456  0.00  0.00    -0.028 A 
ATOM     12  C   UNL     1       0.139  -6.645  -1.969  0.00  0.00    +0.005 A 
ATOM     13  C   UNL     1      -0.771  -7.886  -3.828  0.00  0.00    +0.005 A 
ATOM     14  C   UNL     1       0.500  -5.613  -2.838  0.00  0.00    +0.000 A 
ATOM     15  C   UNL     1      -0.410  -6.853  -4.693  0.00  0.00    +0.000 A 
ATOM     16  C   UNL     1       0.228  -5.718  -4.198  0.00  0.00    +0.000 A 
ENDBRANCH  10  11
ENDBRANCH   1  10
TORSDOF 2
ENDMDL
MODEL 6
REMARK VINA RESULT:    -4.680      3.832      5.317
REMARK INTER + INTRA:          -5.355
REMARK INTER:                  -5.208
REMARK INTRA:                  -0.147
REMARK UNBOUND:                -0.128
REMARK  Name = 1550473
REMARK  2 active torsions:
REMARK  status: ('A' for Active; 'I' for Inactive)
REMARK    1  A    between atoms: N_1  and  C_4
REMARK    2  A    between atoms: C_4  and  C_5
REMARK                            x       y       z     vdW  Elec       q    Type
REMARK                         _______ _______ _______ _____ _____    ______ ____
ROOT
ATOM      1  N   UNL     1      -0.141  -9.928  -1.981  0.00  0.00    -0.354 N 
ATOM      2  N   UNL     1       0.349 -12.141  -2.458  0.00  0.00    -0.372 N 
ATOM      3  N   UNL     1      -1.809 -11.403  -2.712  0.00  0.00    -0.372 N 
ATOM      4  C   UNL     1      -0.540 -11.143  -2.381  0.00  0.00    +0.166 C 
ATOM      5  H   UNL     1       0.829  -9.803  -1.715  0.00  0.00    +0.163 HD
ATOM      6  H   UNL     1       0.078 -13.067  -2.760  0.00  0.00    +0.159 HD
ATOM      7  H   UNL     1       1.327 -12.001  -2.236  0.00  0.00    +0.159 HD
ATOM      8  H   UNL     1      -2.529 -10.695  -2.670  0.00  0.00    +0.159 HD
ATOM      9  H   UNL     1      -2.101 -12.327  -3.006  0.00  0.00    +0.159 HD
ENDROOT
BRANCH   1  10
ATOM     10  C   UNL     1      -1.019  -8.761  -1.914  0.00  0.00    +0.151 C 
BRANCH  10  11
ATOM     11  C   UNL     1      -0.636  -7.796  -3.002  0.00  0.00    -0.028 A 
ATOM     12  C   UNL     1      -0.878  -8.108  -4.348  0.00  0.00    +0.005 A 
ATOM     13  C   UNL     1      -0.037  -6.565  -2.694  0.00  0.00    +0.005 A 
ATOM     14  C   UNL     1      -0.550  -7.199  -5.357  0.00  0.00    +0.000 A 
ATOM     15  C   UNL     1       0.290  -5.661  -3.704  0.00  0.00    +0.000 A 
ATOM     16  C   UNL     1       0.031  -5.977  -5.036  0.00  0.00    +0.000 A 
ENDBRANCH  10  11
ENDBRANCH   1  10
TORSDOF 2
ENDMDL
MODEL 7
REMARK VINA RESULT:    -4.644      1.534      2.348
REMARK INTER + INTRA:          -5.315
REMARK INTER:                  -5.199
REMARK INTRA:                  -0.117
REMARK UNBOUND:                -0.128
REMARK  Name = 1550473
REMARK  2 active torsions:
REMARK  status: ('A' for Active; 'I' for Inactive)
REMARK    1  A    between atoms: N_1  and  C_4
REMARK    2  A    between atoms: C_4  and  C_5
REMARK                            x       y       z     vdW  Elec       q    Type
REMARK                         _______ _______ _______ _____ _____    ______ ____
ROOT
ATOM      1  N   UNL     1      -0.287  -5.524  -2.126  0.00  0.00    -0.354 N 
ATOM      2  N   UNL     1       1.008  -3.647  -2.536  0.00  0.00    -0.372 N 
ATOM      3  N   UNL     1       0.645  -4.292  -0.364  0.00  0.00    -0.372 N 
ATOM      4  C   UNL     1       0.447  -4.500  -1.670  0.00  0.00    +0.166 C 
ATOM      5  H   UNL     1      -0.425  -5.609  -3.127  0.00  0.00    +0.163 HD
ATOM      6  H   UNL     1       1.569  -2.867  -2.221  0.00  0.00    +0.159 HD
ATOM      7  H   UNL     1       0.906  -3.761  -3.537  0.00  0.00    +0.159 HD
ATOM      8  H   UNL     1       0.245  -4.896   0.341  0.00  0.00    +0.159 HD
ATOM      9  H   UNL     1       1.195  -3.511  -0.029  0.00  0.00    +0.159 HD
ENDROOT
BRANCH   1  10
ATOM     10  C   UNL     1      -0.896  -6.539  -1.270  0.00  0.00    +0.151 C 
BRANCH  10  11
ATOM     11  C   UNL     1      -0.710  -7.891  -1.902  0.00  0.00    -0.028 A 
ATOM     12  C   UNL     1      -0.257  -8.977  -1.139  0.00  0.00    +0.005 A 
ATOM     13  C   UNL     1      -0.991  -8.093  -3.262  0.00  0.00    +0.005 A 
ATOM     14  C   UNL     1      -0.113 -10.240  -1.719  0.00  0.00    +0.000 A 
ATOM     15  C   UNL     1      -0.845  -9.356  -3.837  0.00  0.00    +0.000 A 
ATOM     16  C   UNL     1      -0.408 -10.429  -3.064  0.00  0.00    +0.000 A 
ENDBRANCH  10  11
ENDBRANCH   1  10
TORSDOF 2
ENDMDL
MODEL 8
REMARK VINA RESULT:    -4.527     14.971     16.767
REMARK INTER + INTRA:          -5.184
REMARK INTER:                  -5.037
REMARK INTRA:                  -0.147
REMARK UNBOUND:                -0.128
REMARK  Name = 1550473
REMARK  2 active torsions:
REMARK  status: ('A' for Active; 'I' for Inactive)
REMARK    1  A    between atoms: N_1  and  C_4
REMARK    2  A    between atoms: C_4  and  C_5
REMARK                            x       y       z     vdW  Elec       q    Type
REMARK                         _______ _______ _______ _____ _____    ______ ____
ROOT
ATOM      1  N   UNL     1      12.641   0.930   7.226  0.00  0.00    -0.354 N 
ATOM      2  N   UNL     1      14.425  -0.231   8.141  0.00  0.00    -0.372 N 
ATOM      3  N   UNL     1      14.035   1.924   8.826  0.00  0.00    -0.372 N 
ATOM      4  C   UNL     1      13.689   0.885   8.059  0.00  0.00    +0.166 C 
ATOM      5  H   UNL     1      12.449   0.118   6.649  0.00  0.00    +0.163 HD
ATOM      6  H   UNL     1      15.219  -0.295   8.763  0.00  0.00    +0.159 HD
ATOM      7  H   UNL     1      14.203  -1.056   7.598  0.00  0.00    +0.159 HD
ATOM      8  H   UNL     1      13.524   2.797   8.807  0.00  0.00    +0.159 HD
ATOM      9  H   UNL     1      14.833   1.883   9.446  0.00  0.00    +0.159 HD
ENDROOT
BRANCH   1  10
ATOM     10  C   UNL     1      11.744   2.077   7.101  0.00  0.00    +0.151 C 
BRANCH  10  11
ATOM     11  C   UNL     1      10.359   1.665   7.518  0.00  0.00    -0.028 A 
ATOM     12  C   UNL     1       9.854   2.034   8.774  0.00  0.00    +0.005 A 
ATOM     13  C   UNL     1       9.544   0.910   6.660  0.00  0.00    +0.005 A 
ATOM     14  C   UNL     1       8.557   1.677   9.150  0.00  0.00    +0.000 A 
ATOM     15  C   UNL     1       8.250   0.555   7.040  0.00  0.00    +0.000 A 
ATOM     16  C   UNL     1       7.756   0.941   8.283  0.00  0.00    +0.000 A 
ENDBRANCH  10  11
ENDBRANCH   1  10
TORSDOF 2
ENDMDL
MODEL 9
REMARK VINA RESULT:    -4.473     11.108     11.935
REMARK INTER + INTRA:          -5.124
REMARK INTER:                  -5.122
REMARK INTRA:                  -0.002
REMARK UNBOUND:                -0.128
REMARK  Name = 1550473
REMARK  2 active torsions:
REMARK  status: ('A' for Active; 'I' for Inactive)
REMARK    1  A    between atoms: N_1  and  C_4
REMARK    2  A    between atoms: C_4  and  C_5
REMARK                            x       y       z     vdW  Elec       q    Type
REMARK                         _______ _______ _______ _____ _____    ______ ____
ROOT
ATOM      1  N   UNL     1       7.041 -10.466   4.767  0.00  0.00    -0.354 N 
ATOM      2  N   UNL     1       6.242  -9.221   2.985  0.00  0.00    -0.372 N 
ATOM      3  N   UNL     1       4.921  -9.471   4.845  0.00  0.00    -0.372 N 
ATOM      4  C   UNL     1       6.071  -9.727   4.212  0.00  0.00    +0.166 C 
ATOM      5  H   UNL     1       7.877 -10.649   4.224  0.00  0.00    +0.163 HD
ATOM      6  H   UNL     1       5.529  -8.657   2.542  0.00  0.00    +0.159 HD
ATOM      7  H   UNL     1       7.097  -9.367   2.463  0.00  0.00    +0.159 HD
ATOM      8  H   UNL     1       4.727  -9.829   5.770  0.00  0.00    +0.159 HD
ATOM      9  H   UNL     1       4.191  -8.918   4.413  0.00  0.00    +0.159 HD
ENDROOT
BRANCH   1  10
ATOM     10  C   UNL     1       6.976 -11.019   6.119  0.00  0.00    +0.151 C 
BRANCH  10  11
ATOM     11  C   UNL     1       6.579 -12.467   6.039  0.00  0.00    -0.028 A 
ATOM     12  C   UNL     1       6.143 -13.019   4.826  0.00  0.00    +0.005 A 
ATOM     13  C   UNL     1       6.641 -13.293   7.172  0.00  0.00    +0.005 A 
ATOM     14  C   UNL     1       5.802 -14.372   4.744  0.00  0.00    +0.000 A 
ATOM     15  C   UNL     1       6.298 -14.642   7.086  0.00  0.00    +0.000 A 
ATOM     16  C   UNL     1       5.882 -15.182   5.872  0.00  0.00    +0.000 A 
ENDBRANCH  10  11
ENDBRANCH   1  10
TORSDOF 2
ENDMDL
