MODEL 1
REMARK VINA RESULT:    -6.775      0.000      0.000
REMARK INTER + INTRA:          -7.690
REMARK INTER:                  -7.567
REMARK INTRA:                  -0.123
REMARK UNBOUND:                -0.123
REMARK  Name = 1550473
REMARK  2 active torsions:
REMARK  status: ('A' for Active; 'I' for Inactive)
REMARK    1  A    between atoms: N_1  and  C_4
REMARK    2  A    between atoms: C_4  and  C_5
REMARK                            x       y       z     vdW  Elec       q    Type
REMARK                         _______ _______ _______ _____ _____    ______ ____
ROOT
ATOM      1  N   UNL     1      -3.502  -1.591 -20.418  0.00  0.00    -0.354 N 
ATOM      2  N   UNL     1      -5.586  -0.724 -19.897  0.00  0.00    -0.372 N 
ATOM      3  N   UNL     1      -4.922  -0.773 -22.093  0.00  0.00    -0.372 N 
ATOM      4  C   UNL     1      -4.656  -1.034 -20.809  0.00  0.00    +0.166 C 
ATOM      5  H   UNL     1      -3.349  -1.735 -19.426  0.00  0.00    +0.163 HD
ATOM      6  H   UNL     1      -6.467  -0.306 -20.163  0.00  0.00    +0.159 HD
ATOM      7  H   UNL     1      -5.449  -0.912 -18.912  0.00  0.00    +0.159 HD
ATOM      8  H   UNL     1      -4.259  -0.978 -22.829  0.00  0.00    +0.159 HD
ATOM      9  H   UNL     1      -5.794  -0.345 -22.378  0.00  0.00    +0.159 HD
ENDROOT
BRANCH   1  10
ATOM     10  C   UNL     1      -2.447  -2.016 -21.335  0.00  0.00    +0.151 C 
BRANCH  10  11
ATOM     11  C   UNL     1      -1.463  -2.875 -20.589  0.00  0.00    -0.028 A 
ATOM     12  C   UNL     1      -1.831  -3.500 -19.389  0.00  0.00    +0.005 A 
ATOM     13  C   UNL     1      -0.163  -3.072 -21.080  0.00  0.00    +0.005 A 
ATOM     14  C   UNL     1      -0.928  -4.322 -18.711  0.00  0.00    +0.000 A 
ATOM     15  C   UNL     1       0.736  -3.892 -20.400  0.00  0.00    +0.000 A 
ATOM     16  C   UNL     1       0.353  -4.519 -19.216  0.00  0.00    +0.000 A 
ENDBRANCH  10  11
ENDBRANCH   1  10
TORSDOF 2
ENDMDL
MODEL 2
REMARK VINA RESULT:    -6.035     17.422     18.282
REMARK INTER + INTRA:          -6.864
REMARK INTER:                  -6.746
REMARK INTRA:                  -0.118
REMARK UNBOUND:                -0.123
REMARK  Name = 1550473
REMARK  2 active torsions:
REMARK  status: ('A' for Active; 'I' for Inactive)
REMARK    1  A    between atoms: N_1  and  C_4
REMARK    2  A    between atoms: C_4  and  C_5
REMARK                            x       y       z     vdW  Elec       q    Type
REMARK                         _______ _______ _______ _____ _____    ______ ____
ROOT
ATOM      1  N   UNL     1      11.760   8.358 -13.996  0.00  0.00    -0.354 N 
ATOM      2  N   UNL     1      11.205  10.096 -15.421  0.00  0.00    -0.372 N 
ATOM      3  N   UNL     1      11.259  10.490 -13.161  0.00  0.00    -0.372 N 
ATOM      4  C   UNL     1      11.411   9.638 -14.181  0.00  0.00    +0.166 C 
ATOM      5  H   UNL     1      11.829   7.755 -14.808  0.00  0.00    +0.163 HD
ATOM      6  H   UNL     1      10.944  11.058 -15.593  0.00  0.00    +0.159 HD
ATOM      7  H   UNL     1      11.320   9.504 -16.235  0.00  0.00    +0.159 HD
ATOM      8  H   UNL     1      11.394  10.204 -12.201  0.00  0.00    +0.159 HD
ATOM      9  H   UNL     1      10.987  11.453 -13.312  0.00  0.00    +0.159 HD
ENDROOT
BRANCH   1  10
ATOM     10  C   UNL     1      12.060   7.773 -12.690  0.00  0.00    +0.151 C 
BRANCH  10  11
ATOM     11  C   UNL     1      11.731   6.306 -12.721  0.00  0.00    -0.028 A 
ATOM     12  C   UNL     1      11.239   5.661 -11.577  0.00  0.00    +0.005 A 
ATOM     13  C   UNL     1      11.904   5.555 -13.895  0.00  0.00    +0.005 A 
ATOM     14  C   UNL     1      10.906   4.305 -11.614  0.00  0.00    +0.000 A 
ATOM     15  C   UNL     1      11.571   4.201 -13.927  0.00  0.00    +0.000 A 
ATOM     16  C   UNL     1      11.069   3.578 -12.788  0.00  0.00    +0.000 A 
ENDBRANCH  10  11
ENDBRANCH   1  10
TORSDOF 2
ENDMDL
MODEL 3
REMARK VINA RESULT:    -5.625     24.389     25.324
REMARK INTER + INTRA:          -6.406
REMARK INTER:                  -6.304
REMARK INTRA:                  -0.102
REMARK UNBOUND:                -0.123
REMARK  Name = 1550473
REMARK  2 active torsions:
REMARK  status: ('A' for Active; 'I' for Inactive)
REMARK    1  A    between atoms: N_1  and  C_4
REMARK    2  A    between atoms: C_4  and  C_5
REMARK                            x       y       z     vdW  Elec       q    Type
REMARK                         _______ _______ _______ _____ _____    ______ ____
ROOT
ATOM      1  N   UNL     1       3.008   4.522   2.930  0.00  0.00    -0.354 N 
ATOM      2  N   UNL     1       3.703   2.889   4.418  0.00  0.00    -0.372 N 
ATOM      3  N   UNL     1       4.437   2.795   2.246  0.00  0.00    -0.372 N 
ATOM      4  C   UNL     1       3.713   3.412   3.186  0.00  0.00    +0.166 C 
ATOM      5  H   UNL     1       2.455   4.924   3.678  0.00  0.00    +0.163 HD
ATOM      6  H   UNL     1       4.228   2.054   4.641  0.00  0.00    +0.159 HD
ATOM      7  H   UNL     1       3.186   3.319   5.175  0.00  0.00    +0.159 HD
ATOM      8  H   UNL     1       4.481   3.136   1.295  0.00  0.00    +0.159 HD
ATOM      9  H   UNL     1       4.959   1.952   2.447  0.00  0.00    +0.159 HD
ENDROOT
BRANCH   1  10
ATOM     10  C   UNL     1       2.994   5.202   1.636  0.00  0.00    +0.151 C 
BRANCH  10  11
ATOM     11  C   UNL     1       2.554   6.626   1.833  0.00  0.00    -0.028 A 
ATOM     12  C   UNL     1       1.277   7.039   1.428  0.00  0.00    +0.005 A 
ATOM     13  C   UNL     1       3.408   7.566   2.431  0.00  0.00    +0.005 A 
ATOM     14  C   UNL     1       0.857   8.355   1.639  0.00  0.00    +0.000 A 
ATOM     15  C   UNL     1       2.986   8.878   2.639  0.00  0.00    +0.000 A 
ATOM     16  C   UNL     1       1.709   9.272   2.245  0.00  0.00    +0.000 A 
ENDBRANCH  10  11
ENDBRANCH   1  10
TORSDOF 2
ENDMDL
MODEL 4
REMARK VINA RESULT:    -5.470     36.491     37.289
REMARK INTER + INTRA:          -6.232
REMARK INTER:                  -6.108
REMARK INTRA:                  -0.124
REMARK UNBOUND:                -0.123
REMARK  Name = 1550473
REMARK  2 active torsions:
REMARK  status: ('A' for Active; 'I' for Inactive)
REMARK    1  A    between atoms: N_1  and  C_4
REMARK    2  A    between atoms: C_4  and  C_5
REMARK                            x       y       z     vdW  Elec       q    Type
REMARK                         _______ _______ _______ _____ _____    ______ ____
ROOT
ATOM      1  N   UNL     1       2.204  15.146  12.607  0.00  0.00    -0.354 N 
ATOM      2  N   UNL     1       4.495  14.863  12.791  0.00  0.00    -0.372 N 
ATOM      3  N   UNL     1       3.259  15.181  14.699  0.00  0.00    -0.372 N 
ATOM      4  C   UNL     1       3.303  15.066  13.367  0.00  0.00    +0.166 C 
ATOM      5  H   UNL     1       2.308  15.081  11.601  0.00  0.00    +0.163 HD
ATOM      6  H   UNL     1       5.342  14.794  13.340  0.00  0.00    +0.159 HD
ATOM      7  H   UNL     1       4.590  14.752  11.789  0.00  0.00    +0.159 HD
ATOM      8  H   UNL     1       2.392  15.341  15.194  0.00  0.00    +0.159 HD
ATOM      9  H   UNL     1       4.097  15.126  15.264  0.00  0.00    +0.159 HD
ENDROOT
BRANCH   1  10
ATOM     10  C   UNL     1       0.852  15.312  13.139  0.00  0.00    +0.151 C 
BRANCH  10  11
ATOM     11  C   UNL     1      -0.143  15.055  12.041  0.00  0.00    -0.028 A 
ATOM     12  C   UNL     1      -1.504  15.334  12.233  0.00  0.00    +0.005 A 
ATOM     13  C   UNL     1       0.270  14.537  10.803  0.00  0.00    +0.005 A 
ATOM     14  C   UNL     1      -2.424  15.123  11.204  0.00  0.00    +0.000 A 
ATOM     15  C   UNL     1      -0.652  14.327   9.778  0.00  0.00    +0.000 A 
ATOM     16  C   UNL     1      -1.999  14.622   9.978  0.00  0.00    +0.000 A 
ENDBRANCH  10  11
ENDBRANCH   1  10
TORSDOF 2
ENDMDL
MODEL 5
REMARK VINA RESULT:    -5.448     25.217     26.229
REMARK INTER + INTRA:          -6.208
REMARK INTER:                  -6.074
REMARK INTRA:                  -0.133
REMARK UNBOUND:                -0.123
REMARK  Name = 1550473
REMARK  2 active torsions:
REMARK  status: ('A' for Active; 'I' for Inactive)
REMARK    1  A    between atoms: N_1  and  C_4
REMARK    2  A    between atoms: C_4  and  C_5
REMARK                            x       y       z     vdW  Elec       q    Type
REMARK                         _______ _______ _______ _____ _____    ______ ____
ROOT
ATOM      1  N   UNL     1       3.481   4.082   4.886  0.00  0.00    -0.354 N 
ATOM      2  N   UNL     1       4.307   4.178   7.048  0.00  0.00    -0.372 N 
ATOM      3  N   UNL     1       5.740   3.653   5.334  0.00  0.00    -0.372 N 
ATOM      4  C   UNL     1       4.506   3.970   5.740  0.00  0.00    +0.166 C 
ATOM      5  H   UNL     1       2.563   4.295   5.260  0.00  0.00    +0.163 HD
ATOM      6  H   UNL     1       5.062   4.103   7.716  0.00  0.00    +0.159 HD
ATOM      7  H   UNL     1       3.398   4.436   7.413  0.00  0.00    +0.159 HD
ATOM      8  H   UNL     1       5.956   3.477   4.362  0.00  0.00    +0.159 HD
ATOM      9  H   UNL     1       6.507   3.562   5.990  0.00  0.00    +0.159 HD
ENDROOT
BRANCH   1  10
ATOM     10  C   UNL     1       3.603   3.929   3.437  0.00  0.00    +0.151 C 
BRANCH  10  11
ATOM     11  C   UNL     1       3.085   5.171   2.766  0.00  0.00    -0.028 A 
ATOM     12  C   UNL     1       2.361   5.083   1.568  0.00  0.00    +0.005 A 
ATOM     13  C   UNL     1       3.309   6.438   3.326  0.00  0.00    +0.005 A 
ATOM     14  C   UNL     1       1.853   6.234   0.960  0.00  0.00    +0.000 A 
ATOM     15  C   UNL     1       2.802   7.584   2.716  0.00  0.00    +0.000 A 
ATOM     16  C   UNL     1       2.072   7.482   1.534  0.00  0.00    +0.000 A 
ENDBRANCH  10  11
ENDBRANCH   1  10
TORSDOF 2
ENDMDL
MODEL 6
REMARK VINA RESULT:    -5.433     35.988     36.735
REMARK INTER + INTRA:          -6.191
REMARK INTER:                  -6.062
REMARK INTRA:                  -0.129
REMARK UNBOUND:                -0.123
REMARK  Name = 1550473
REMARK  2 active torsions:
REMARK  status: ('A' for Active; 'I' for Inactive)
REMARK    1  A    between atoms: N_1  and  C_4
REMARK    2  A    between atoms: C_4  and  C_5
REMARK                            x       y       z     vdW  Elec       q    Type
REMARK                         _______ _______ _______ _____ _____    ______ ____
ROOT
ATOM      1  N   UNL     1      -2.178  15.296  11.056  0.00  0.00    -0.354 N 
ATOM      2  N   UNL     1      -4.348  15.472  11.845  0.00  0.00    -0.372 N 
ATOM      3  N   UNL     1      -3.564  13.412  11.208  0.00  0.00    -0.372 N 
ATOM      4  C   UNL     1      -3.349  14.723  11.364  0.00  0.00    +0.166 C 
ATOM      5  H   UNL     1      -2.088  16.299  11.169  0.00  0.00    +0.163 HD
ATOM      6  H   UNL     1      -5.242  15.067  12.090  0.00  0.00    +0.159 HD
ATOM      7  H   UNL     1      -4.241  16.467  12.001  0.00  0.00    +0.159 HD
ATOM      8  H   UNL     1      -2.853  12.793  10.843  0.00  0.00    +0.159 HD
ATOM      9  H   UNL     1      -4.455  12.990  11.435  0.00  0.00    +0.159 HD
ENDROOT
BRANCH   1  10
ATOM     10  C   UNL     1      -1.009  14.561  10.575  0.00  0.00    +0.151 C 
BRANCH  10  11
ATOM     11  C   UNL     1       0.150  14.825  11.496  0.00  0.00    -0.028 A 
ATOM     12  C   UNL     1       1.468  14.636  11.054  0.00  0.00    +0.005 A 
ATOM     13  C   UNL     1      -0.062  15.271  12.810  0.00  0.00    +0.005 A 
ATOM     14  C   UNL     1       2.546  14.911  11.899  0.00  0.00    +0.000 A 
ATOM     15  C   UNL     1       1.017  15.543  13.651  0.00  0.00    +0.000 A 
ATOM     16  C   UNL     1       2.321  15.365  13.194  0.00  0.00    +0.000 A 
ENDBRANCH  10  11
ENDBRANCH   1  10
TORSDOF 2
ENDMDL
MODEL 7
REMARK VINA RESULT:    -5.357     25.581     26.552
REMARK INTER + INTRA:          -6.107
REMARK INTER:                  -5.968
REMARK INTRA:                  -0.138
REMARK UNBOUND:                -0.123
REMARK  Name = 1550473
REMARK  2 active torsions:
REMARK  status: ('A' for Active; 'I' for Inactive)
REMARK    1  A    between atoms: N_1  and  C_4
REMARK    2  A    between atoms: C_4  and  C_5
REMARK                            x       y       z     vdW  Elec       q    Type
REMARK                         _______ _______ _______ _____ _____    ______ ____
ROOT
ATOM      1  N   UNL     1       4.087   5.841   5.286  0.00  0.00    -0.354 N 
ATOM      2  N   UNL     1       5.260   4.588   6.841  0.00  0.00    -0.372 N 
ATOM      3  N   UNL     1       6.308   6.358   5.823  0.00  0.00    -0.372 N 
ATOM      4  C   UNL     1       5.213   5.605   5.972  0.00  0.00    +0.166 C 
ATOM      5  H   UNL     1       3.301   5.215   5.421  0.00  0.00    +0.163 HD
ATOM      6  H   UNL     1       6.095   4.389   7.376  0.00  0.00    +0.159 HD
ATOM      7  H   UNL     1       4.458   3.993   7.009  0.00  0.00    +0.159 HD
ATOM      8  H   UNL     1       6.339   7.137   5.179  0.00  0.00    +0.159 HD
ATOM      9  H   UNL     1       7.157   6.167   6.341  0.00  0.00    +0.159 HD
ENDROOT
BRANCH   1  10
ATOM     10  C   UNL     1       3.914   6.955   4.355  0.00  0.00    +0.151 C 
BRANCH  10  11
ATOM     11  C   UNL     1       3.192   6.465   3.130  0.00  0.00    -0.028 A 
ATOM     12  C   UNL     1       3.336   5.137   2.703  0.00  0.00    +0.005 A 
ATOM     13  C   UNL     1       2.359   7.322   2.396  0.00  0.00    +0.005 A 
ATOM     14  C   UNL     1       2.642   4.673   1.583  0.00  0.00    +0.000 A 
ATOM     15  C   UNL     1       1.668   6.855   1.277  0.00  0.00    +0.000 A 
ATOM     16  C   UNL     1       1.808   5.530   0.873  0.00  0.00    +0.000 A 
ENDBRANCH  10  11
ENDBRANCH   1  10
TORSDOF 2
ENDMDL
MODEL 8
REMARK VINA RESULT:    -5.278     36.600     37.344
REMARK INTER + INTRA:          -6.018
REMARK INTER:                  -5.921
REMARK INTRA:                  -0.096
REMARK UNBOUND:                -0.123
REMARK  Name = 1550473
REMARK  2 active torsions:
REMARK  status: ('A' for Active; 'I' for Inactive)
REMARK    1  A    between atoms: N_1  and  C_4
REMARK    2  A    between atoms: C_4  and  C_5
REMARK                            x       y       z     vdW  Elec       q    Type
REMARK                         _______ _______ _______ _____ _____    ______ ____
ROOT
ATOM      1  N   UNL     1      -0.033  16.085  12.169  0.00  0.00    -0.354 N 
ATOM      2  N   UNL     1      -1.654  16.263  10.524  0.00  0.00    -0.372 N 
ATOM      3  N   UNL     1      -1.360  14.246  11.578  0.00  0.00    -0.372 N 
ATOM      4  C   UNL     1      -1.005  15.527  11.435  0.00  0.00    +0.166 C 
ATOM      5  H   UNL     1       0.209  17.053  11.992  0.00  0.00    +0.163 HD
ATOM      6  H   UNL     1      -2.394  15.871   9.958  0.00  0.00    +0.159 HD
ATOM      7  H   UNL     1      -1.441  17.243  10.381  0.00  0.00    +0.159 HD
ATOM      8  H   UNL     1      -0.905  13.635  12.244  0.00  0.00    +0.159 HD
ATOM      9  H   UNL     1      -2.090  13.832  11.012  0.00  0.00    +0.159 HD
ENDROOT
BRANCH   1  10
ATOM     10  C   UNL     1       0.698  15.385  13.224  0.00  0.00    +0.151 C 
BRANCH  10  11
ATOM     11  C   UNL     1       2.138  15.245  12.814  0.00  0.00    -0.028 A 
ATOM     12  C   UNL     1       2.499  15.282  11.459  0.00  0.00    +0.005 A 
ATOM     13  C   UNL     1       3.147  15.080  13.776  0.00  0.00    +0.005 A 
ATOM     14  C   UNL     1       3.840  15.182  11.080  0.00  0.00    +0.000 A 
ATOM     15  C   UNL     1       4.484  14.980  13.393  0.00  0.00    +0.000 A 
ATOM     16  C   UNL     1       4.830  15.033  12.045  0.00  0.00    +0.000 A 
ENDBRANCH  10  11
ENDBRANCH   1  10
TORSDOF 2
ENDMDL
MODEL 9
REMARK VINA RESULT:    -5.254     18.628     19.118
REMARK INTER + INTRA:          -5.991
REMARK INTER:                  -5.833
REMARK INTRA:                  -0.158
REMARK UNBOUND:                -0.123
REMARK  Name = 1550473
REMARK  2 active torsions:
REMARK  status: ('A' for Active; 'I' for Inactive)
REMARK    1  A    between atoms: N_1  and  C_4
REMARK    2  A    between atoms: C_4  and  C_5
REMARK                            x       y       z     vdW  Elec       q    Type
REMARK                         _______ _______ _______ _____ _____    ______ ____
ROOT
ATOM      1  N   UNL     1       7.913  10.377 -10.671  0.00  0.00    -0.354 N 
ATOM      2  N   UNL     1       5.628  10.015 -10.548  0.00  0.00    -0.372 N 
ATOM      3  N   UNL     1       6.390  12.068 -11.234  0.00  0.00    -0.372 N 
ATOM      4  C   UNL     1       6.659  10.825 -10.819  0.00  0.00    +0.166 C 
ATOM      5  H   UNL     1       8.049   9.435 -10.323  0.00  0.00    +0.163 HD
ATOM      6  H   UNL     1       4.671  10.324 -10.655  0.00  0.00    +0.159 HD
ATOM      7  H   UNL     1       5.768   9.059 -10.246  0.00  0.00    +0.159 HD
ATOM      8  H   UNL     1       7.123  12.730 -11.449  0.00  0.00    +0.159 HD
ATOM      9  H   UNL     1       5.439  12.399 -11.335  0.00  0.00    +0.159 HD
ENDROOT
BRANCH   1  10
ATOM     10  C   UNL     1       9.104  11.162 -10.990  0.00  0.00    +0.151 C 
BRANCH  10  11
ATOM     11  C   UNL     1       9.856  10.483 -12.101  0.00  0.00    -0.028 A 
ATOM     12  C   UNL     1      10.943   9.643 -11.816  0.00  0.00    +0.005 A 
ATOM     13  C   UNL     1       9.483  10.670 -13.441  0.00  0.00    +0.005 A 
ATOM     14  C   UNL     1      11.623   8.988 -12.846  0.00  0.00    +0.000 A 
ATOM     15  C   UNL     1      10.165  10.015 -14.466  0.00  0.00    +0.000 A 
ATOM     16  C   UNL     1      11.233   9.172 -14.168  0.00  0.00    +0.000 A 
ENDBRANCH  10  11
ENDBRANCH   1  10
TORSDOF 2
ENDMDL
