MODEL 1
REMARK VINA RESULT:    -4.024      0.000      0.000
REMARK INTER + INTRA:          -4.596
REMARK INTER:                  -4.494
REMARK INTRA:                  -0.101
REMARK UNBOUND:                -0.101
REMARK  Name = 1550473
REMARK  2 active torsions:
REMARK  status: ('A' for Active; 'I' for Inactive)
REMARK    1  A    between atoms: N_1  and  C_4
REMARK    2  A    between atoms: C_4  and  C_5
REMARK                            x       y       z     vdW  Elec       q    Type
REMARK                         _______ _______ _______ _____ _____    ______ ____
ROOT
ATOM      1  N   UNL     1     -16.882 -26.561 -27.278  0.00  0.00    -0.354 N 
ATOM      2  N   UNL     1     -16.936 -25.200 -29.151  0.00  0.00    -0.372 N 
ATOM      3  N   UNL     1     -17.931 -24.466 -27.218  0.00  0.00    -0.372 N 
ATOM      4  C   UNL     1     -17.251 -25.417 -27.868  0.00  0.00    +0.166 C 
ATOM      5  H   UNL     1     -16.395 -27.254 -27.834  0.00  0.00    +0.163 HD
ATOM      6  H   UNL     1     -17.197 -24.345 -29.622  0.00  0.00    +0.159 HD
ATOM      7  H   UNL     1     -16.408 -25.875 -29.691  0.00  0.00    +0.159 HD
ATOM      8  H   UNL     1     -18.205 -24.571 -26.250  0.00  0.00    +0.159 HD
ATOM      9  H   UNL     1     -18.212 -23.608 -27.676  0.00  0.00    +0.159 HD
ENDROOT
BRANCH   1  10
ATOM     10  C   UNL     1     -17.129 -26.872 -25.871  0.00  0.00    +0.151 C 
BRANCH  10  11
ATOM     11  C   UNL     1     -17.092 -28.363 -25.683  0.00  0.00    -0.028 A 
ATOM     12  C   UNL     1     -18.176 -29.158 -26.084  0.00  0.00    +0.005 A 
ATOM     13  C   UNL     1     -15.973 -28.988 -25.111  0.00  0.00    +0.005 A 
ATOM     14  C   UNL     1     -18.130 -30.547 -25.937  0.00  0.00    +0.000 A 
ATOM     15  C   UNL     1     -15.932 -30.375 -24.966  0.00  0.00    +0.000 A 
ATOM     16  C   UNL     1     -17.009 -31.154 -25.381  0.00  0.00    +0.000 A 
ENDBRANCH  10  11
ENDBRANCH   1  10
TORSDOF 2
ENDMDL
MODEL 2
REMARK VINA RESULT:    -3.990     65.543     66.764
REMARK INTER + INTRA:          -4.558
REMARK INTER:                  -4.462
REMARK INTRA:                  -0.096
REMARK UNBOUND:                -0.101
REMARK  Name = 1550473
REMARK  2 active torsions:
REMARK  status: ('A' for Active; 'I' for Inactive)
REMARK    1  A    between atoms: N_1  and  C_4
REMARK    2  A    between atoms: C_4  and  C_5
REMARK                            x       y       z     vdW  Elec       q    Type
REMARK                         _______ _______ _______ _____ _____    ______ ____
ROOT
ATOM      1  N   UNL     1      10.403  18.605  10.613  0.00  0.00    -0.354 N 
ATOM      2  N   UNL     1       8.266  18.965   9.798  0.00  0.00    -0.372 N 
ATOM      3  N   UNL     1       9.899  18.252   8.352  0.00  0.00    -0.372 N 
ATOM      4  C   UNL     1       9.538  18.604   9.590  0.00  0.00    +0.166 C 
ATOM      5  H   UNL     1      10.075  18.911  11.521  0.00  0.00    +0.163 HD
ATOM      6  H   UNL     1       7.589  18.971   9.046  0.00  0.00    +0.159 HD
ATOM      7  H   UNL     1       7.929  19.227  10.716  0.00  0.00    +0.159 HD
ATOM      8  H   UNL     1      10.845  17.975   8.128  0.00  0.00    +0.159 HD
ATOM      9  H   UNL     1       9.239  18.263   7.584  0.00  0.00    +0.159 HD
ENDROOT
BRANCH   1  10
ATOM     10  C   UNL     1      11.797  18.178  10.504  0.00  0.00    +0.151 C 
BRANCH  10  11
ATOM     11  C   UNL     1      12.521  18.535  11.773  0.00  0.00    -0.028 A 
ATOM     12  C   UNL     1      12.882  17.539  12.692  0.00  0.00    +0.005 A 
ATOM     13  C   UNL     1      12.852  19.869  12.061  0.00  0.00    +0.005 A 
ATOM     14  C   UNL     1      13.581  17.867  13.856  0.00  0.00    +0.000 A 
ATOM     15  C   UNL     1      13.549  20.192  13.225  0.00  0.00    +0.000 A 
ATOM     16  C   UNL     1      13.915  19.191  14.121  0.00  0.00    +0.000 A 
ENDBRANCH  10  11
ENDBRANCH   1  10
TORSDOF 2
ENDMDL
MODEL 3
REMARK VINA RESULT:    -3.826     93.625     94.748
REMARK INTER + INTRA:          -4.374
REMARK INTER:                  -4.218
REMARK INTRA:                  -0.156
REMARK UNBOUND:                -0.101
REMARK  Name = 1550473
REMARK  2 active torsions:
REMARK  status: ('A' for Active; 'I' for Inactive)
REMARK    1  A    between atoms: N_1  and  C_4
REMARK    2  A    between atoms: C_4  and  C_5
REMARK                            x       y       z     vdW  Elec       q    Type
REMARK                         _______ _______ _______ _____ _____    ______ ____
ROOT
ATOM      1  N   UNL     1      16.344  28.633  39.632  0.00  0.00    -0.354 N 
ATOM      2  N   UNL     1      18.270  27.515  38.994  0.00  0.00    -0.372 N 
ATOM      3  N   UNL     1      16.900  26.558  40.567  0.00  0.00    -0.372 N 
ATOM      4  C   UNL     1      17.158  27.574  39.737  0.00  0.00    +0.166 C 
ATOM      5  H   UNL     1      16.611  29.385  39.007  0.00  0.00    +0.163 HD
ATOM      6  H   UNL     1      18.901  26.727  39.050  0.00  0.00    +0.159 HD
ATOM      7  H   UNL     1      18.511  28.246  38.337  0.00  0.00    +0.159 HD
ATOM      8  H   UNL     1      16.081  26.544  41.159  0.00  0.00    +0.159 HD
ATOM      9  H   UNL     1      17.526  25.766  40.645  0.00  0.00    +0.159 HD
ENDROOT
BRANCH   1  10
ATOM     10  C   UNL     1      15.082  28.770  40.356  0.00  0.00    +0.151 C 
BRANCH  10  11
ATOM     11  C   UNL     1      15.160  29.971  41.257  0.00  0.00    -0.028 A 
ATOM     12  C   UNL     1      15.603  29.840  42.581  0.00  0.00    +0.005 A 
ATOM     13  C   UNL     1      14.798  31.244  40.791  0.00  0.00    +0.005 A 
ATOM     14  C   UNL     1      15.705  30.960  43.410  0.00  0.00    +0.000 A 
ATOM     15  C   UNL     1      14.900  32.360  41.622  0.00  0.00    +0.000 A 
ATOM     16  C   UNL     1      15.356  32.218  42.930  0.00  0.00    +0.000 A 
ENDBRANCH  10  11
ENDBRANCH   1  10
TORSDOF 2
ENDMDL
MODEL 4
REMARK VINA RESULT:    -3.714     89.908     90.978
REMARK INTER + INTRA:          -4.249
REMARK INTER:                  -4.110
REMARK INTRA:                  -0.139
REMARK UNBOUND:                -0.101
REMARK  Name = 1550473
REMARK  2 active torsions:
REMARK  status: ('A' for Active; 'I' for Inactive)
REMARK    1  A    between atoms: N_1  and  C_4
REMARK    2  A    between atoms: C_4  and  C_5
REMARK                            x       y       z     vdW  Elec       q    Type
REMARK                         _______ _______ _______ _____ _____    ______ ____
ROOT
ATOM      1  N   UNL     1      18.619  25.358  36.873  0.00  0.00    -0.354 N 
ATOM      2  N   UNL     1      18.934  24.114  34.946  0.00  0.00    -0.372 N 
ATOM      3  N   UNL     1      19.813  26.230  35.055  0.00  0.00    -0.372 N 
ATOM      4  C   UNL     1      19.121  25.245  35.637  0.00  0.00    +0.166 C 
ATOM      5  H   UNL     1      18.078  24.586  37.246  0.00  0.00    +0.163 HD
ATOM      6  H   UNL     1      19.304  23.998  34.012  0.00  0.00    +0.159 HD
ATOM      7  H   UNL     1      18.432  23.326  35.338  0.00  0.00    +0.159 HD
ATOM      8  H   UNL     1      19.984  27.111  35.521  0.00  0.00    +0.159 HD
ATOM      9  H   UNL     1      20.181  26.138  34.117  0.00  0.00    +0.159 HD
ENDROOT
BRANCH   1  10
ATOM     10  C   UNL     1      18.812  26.526  37.731  0.00  0.00    +0.151 C 
BRANCH  10  11
ATOM     11  C   UNL     1      17.516  26.848  38.421  0.00  0.00    -0.028 A 
ATOM     12  C   UNL     1      16.364  26.091  38.164  0.00  0.00    +0.005 A 
ATOM     13  C   UNL     1      17.435  27.907  39.339  0.00  0.00    +0.005 A 
ATOM     14  C   UNL     1      15.168  26.371  38.828  0.00  0.00    +0.000 A 
ATOM     15  C   UNL     1      16.238  28.184  40.000  0.00  0.00    +0.000 A 
ATOM     16  C   UNL     1      15.105  27.414  39.745  0.00  0.00    +0.000 A 
ENDBRANCH  10  11
ENDBRANCH   1  10
TORSDOF 2
ENDMDL
MODEL 5
REMARK VINA RESULT:    -3.707     24.482     26.041
REMARK INTER + INTRA:          -4.242
REMARK INTER:                  -4.102
REMARK INTRA:                  -0.140
REMARK UNBOUND:                -0.101
REMARK  Name = 1550473
REMARK  2 active torsions:
REMARK  status: ('A' for Active; 'I' for Inactive)
REMARK    1  A    between atoms: N_1  and  C_4
REMARK    2  A    between atoms: C_4  and  C_5
REMARK                            x       y       z     vdW  Elec       q    Type
REMARK                         _______ _______ _______ _____ _____    ______ ____
ROOT
ATOM      1  N   UNL     1      -7.306  -5.839 -13.673  0.00  0.00    -0.354 N 
ATOM      2  N   UNL     1      -6.084  -5.449 -11.745  0.00  0.00    -0.372 N 
ATOM      3  N   UNL     1      -7.886  -6.865 -11.648  0.00  0.00    -0.372 N 
ATOM      4  C   UNL     1      -7.102  -6.055 -12.367  0.00  0.00    +0.166 C 
ATOM      5  H   UNL     1      -6.694  -5.190 -14.155  0.00  0.00    +0.163 HD
ATOM      6  H   UNL     1      -5.903  -5.595 -10.761  0.00  0.00    +0.159 HD
ATOM      7  H   UNL     1      -5.446  -4.836 -12.239  0.00  0.00    +0.159 HD
ATOM      8  H   UNL     1      -8.675  -7.348 -12.057  0.00  0.00    +0.159 HD
ATOM      9  H   UNL     1      -7.729  -7.016 -10.659  0.00  0.00    +0.159 HD
ENDROOT
BRANCH   1  10
ATOM     10  C   UNL     1      -8.353  -6.492 -14.456  0.00  0.00    +0.151 C 
BRANCH  10  11
ATOM     11  C   UNL     1      -7.725  -7.187 -15.633  0.00  0.00    -0.028 A 
ATOM     12  C   UNL     1      -8.306  -8.346 -16.168  0.00  0.00    +0.005 A 
ATOM     13  C   UNL     1      -6.552  -6.689 -16.221  0.00  0.00    +0.005 A 
ATOM     14  C   UNL     1      -7.740  -8.975 -17.279  0.00  0.00    +0.000 A 
ATOM     15  C   UNL     1      -5.990  -7.320 -17.330  0.00  0.00    +0.000 A 
ATOM     16  C   UNL     1      -6.586  -8.462 -17.860  0.00  0.00    +0.000 A 
ENDBRANCH  10  11
ENDBRANCH   1  10
TORSDOF 2
ENDMDL
MODEL 6
REMARK VINA RESULT:    -3.642     90.486     91.568
REMARK INTER + INTRA:          -4.170
REMARK INTER:                  -4.034
REMARK INTRA:                  -0.136
REMARK UNBOUND:                -0.101
REMARK  Name = 1550473
REMARK  2 active torsions:
REMARK  status: ('A' for Active; 'I' for Inactive)
REMARK    1  A    between atoms: N_1  and  C_4
REMARK    2  A    between atoms: C_4  and  C_5
REMARK                            x       y       z     vdW  Elec       q    Type
REMARK                         _______ _______ _______ _____ _____    ______ ____
ROOT
ATOM      1  N   UNL     1      16.211  27.304  39.566  0.00  0.00    -0.354 N 
ATOM      2  N   UNL     1      14.044  27.837  40.188  0.00  0.00    -0.372 N 
ATOM      3  N   UNL     1      15.623  29.501  40.131  0.00  0.00    -0.372 N 
ATOM      4  C   UNL     1      15.308  28.213  39.958  0.00  0.00    +0.166 C 
ATOM      5  H   UNL     1      15.916  26.337  39.483  0.00  0.00    +0.163 HD
ATOM      6  H   UNL     1      13.340  28.501  40.481  0.00  0.00    +0.159 HD
ATOM      7  H   UNL     1      13.741  26.879  40.059  0.00  0.00    +0.159 HD
ATOM      8  H   UNL     1      16.560  29.848  39.980  0.00  0.00    +0.159 HD
ATOM      9  H   UNL     1      14.935  30.178  40.435  0.00  0.00    +0.159 HD
ENDROOT
BRANCH   1  10
ATOM     10  C   UNL     1      17.600  27.619  39.238  0.00  0.00    +0.151 C 
BRANCH  10  11
ATOM     11  C   UNL     1      18.015  26.817  38.036  0.00  0.00    -0.028 A 
ATOM     12  C   UNL     1      19.371  26.566  37.782  0.00  0.00    +0.005 A 
ATOM     13  C   UNL     1      17.057  26.301  37.150  0.00  0.00    +0.005 A 
ATOM     14  C   UNL     1      19.756  25.796  36.682  0.00  0.00    +0.000 A 
ATOM     15  C   UNL     1      17.445  25.533  36.053  0.00  0.00    +0.000 A 
ATOM     16  C   UNL     1      18.795  25.278  35.820  0.00  0.00    +0.000 A 
ENDBRANCH  10  11
ENDBRANCH   1  10
TORSDOF 2
ENDMDL
MODEL 7
REMARK VINA RESULT:    -3.629     79.186     80.452
REMARK INTER + INTRA:          -4.154
REMARK INTER:                  -4.024
REMARK INTRA:                  -0.131
REMARK UNBOUND:                -0.101
REMARK  Name = 1550473
REMARK  2 active torsions:
REMARK  status: ('A' for Active; 'I' for Inactive)
REMARK    1  A    between atoms: N_1  and  C_4
REMARK    2  A    between atoms: C_4  and  C_5
REMARK                            x       y       z     vdW  Elec       q    Type
REMARK                         _______ _______ _______ _____ _____    ______ ____
ROOT
ATOM      1  N   UNL     1      10.814  30.025  24.491  0.00  0.00    -0.354 N 
ATOM      2  N   UNL     1      11.564  29.910  26.679  0.00  0.00    -0.372 N 
ATOM      3  N   UNL     1       9.321  29.669  26.261  0.00  0.00    -0.372 N 
ATOM      4  C   UNL     1      10.558  29.868  25.796  0.00  0.00    +0.166 C 
ATOM      5  H   UNL     1      11.770  30.203  24.205  0.00  0.00    +0.163 HD
ATOM      6  H   UNL     1      11.402  29.791  27.670  0.00  0.00    +0.159 HD
ATOM      7  H   UNL     1      12.524  30.042  26.386  0.00  0.00    +0.159 HD
ATOM      8  H   UNL     1       8.517  29.633  25.648  0.00  0.00    +0.159 HD
ATOM      9  H   UNL     1       9.137  29.560  27.251  0.00  0.00    +0.159 HD
ENDROOT
BRANCH   1  10
ATOM     10  C   UNL     1       9.798  29.943  23.443  0.00  0.00    +0.151 C 
BRANCH  10  11
ATOM     11  C   UNL     1      10.274  29.005  22.369  0.00  0.00    -0.028 A 
ATOM     12  C   UNL     1      11.627  28.970  22.002  0.00  0.00    +0.005 A 
ATOM     13  C   UNL     1       9.378  28.143  21.718  0.00  0.00    +0.005 A 
ATOM     14  C   UNL     1      12.075  28.078  21.025  0.00  0.00    +0.000 A 
ATOM     15  C   UNL     1       9.829  27.254  20.742  0.00  0.00    +0.000 A 
ATOM     16  C   UNL     1      11.178  27.220  20.398  0.00  0.00    +0.000 A 
ENDBRANCH  10  11
ENDBRANCH   1  10
TORSDOF 2
ENDMDL
MODEL 8
REMARK VINA RESULT:    -3.506     90.473     91.548
REMARK INTER + INTRA:          -4.017
REMARK INTER:                  -3.915
REMARK INTRA:                  -0.102
REMARK UNBOUND:                -0.101
REMARK  Name = 1550473
REMARK  2 active torsions:
REMARK  status: ('A' for Active; 'I' for Inactive)
REMARK    1  A    between atoms: N_1  and  C_4
REMARK    2  A    between atoms: C_4  and  C_5
REMARK                            x       y       z     vdW  Elec       q    Type
REMARK                         _______ _______ _______ _____ _____    ______ ____
ROOT
ATOM      1  N   UNL     1      20.130  26.019  37.671  0.00  0.00    -0.354 N 
ATOM      2  N   UNL     1      22.277  25.197  37.951  0.00  0.00    -0.372 N 
ATOM      3  N   UNL     1      21.322  25.119  35.866  0.00  0.00    -0.372 N 
ATOM      4  C   UNL     1      21.228  25.450  37.158  0.00  0.00    +0.166 C 
ATOM      5  H   UNL     1      20.110  26.218  38.665  0.00  0.00    +0.163 HD
ATOM      6  H   UNL     1      23.121  24.771  37.591  0.00  0.00    +0.159 HD
ATOM      7  H   UNL     1      22.272  25.439  38.934  0.00  0.00    +0.159 HD
ATOM      8  H   UNL     1      20.564  25.278  35.216  0.00  0.00    +0.159 HD
ATOM      9  H   UNL     1      22.154  24.681  35.490  0.00  0.00    +0.159 HD
ENDROOT
BRANCH   1  10
ATOM     10  C   UNL     1      18.954  26.385  36.883  0.00  0.00    +0.151 C 
BRANCH  10  11
ATOM     11  C   UNL     1      17.807  26.665  37.813  0.00  0.00    -0.028 A 
ATOM     12  C   UNL     1      17.949  27.584  38.863  0.00  0.00    +0.005 A 
ATOM     13  C   UNL     1      16.572  26.019  37.647  0.00  0.00    +0.005 A 
ATOM     14  C   UNL     1      16.874  27.867  39.709  0.00  0.00    +0.000 A 
ATOM     15  C   UNL     1      15.502  26.303  38.495  0.00  0.00    +0.000 A 
ATOM     16  C   UNL     1      15.652  27.229  39.524  0.00  0.00    +0.000 A 
ENDBRANCH  10  11
ENDBRANCH   1  10
TORSDOF 2
ENDMDL
MODEL 9
REMARK VINA RESULT:    -3.293     63.260     64.481
REMARK INTER + INTRA:          -3.780
REMARK INTER:                  -3.666
REMARK INTRA:                  -0.114
REMARK UNBOUND:                -0.101
REMARK  Name = 1550473
REMARK  2 active torsions:
REMARK  status: ('A' for Active; 'I' for Inactive)
REMARK    1  A    between atoms: N_1  and  C_4
REMARK    2  A    between atoms: C_4  and  C_5
REMARK                            x       y       z     vdW  Elec       q    Type
REMARK                         _______ _______ _______ _____ _____    ______ ____
ROOT
ATOM      1  N   UNL     1      13.668  14.100  10.400  0.00  0.00    -0.354 N 
ATOM      2  N   UNL     1      13.285  11.827  10.631  0.00  0.00    -0.372 N 
ATOM      3  N   UNL     1      13.832  12.655   8.562  0.00  0.00    -0.372 N 
ATOM      4  C   UNL     1      13.598  12.876   9.860  0.00  0.00    +0.166 C 
ATOM      5  H   UNL     1      13.449  14.205  11.384  0.00  0.00    +0.163 HD
ATOM      6  H   UNL     1      13.228  10.891  10.252  0.00  0.00    +0.159 HD
ATOM      7  H   UNL     1      13.112  11.929  11.623  0.00  0.00    +0.159 HD
ATOM      8  H   UNL     1      14.067  13.405   7.925  0.00  0.00    +0.159 HD
ATOM      9  H   UNL     1      13.769  11.727   8.162  0.00  0.00    +0.159 HD
ENDROOT
BRANCH   1  10
ATOM     10  C   UNL     1      14.052  15.300   9.659  0.00  0.00    +0.151 C 
BRANCH  10  11
ATOM     11  C   UNL     1      13.148  16.434  10.057  0.00  0.00    -0.028 A 
ATOM     12  C   UNL     1      12.422  17.139   9.087  0.00  0.00    +0.005 A 
ATOM     13  C   UNL     1      13.010  16.804  11.403  0.00  0.00    +0.005 A 
ATOM     14  C   UNL     1      11.559  18.173   9.459  0.00  0.00    +0.000 A 
ATOM     15  C   UNL     1      12.149  17.837  11.771  0.00  0.00    +0.000 A 
ATOM     16  C   UNL     1      11.421  18.520  10.799  0.00  0.00    +0.000 A 
ENDBRANCH  10  11
ENDBRANCH   1  10
TORSDOF 2
ENDMDL
