MODEL 1
REMARK VINA RESULT:    -5.001      0.000      0.000
REMARK INTER + INTRA:          -5.726
REMARK INTER:                  -5.586
REMARK INTRA:                  -0.140
REMARK UNBOUND:                -0.140
REMARK  Name = 1550473
REMARK  2 active torsions:
REMARK  status: ('A' for Active; 'I' for Inactive)
REMARK    1  A    between atoms: N_1  and  C_4
REMARK    2  A    between atoms: C_4  and  C_5
REMARK                            x       y       z     vdW  Elec       q    Type
REMARK                         _______ _______ _______ _____ _____    ______ ____
ROOT
ATOM      1  N   UNL     1       3.067  -1.757  17.330  0.00  0.00    -0.354 N 
ATOM      2  N   UNL     1       1.481  -2.554  15.842  0.00  0.00    -0.372 N 
ATOM      3  N   UNL     1       1.130  -0.526  16.857  0.00  0.00    -0.372 N 
ATOM      4  C   UNL     1       1.902  -1.605  16.687  0.00  0.00    +0.166 C 
ATOM      5  H   UNL     1       3.591  -2.612  17.181  0.00  0.00    +0.163 HD
ATOM      6  H   UNL     1       0.608  -2.465  15.341  0.00  0.00    +0.159 HD
ATOM      7  H   UNL     1       2.029  -3.386  15.660  0.00  0.00    +0.159 HD
ATOM      8  H   UNL     1       1.389   0.223  17.485  0.00  0.00    +0.159 HD
ATOM      9  H   UNL     1       0.247  -0.424  16.373  0.00  0.00    +0.159 HD
ENDROOT
BRANCH   1  10
ATOM     10  C   UNL     1       3.642  -0.759  18.230  0.00  0.00    +0.151 C 
BRANCH  10  11
ATOM     11  C   UNL     1       5.105  -0.603  17.921  0.00  0.00    -0.028 A 
ATOM     12  C   UNL     1       5.712  -1.390  16.931  0.00  0.00    +0.005 A 
ATOM     13  C   UNL     1       5.890   0.334  18.611  0.00  0.00    +0.005 A 
ATOM     14  C   UNL     1       7.064  -1.224  16.623  0.00  0.00    +0.000 A 
ATOM     15  C   UNL     1       7.240   0.495  18.301  0.00  0.00    +0.000 A 
ATOM     16  C   UNL     1       7.826  -0.282  17.305  0.00  0.00    +0.000 A 
ENDBRANCH  10  11
ENDBRANCH   1  10
TORSDOF 2
ENDMDL
MODEL 2
REMARK VINA RESULT:    -4.870     23.092     24.302
REMARK INTER + INTRA:          -5.580
REMARK INTER:                  -5.417
REMARK INTRA:                  -0.163
REMARK UNBOUND:                -0.140
REMARK  Name = 1550473
REMARK  2 active torsions:
REMARK  status: ('A' for Active; 'I' for Inactive)
REMARK    1  A    between atoms: N_1  and  C_4
REMARK    2  A    between atoms: C_4  and  C_5
REMARK                            x       y       z     vdW  Elec       q    Type
REMARK                         _______ _______ _______ _____ _____    ______ ____
ROOT
ATOM      1  N   UNL     1      -7.092   0.074  -4.384  0.00  0.00    -0.354 N 
ATOM      2  N   UNL     1      -4.991   0.315  -5.329  0.00  0.00    -0.372 N 
ATOM      3  N   UNL     1      -6.692   1.680  -6.043  0.00  0.00    -0.372 N 
ATOM      4  C   UNL     1      -6.274   0.690  -5.247  0.00  0.00    +0.166 C 
ATOM      5  H   UNL     1      -6.721  -0.690  -3.830  0.00  0.00    +0.163 HD
ATOM      6  H   UNL     1      -4.350   0.764  -5.969  0.00  0.00    +0.159 HD
ATOM      7  H   UNL     1      -4.612  -0.417  -4.742  0.00  0.00    +0.159 HD
ATOM      8  H   UNL     1      -7.650   2.006  -6.034  0.00  0.00    +0.159 HD
ATOM      9  H   UNL     1      -6.068   2.134  -6.698  0.00  0.00    +0.159 HD
ENDROOT
BRANCH   1  10
ATOM     10  C   UNL     1      -8.492   0.442  -4.179  0.00  0.00    +0.151 C 
BRANCH  10  11
ATOM     11  C   UNL     1      -8.664   0.957  -2.777  0.00  0.00    -0.028 A 
ATOM     12  C   UNL     1      -9.192   0.131  -1.774  0.00  0.00    +0.005 A 
ATOM     13  C   UNL     1      -8.295   2.269  -2.443  0.00  0.00    +0.005 A 
ATOM     14  C   UNL     1      -9.324   0.599  -0.465  0.00  0.00    +0.000 A 
ATOM     15  C   UNL     1      -8.430   2.734  -1.134  0.00  0.00    +0.000 A 
ATOM     16  C   UNL     1      -8.942   1.898  -0.145  0.00  0.00    +0.000 A 
ENDBRANCH  10  11
ENDBRANCH   1  10
TORSDOF 2
ENDMDL
MODEL 3
REMARK VINA RESULT:    -4.589      1.059      1.987
REMARK INTER + INTRA:          -5.266
REMARK INTER:                  -5.142
REMARK INTRA:                  -0.123
REMARK UNBOUND:                -0.140
REMARK  Name = 1550473
REMARK  2 active torsions:
REMARK  status: ('A' for Active; 'I' for Inactive)
REMARK    1  A    between atoms: N_1  and  C_4
REMARK    2  A    between atoms: C_4  and  C_5
REMARK                            x       y       z     vdW  Elec       q    Type
REMARK                         _______ _______ _______ _____ _____    ______ ____
ROOT
ATOM      1  N   UNL     1       2.670  -0.921  17.855  0.00  0.00    -0.354 N 
ATOM      2  N   UNL     1       0.508  -0.435  18.529  0.00  0.00    -0.372 N 
ATOM      3  N   UNL     1       0.833  -2.023  16.906  0.00  0.00    -0.372 N 
ATOM      4  C   UNL     1       1.351  -1.131  17.757  0.00  0.00    +0.166 C 
ATOM      5  H   UNL     1       2.998  -0.210  18.498  0.00  0.00    +0.163 HD
ATOM      6  H   UNL     1      -0.492  -0.574  18.480  0.00  0.00    +0.159 HD
ATOM      7  H   UNL     1       0.841   0.243  19.204  0.00  0.00    +0.159 HD
ATOM      8  H   UNL     1       1.414  -2.577  16.291  0.00  0.00    +0.159 HD
ATOM      9  H   UNL     1      -0.167  -2.169  16.833  0.00  0.00    +0.159 HD
ENDROOT
BRANCH   1  10
ATOM     10  C   UNL     1       3.675  -1.665  17.098  0.00  0.00    +0.151 C 
BRANCH  10  11
ATOM     11  C   UNL     1       5.023  -1.038  17.323  0.00  0.00    -0.028 A 
ATOM     12  C   UNL     1       5.188  -0.030  18.284  0.00  0.00    +0.005 A 
ATOM     13  C   UNL     1       6.141  -1.452  16.582  0.00  0.00    +0.005 A 
ATOM     14  C   UNL     1       6.446   0.532  18.514  0.00  0.00    +0.000 A 
ATOM     15  C   UNL     1       7.395  -0.888  16.814  0.00  0.00    +0.000 A 
ATOM     16  C   UNL     1       7.548   0.102  17.782  0.00  0.00    +0.000 A 
ENDBRANCH  10  11
ENDBRANCH   1  10
TORSDOF 2
ENDMDL
MODEL 4
REMARK VINA RESULT:    -4.193      2.614      2.932
REMARK INTER + INTRA:          -4.823
REMARK INTER:                  -4.707
REMARK INTRA:                  -0.117
REMARK UNBOUND:                -0.140
REMARK  Name = 1550473
REMARK  2 active torsions:
REMARK  status: ('A' for Active; 'I' for Inactive)
REMARK    1  A    between atoms: N_1  and  C_4
REMARK    2  A    between atoms: C_4  and  C_5
REMARK                            x       y       z     vdW  Elec       q    Type
REMARK                         _______ _______ _______ _____ _____    ______ ____
ROOT
ATOM      1  N   UNL     1       4.198  -4.268  17.720  0.00  0.00    -0.354 N 
ATOM      2  N   UNL     1       4.107  -6.581  17.793  0.00  0.00    -0.372 N 
ATOM      3  N   UNL     1       2.239  -5.379  18.368  0.00  0.00    -0.372 N 
ATOM      4  C   UNL     1       3.513  -5.394  17.961  0.00  0.00    +0.166 C 
ATOM      5  H   UNL     1       5.170  -4.346  17.442  0.00  0.00    +0.163 HD
ATOM      6  H   UNL     1       3.614  -7.448  17.964  0.00  0.00    +0.159 HD
ATOM      7  H   UNL     1       5.065  -6.657  17.471  0.00  0.00    +0.159 HD
ATOM      8  H   UNL     1       1.735  -4.515  18.519  0.00  0.00    +0.159 HD
ATOM      9  H   UNL     1       1.733  -6.235  18.555  0.00  0.00    +0.159 HD
ENDROOT
BRANCH   1  10
ATOM     10  C   UNL     1       3.628  -2.926  17.820  0.00  0.00    +0.151 C 
BRANCH  10  11
ATOM     11  C   UNL     1       4.720  -1.912  17.622  0.00  0.00    -0.028 A 
ATOM     12  C   UNL     1       5.848  -2.222  16.847  0.00  0.00    +0.005 A 
ATOM     13  C   UNL     1       4.631  -0.637  18.200  0.00  0.00    +0.005 A 
ATOM     14  C   UNL     1       6.848  -1.270  16.637  0.00  0.00    +0.000 A 
ATOM     15  C   UNL     1       5.633   0.311  17.989  0.00  0.00    +0.000 A 
ATOM     16  C   UNL     1       6.740  -0.005  17.206  0.00  0.00    +0.000 A 
ENDBRANCH  10  11
ENDBRANCH   1  10
TORSDOF 2
ENDMDL
MODEL 5
REMARK VINA RESULT:    -4.185      3.991      5.094
REMARK INTER + INTRA:          -4.814
REMARK INTER:                  -4.722
REMARK INTRA:                  -0.092
REMARK UNBOUND:                -0.140
REMARK  Name = 1550473
REMARK  2 active torsions:
REMARK  status: ('A' for Active; 'I' for Inactive)
REMARK    1  A    between atoms: N_1  and  C_4
REMARK    2  A    between atoms: C_4  and  C_5
REMARK                            x       y       z     vdW  Elec       q    Type
REMARK                         _______ _______ _______ _____ _____    ______ ____
ROOT
ATOM      1  N   UNL     1       3.887   3.841  17.974  0.00  0.00    -0.354 N 
ATOM      2  N   UNL     1       3.349   5.843  16.941  0.00  0.00    -0.372 N 
ATOM      3  N   UNL     1       4.209   5.888  19.068  0.00  0.00    -0.372 N 
ATOM      4  C   UNL     1       3.819   5.179  18.003  0.00  0.00    +0.166 C 
ATOM      5  H   UNL     1       3.548   3.360  17.148  0.00  0.00    +0.163 HD
ATOM      6  H   UNL     1       3.289   6.852  16.933  0.00  0.00    +0.159 HD
ATOM      7  H   UNL     1       3.053   5.362  16.100  0.00  0.00    +0.159 HD
ATOM      8  H   UNL     1       4.568   5.447  19.904  0.00  0.00    +0.159 HD
ATOM      9  H   UNL     1       4.145   6.899  19.083  0.00  0.00    +0.159 HD
ENDROOT
BRANCH   1  10
ATOM     10  C   UNL     1       4.434   3.026  19.057  0.00  0.00    +0.151 C 
BRANCH  10  11
ATOM     11  C   UNL     1       4.406   1.580  18.646  0.00  0.00    -0.028 A 
ATOM     12  C   UNL     1       5.579   0.935  18.229  0.00  0.00    +0.005 A 
ATOM     13  C   UNL     1       3.209   0.847  18.677  0.00  0.00    +0.005 A 
ATOM     14  C   UNL     1       5.559  -0.417  17.875  0.00  0.00    +0.000 A 
ATOM     15  C   UNL     1       3.193  -0.502  18.323  0.00  0.00    +0.000 A 
ATOM     16  C   UNL     1       4.369  -1.134  17.924  0.00  0.00    +0.000 A 
ENDBRANCH  10  11
ENDBRANCH   1  10
TORSDOF 2
ENDMDL
MODEL 6
REMARK VINA RESULT:    -4.166     13.529     14.153
REMARK INTER + INTRA:          -4.794
REMARK INTER:                  -4.679
REMARK INTRA:                  -0.114
REMARK UNBOUND:                -0.140
REMARK  Name = 1550473
REMARK  2 active torsions:
REMARK  status: ('A' for Active; 'I' for Inactive)
REMARK    1  A    between atoms: N_1  and  C_4
REMARK    2  A    between atoms: C_4  and  C_5
REMARK                            x       y       z     vdW  Elec       q    Type
REMARK                         _______ _______ _______ _____ _____    ______ ____
ROOT
ATOM      1  N   UNL     1      -0.709   8.360   8.887  0.00  0.00    -0.354 N 
ATOM      2  N   UNL     1      -1.906   6.382   9.024  0.00  0.00    -0.372 N 
ATOM      3  N   UNL     1      -0.255   6.572   7.442  0.00  0.00    -0.372 N 
ATOM      4  C   UNL     1      -0.947   7.117   8.448  0.00  0.00    +0.166 C 
ATOM      5  H   UNL     1      -1.289   8.726   9.633  0.00  0.00    +0.163 HD
ATOM      6  H   UNL     1      -2.106   5.439   8.716  0.00  0.00    +0.159 HD
ATOM      7  H   UNL     1      -2.453   6.733   9.800  0.00  0.00    +0.159 HD
ATOM      8  H   UNL     1       0.477   7.077   6.961  0.00  0.00    +0.159 HD
ATOM      9  H   UNL     1      -0.448   5.635   7.112  0.00  0.00    +0.159 HD
ENDROOT
BRANCH   1  10
ATOM     10  C   UNL     1       0.347   9.224   8.364  0.00  0.00    +0.151 C 
BRANCH  10  11
ATOM     11  C   UNL     1       0.596  10.341   9.339  0.00  0.00    -0.028 A 
ATOM     12  C   UNL     1      -0.461  10.887  10.081  0.00  0.00    +0.005 A 
ATOM     13  C   UNL     1       1.888  10.855   9.529  0.00  0.00    +0.005 A 
ATOM     14  C   UNL     1      -0.226  11.905  11.009  0.00  0.00    +0.000 A 
ATOM     15  C   UNL     1       2.119  11.872  10.455  0.00  0.00    +0.000 A 
ATOM     16  C   UNL     1       1.062  12.395  11.197  0.00  0.00    +0.000 A 
ENDBRANCH  10  11
ENDBRANCH   1  10
TORSDOF 2
ENDMDL
MODEL 7
REMARK VINA RESULT:    -4.141      2.897      3.841
REMARK INTER + INTRA:          -4.765
REMARK INTER:                  -4.622
REMARK INTRA:                  -0.143
REMARK UNBOUND:                -0.140
REMARK  Name = 1550473
REMARK  2 active torsions:
REMARK  status: ('A' for Active; 'I' for Inactive)
REMARK    1  A    between atoms: N_1  and  C_4
REMARK    2  A    between atoms: C_4  and  C_5
REMARK                            x       y       z     vdW  Elec       q    Type
REMARK                         _______ _______ _______ _____ _____    ______ ____
ROOT
ATOM      1  N   UNL     1       4.237   1.850  19.519  0.00  0.00    -0.354 N 
ATOM      2  N   UNL     1       2.291   3.104  19.442  0.00  0.00    -0.372 N 
ATOM      3  N   UNL     1       4.153   3.877  18.346  0.00  0.00    -0.372 N 
ATOM      4  C   UNL     1       3.575   2.937  19.101  0.00  0.00    +0.166 C 
ATOM      5  H   UNL     1       3.750   1.189  20.114  0.00  0.00    +0.163 HD
ATOM      6  H   UNL     1       1.765   3.913  19.139  0.00  0.00    +0.159 HD
ATOM      7  H   UNL     1       1.794   2.420  19.999  0.00  0.00    +0.159 HD
ATOM      8  H   UNL     1       5.121   3.813  18.060  0.00  0.00    +0.159 HD
ATOM      9  H   UNL     1       3.647   4.700  18.043  0.00  0.00    +0.159 HD
ENDROOT
BRANCH   1  10
ATOM     10  C   UNL     1       5.621   1.547  19.159  0.00  0.00    +0.151 C 
BRANCH  10  11
ATOM     11  C   UNL     1       5.641   0.348  18.250  0.00  0.00    -0.028 A 
ATOM     12  C   UNL     1       4.512  -0.476  18.135  0.00  0.00    +0.005 A 
ATOM     13  C   UNL     1       6.784   0.036  17.498  0.00  0.00    +0.005 A 
ATOM     14  C   UNL     1       4.520  -1.572  17.268  0.00  0.00    +0.000 A 
ATOM     15  C   UNL     1       6.788  -1.060  16.635  0.00  0.00    +0.000 A 
ATOM     16  C   UNL     1       5.655  -1.862  16.518  0.00  0.00    +0.000 A 
ENDBRANCH  10  11
ENDBRANCH   1  10
TORSDOF 2
ENDMDL
MODEL 8
REMARK VINA RESULT:    -4.050     12.093     15.231
REMARK INTER + INTRA:          -4.663
REMARK INTER:                  -4.539
REMARK INTRA:                  -0.124
REMARK UNBOUND:                -0.140
REMARK  Name = 1550473
REMARK  2 active torsions:
REMARK  status: ('A' for Active; 'I' for Inactive)
REMARK    1  A    between atoms: N_1  and  C_4
REMARK    2  A    between atoms: C_4  and  C_5
REMARK                            x       y       z     vdW  Elec       q    Type
REMARK                         _______ _______ _______ _____ _____    ______ ____
ROOT
ATOM      1  N   UNL     1      -4.767  -4.094   9.043  0.00  0.00    -0.354 N 
ATOM      2  N   UNL     1      -3.529  -3.366  10.860  0.00  0.00    -0.372 N 
ATOM      3  N   UNL     1      -2.514  -4.690   9.285  0.00  0.00    -0.372 N 
ATOM      4  C   UNL     1      -3.609  -4.057   9.717  0.00  0.00    +0.166 C 
ATOM      5  H   UNL     1      -5.570  -3.618   9.439  0.00  0.00    +0.163 HD
ATOM      6  H   UNL     1      -2.668  -3.316  11.388  0.00  0.00    +0.159 HD
ATOM      7  H   UNL     1      -4.320  -2.853  11.230  0.00  0.00    +0.159 HD
ATOM      8  H   UNL     1      -2.510  -5.233   8.432  0.00  0.00    +0.159 HD
ATOM      9  H   UNL     1      -1.646  -4.662   9.806  0.00  0.00    +0.159 HD
ENDROOT
BRANCH   1  10
ATOM     10  C   UNL     1      -4.946  -4.773   7.761  0.00  0.00    +0.151 C 
BRANCH  10  11
ATOM     11  C   UNL     1      -6.254  -4.345   7.157  0.00  0.00    -0.028 A 
ATOM     12  C   UNL     1      -6.649  -4.825   5.899  0.00  0.00    +0.005 A 
ATOM     13  C   UNL     1      -7.107  -3.463   7.839  0.00  0.00    +0.005 A 
ATOM     14  C   UNL     1      -7.878  -4.451   5.351  0.00  0.00    +0.000 A 
ATOM     15  C   UNL     1      -8.333  -3.091   7.287  0.00  0.00    +0.000 A 
ATOM     16  C   UNL     1      -8.719  -3.587   6.044  0.00  0.00    +0.000 A 
ENDBRANCH  10  11
ENDBRANCH   1  10
TORSDOF 2
ENDMDL
MODEL 9
REMARK VINA RESULT:    -4.016     25.352     26.683
REMARK INTER + INTRA:          -4.625
REMARK INTER:                  -4.449
REMARK INTRA:                  -0.176
REMARK UNBOUND:                -0.140
REMARK  Name = 1550473
REMARK  2 active torsions:
REMARK  status: ('A' for Active; 'I' for Inactive)
REMARK    1  A    between atoms: N_1  and  C_4
REMARK    2  A    between atoms: C_4  and  C_5
REMARK                            x       y       z     vdW  Elec       q    Type
REMARK                         _______ _______ _______ _____ _____    ______ ____
ROOT
ATOM      1  N   UNL     1      -8.119   4.166  -5.235  0.00  0.00    -0.354 N 
ATOM      2  N   UNL     1      -8.418   5.999  -6.619  0.00  0.00    -0.372 N 
ATOM      3  N   UNL     1     -10.120   4.473  -6.415  0.00  0.00    -0.372 N 
ATOM      4  C   UNL     1      -8.886   4.866  -6.081  0.00  0.00    +0.166 C 
ATOM      5  H   UNL     1      -7.181   4.501  -5.045  0.00  0.00    +0.163 HD
ATOM      6  H   UNL     1      -8.975   6.550  -7.258  0.00  0.00    +0.159 HD
ATOM      7  H   UNL     1      -7.498   6.356  -6.392  0.00  0.00    +0.159 HD
ATOM      8  H   UNL     1     -10.529   3.624  -6.049  0.00  0.00    +0.159 HD
ATOM      9  H   UNL     1     -10.688   5.005  -7.062  0.00  0.00    +0.159 HD
ENDROOT
BRANCH   1  10
ATOM     10  C   UNL     1      -8.554   2.948  -4.553  0.00  0.00    +0.151 C 
BRANCH  10  11
ATOM     11  C   UNL     1      -7.879   1.763  -5.187  0.00  0.00    -0.028 A 
ATOM     12  C   UNL     1      -8.456   1.122  -6.293  0.00  0.00    +0.005 A 
ATOM     13  C   UNL     1      -6.659   1.280  -4.690  0.00  0.00    +0.005 A 
ATOM     14  C   UNL     1      -7.814   0.040  -6.901  0.00  0.00    +0.000 A 
ATOM     15  C   UNL     1      -6.022   0.199  -5.299  0.00  0.00    +0.000 A 
ATOM     16  C   UNL     1      -6.599  -0.419  -6.405  0.00  0.00    +0.000 A 
ENDBRANCH  10  11
ENDBRANCH   1  10
TORSDOF 2
ENDMDL
