MODEL 1
REMARK VINA RESULT:    -5.885      0.000      0.000
REMARK INTER + INTRA:          -6.750
REMARK INTER:                  -6.574
REMARK INTRA:                  -0.176
REMARK UNBOUND:                -0.176
REMARK  Name = 1550473
REMARK  2 active torsions:
REMARK  status: ('A' for Active; 'I' for Inactive)
REMARK    1  A    between atoms: N_1  and  C_4
REMARK    2  A    between atoms: C_4  and  C_5
REMARK                            x       y       z     vdW  Elec       q    Type
REMARK                         _______ _______ _______ _____ _____    ______ ____
ROOT
ATOM      1  N   UNL     1       0.798   4.878 -14.414  0.00  0.00    -0.354 N 
ATOM      2  N   UNL     1       0.875   7.180 -14.659  0.00  0.00    -0.372 N 
ATOM      3  N   UNL     1      -0.150   5.925 -16.284  0.00  0.00    -0.372 N 
ATOM      4  C   UNL     1       0.506   5.979 -15.120  0.00  0.00    +0.166 C 
ATOM      5  H   UNL     1       1.324   4.983 -13.554  0.00  0.00    +0.163 HD
ATOM      6  H   UNL     1       0.665   8.028 -15.167  0.00  0.00    +0.159 HD
ATOM      7  H   UNL     1       1.360   7.286 -13.776  0.00  0.00    +0.159 HD
ATOM      8  H   UNL     1      -0.451   5.049 -16.690  0.00  0.00    +0.159 HD
ATOM      9  H   UNL     1      -0.359   6.763 -16.814  0.00  0.00    +0.159 HD
ENDROOT
BRANCH   1  10
ATOM     10  C   UNL     1       0.395   3.527 -14.802  0.00  0.00    +0.151 C 
BRANCH  10  11
ATOM     11  C   UNL     1       1.577   2.812 -15.393  0.00  0.00    -0.028 A 
ATOM     12  C   UNL     1       2.750   2.635 -14.645  0.00  0.00    +0.005 A 
ATOM     13  C   UNL     1       1.530   2.304 -16.701  0.00  0.00    +0.005 A 
ATOM     14  C   UNL     1       3.838   1.944 -15.183  0.00  0.00    +0.000 A 
ATOM     15  C   UNL     1       2.619   1.616 -17.235  0.00  0.00    +0.000 A 
ATOM     16  C   UNL     1       3.772   1.434 -16.475  0.00  0.00    +0.000 A 
ENDBRANCH  10  11
ENDBRANCH   1  10
TORSDOF 2
ENDMDL
MODEL 2
REMARK VINA RESULT:    -5.856     14.523     15.756
REMARK INTER + INTRA:          -6.717
REMARK INTER:                  -6.595
REMARK INTRA:                  -0.122
REMARK UNBOUND:                -0.176
REMARK  Name = 1550473
REMARK  2 active torsions:
REMARK  status: ('A' for Active; 'I' for Inactive)
REMARK    1  A    between atoms: N_1  and  C_4
REMARK    2  A    between atoms: C_4  and  C_5
REMARK                            x       y       z     vdW  Elec       q    Type
REMARK                         _______ _______ _______ _____ _____    ______ ____
ROOT
ATOM      1  N   UNL     1      -5.508   3.708  -1.816  0.00  0.00    -0.354 N 
ATOM      2  N   UNL     1      -3.418   3.370  -0.878  0.00  0.00    -0.372 N 
ATOM      3  N   UNL     1      -5.121   1.930  -0.339  0.00  0.00    -0.372 N 
ATOM      4  C   UNL     1      -4.697   3.003  -1.016  0.00  0.00    +0.166 C 
ATOM      5  H   UNL     1      -5.133   4.529  -2.278  0.00  0.00    +0.163 HD
ATOM      6  H   UNL     1      -2.782   2.855  -0.283  0.00  0.00    +0.159 HD
ATOM      7  H   UNL     1      -3.034   4.164  -1.376  0.00  0.00    +0.159 HD
ATOM      8  H   UNL     1      -6.077   1.605  -0.395  0.00  0.00    +0.159 HD
ATOM      9  H   UNL     1      -4.503   1.409   0.270  0.00  0.00    +0.159 HD
ENDROOT
BRANCH   1  10
ATOM     10  C   UNL     1      -6.904   3.361  -2.077  0.00  0.00    +0.151 C 
BRANCH  10  11
ATOM     11  C   UNL     1      -7.421   4.218  -3.199  0.00  0.00    -0.028 A 
ATOM     12  C   UNL     1      -6.532   4.863  -4.071  0.00  0.00    +0.005 A 
ATOM     13  C   UNL     1      -8.800   4.384  -3.399  0.00  0.00    +0.005 A 
ATOM     14  C   UNL     1      -7.013   5.635  -5.131  0.00  0.00    +0.000 A 
ATOM     15  C   UNL     1      -9.276   5.157  -4.459  0.00  0.00    +0.000 A 
ATOM     16  C   UNL     1      -8.382   5.780  -5.326  0.00  0.00    +0.000 A 
ENDBRANCH  10  11
ENDBRANCH   1  10
TORSDOF 2
ENDMDL
MODEL 3
REMARK VINA RESULT:    -5.247      3.768      5.335
REMARK INTER + INTRA:          -6.037
REMARK INTER:                  -5.924
REMARK INTRA:                  -0.113
REMARK UNBOUND:                -0.176
REMARK  Name = 1550473
REMARK  2 active torsions:
REMARK  status: ('A' for Active; 'I' for Inactive)
REMARK    1  A    between atoms: N_1  and  C_4
REMARK    2  A    between atoms: C_4  and  C_5
REMARK                            x       y       z     vdW  Elec       q    Type
REMARK                         _______ _______ _______ _____ _____    ______ ____
ROOT
ATOM      1  N   UNL     1       3.162   1.310 -17.847  0.00  0.00    -0.354 N 
ATOM      2  N   UNL     1       4.462   0.778 -19.688  0.00  0.00    -0.372 N 
ATOM      3  N   UNL     1       4.756  -0.404 -17.744  0.00  0.00    -0.372 N 
ATOM      4  C   UNL     1       4.119   0.563 -18.413  0.00  0.00    +0.166 C 
ATOM      5  H   UNL     1       2.739   2.048 -18.398  0.00  0.00    +0.163 HD
ATOM      6  H   UNL     1       5.178   0.228 -20.143  0.00  0.00    +0.159 HD
ATOM      7  H   UNL     1       4.005   1.486 -20.251  0.00  0.00    +0.159 HD
ATOM      8  H   UNL     1       4.548  -0.613 -16.777  0.00  0.00    +0.159 HD
ATOM      9  H   UNL     1       5.484  -0.958 -18.179  0.00  0.00    +0.159 HD
ENDROOT
BRANCH   1  10
ATOM     10  C   UNL     1       2.677   1.121 -16.481  0.00  0.00    +0.151 C 
BRANCH  10  11
ATOM     11  C   UNL     1       1.904   2.341 -16.061  0.00  0.00    -0.028 A 
ATOM     12  C   UNL     1       1.124   3.044 -16.990  0.00  0.00    +0.005 A 
ATOM     13  C   UNL     1       1.943   2.794 -14.733  0.00  0.00    +0.005 A 
ATOM     14  C   UNL     1       0.382   4.160 -16.593  0.00  0.00    +0.000 A 
ATOM     15  C   UNL     1       1.201   3.909 -14.341  0.00  0.00    +0.000 A 
ATOM     16  C   UNL     1       0.419   4.590 -15.271  0.00  0.00    +0.000 A 
ENDBRANCH  10  11
ENDBRANCH   1  10
TORSDOF 2
ENDMDL
MODEL 4
REMARK VINA RESULT:    -5.244      1.887      2.827
REMARK INTER + INTRA:          -6.033
REMARK INTER:                  -5.925
REMARK INTRA:                  -0.108
REMARK UNBOUND:                -0.176
REMARK  Name = 1550473
REMARK  2 active torsions:
REMARK  status: ('A' for Active; 'I' for Inactive)
REMARK    1  A    between atoms: N_1  and  C_4
REMARK    2  A    between atoms: C_4  and  C_5
REMARK                            x       y       z     vdW  Elec       q    Type
REMARK                         _______ _______ _______ _____ _____    ______ ____
ROOT
ATOM      1  N   UNL     1      -0.264   5.137 -17.123  0.00  0.00    -0.354 N 
ATOM      2  N   UNL     1      -1.156   5.729 -19.177  0.00  0.00    -0.372 N 
ATOM      3  N   UNL     1      -2.224   4.131 -17.923  0.00  0.00    -0.372 N 
ATOM      4  C   UNL     1      -1.211   4.993 -18.060  0.00  0.00    +0.166 C 
ATOM      5  H   UNL     1       0.494   5.786 -17.301  0.00  0.00    +0.163 HD
ATOM      6  H   UNL     1      -1.858   5.645 -19.900  0.00  0.00    +0.159 HD
ATOM      7  H   UNL     1      -0.423   6.410 -19.331  0.00  0.00    +0.159 HD
ATOM      8  H   UNL     1      -2.318   3.542 -17.107  0.00  0.00    +0.159 HD
ATOM      9  H   UNL     1      -2.929   4.024 -18.641  0.00  0.00    +0.159 HD
ENDROOT
BRANCH   1  10
ATOM     10  C   UNL     1      -0.260   4.422 -15.848  0.00  0.00    +0.151 C 
BRANCH  10  11
ATOM     11  C   UNL     1       0.924   3.496 -15.807  0.00  0.00    -0.028 A 
ATOM     12  C   UNL     1       1.306   2.779 -16.950  0.00  0.00    +0.005 A 
ATOM     13  C   UNL     1       1.671   3.337 -14.630  0.00  0.00    +0.005 A 
ATOM     14  C   UNL     1       2.424   1.941 -16.921  0.00  0.00    +0.000 A 
ATOM     15  C   UNL     1       2.786   2.499 -14.605  0.00  0.00    +0.000 A 
ATOM     16  C   UNL     1       3.164   1.804 -15.751  0.00  0.00    +0.000 A 
ENDBRANCH  10  11
ENDBRANCH   1  10
TORSDOF 2
ENDMDL
MODEL 5
REMARK VINA RESULT:    -5.220      2.842      3.924
REMARK INTER + INTRA:          -6.007
REMARK INTER:                  -5.919
REMARK INTRA:                  -0.087
REMARK UNBOUND:                -0.176
REMARK  Name = 1550473
REMARK  2 active torsions:
REMARK  status: ('A' for Active; 'I' for Inactive)
REMARK    1  A    between atoms: N_1  and  C_4
REMARK    2  A    between atoms: C_4  and  C_5
REMARK                            x       y       z     vdW  Elec       q    Type
REMARK                         _______ _______ _______ _____ _____    ______ ____
ROOT
ATOM      1  N   UNL     1       0.158   3.358 -19.087  0.00  0.00    -0.354 N 
ATOM      2  N   UNL     1       1.424   3.367 -21.026  0.00  0.00    -0.372 N 
ATOM      3  N   UNL     1       1.192   5.320 -19.844  0.00  0.00    -0.372 N 
ATOM      4  C   UNL     1       0.916   4.018 -19.972  0.00  0.00    +0.166 C 
ATOM      5  H   UNL     1      -0.039   2.379 -19.257  0.00  0.00    +0.163 HD
ATOM      6  H   UNL     1       2.002   3.838 -21.709  0.00  0.00    +0.159 HD
ATOM      7  H   UNL     1       1.263   2.378 -21.169  0.00  0.00    +0.159 HD
ATOM      8  H   UNL     1       0.835   5.870 -19.074  0.00  0.00    +0.159 HD
ATOM      9  H   UNL     1       1.759   5.812 -20.523  0.00  0.00    +0.159 HD
ENDROOT
BRANCH   1  10
ATOM     10  C   UNL     1      -0.398   3.961 -17.876  0.00  0.00    +0.151 C 
BRANCH  10  11
ATOM     11  C   UNL     1       0.474   3.603 -16.704  0.00  0.00    -0.028 A 
ATOM     12  C   UNL     1       0.298   4.238 -15.466  0.00  0.00    +0.005 A 
ATOM     13  C   UNL     1       1.473   2.625 -16.824  0.00  0.00    +0.005 A 
ATOM     14  C   UNL     1       1.088   3.885 -14.369  0.00  0.00    +0.000 A 
ATOM     15  C   UNL     1       2.260   2.276 -15.726  0.00  0.00    +0.000 A 
ATOM     16  C   UNL     1       2.065   2.904 -14.499  0.00  0.00    +0.000 A 
ENDBRANCH  10  11
ENDBRANCH   1  10
TORSDOF 2
ENDMDL
MODEL 6
REMARK VINA RESULT:    -5.044      4.227      5.387
REMARK INTER + INTRA:          -5.810
REMARK INTER:                  -5.677
REMARK INTRA:                  -0.133
REMARK UNBOUND:                -0.176
REMARK  Name = 1550473
REMARK  2 active torsions:
REMARK  status: ('A' for Active; 'I' for Inactive)
REMARK    1  A    between atoms: N_1  and  C_4
REMARK    2  A    between atoms: C_4  and  C_5
REMARK                            x       y       z     vdW  Elec       q    Type
REMARK                         _______ _______ _______ _____ _____    ______ ____
ROOT
ATOM      1  N   UNL     1       3.094   1.385 -19.503  0.00  0.00    -0.354 N 
ATOM      2  N   UNL     1       4.242   0.559 -21.337  0.00  0.00    -0.372 N 
ATOM      3  N   UNL     1       2.196  -0.337 -20.814  0.00  0.00    -0.372 N 
ATOM      4  C   UNL     1       3.168   0.540 -20.539  0.00  0.00    +0.166 C 
ATOM      5  H   UNL     1       3.878   2.005 -19.331  0.00  0.00    +0.163 HD
ATOM      6  H   UNL     1       4.324  -0.065 -22.128  0.00  0.00    +0.159 HD
ATOM      7  H   UNL     1       5.003   1.211 -21.190  0.00  0.00    +0.159 HD
ATOM      8  H   UNL     1       1.361  -0.406 -20.246  0.00  0.00    +0.159 HD
ATOM      9  H   UNL     1       2.265  -0.978 -21.594  0.00  0.00    +0.159 HD
ENDROOT
BRANCH   1  10
ATOM     10  C   UNL     1       1.944   1.482 -18.606  0.00  0.00    +0.151 C 
BRANCH  10  11
ATOM     11  C   UNL     1       2.430   1.783 -17.215  0.00  0.00    -0.028 A 
ATOM     12  C   UNL     1       3.709   1.380 -16.805  0.00  0.00    +0.005 A 
ATOM     13  C   UNL     1       1.618   2.476 -16.304  0.00  0.00    +0.005 A 
ATOM     14  C   UNL     1       4.173   1.686 -15.523  0.00  0.00    +0.000 A 
ATOM     15  C   UNL     1       2.084   2.778 -15.024  0.00  0.00    +0.000 A 
ATOM     16  C   UNL     1       3.362   2.386 -14.635  0.00  0.00    +0.000 A 
ENDBRANCH  10  11
ENDBRANCH   1  10
TORSDOF 2
ENDMDL
MODEL 7
REMARK VINA RESULT:    -4.974      3.651      4.965
REMARK INTER + INTRA:          -5.731
REMARK INTER:                  -5.594
REMARK INTRA:                  -0.137
REMARK UNBOUND:                -0.176
REMARK  Name = 1550473
REMARK  2 active torsions:
REMARK  status: ('A' for Active; 'I' for Inactive)
REMARK    1  A    between atoms: N_1  and  C_4
REMARK    2  A    between atoms: C_4  and  C_5
REMARK                            x       y       z     vdW  Elec       q    Type
REMARK                         _______ _______ _______ _____ _____    ______ ____
ROOT
ATOM      1  N   UNL     1       1.958   2.268 -19.201  0.00  0.00    -0.354 N 
ATOM      2  N   UNL     1       3.143   0.792 -20.536  0.00  0.00    -0.372 N 
ATOM      3  N   UNL     1       0.926   0.374 -20.117  0.00  0.00    -0.372 N 
ATOM      4  C   UNL     1       1.999   1.153 -19.942  0.00  0.00    +0.166 C 
ATOM      5  H   UNL     1       2.813   2.799 -19.083  0.00  0.00    +0.163 HD
ATOM      6  H   UNL     1       3.203  -0.042 -21.104  0.00  0.00    +0.159 HD
ATOM      7  H   UNL     1       3.984   1.349 -20.454  0.00  0.00    +0.159 HD
ATOM      8  H   UNL     1       0.034   0.587 -19.691  0.00  0.00    +0.159 HD
ATOM      9  H   UNL     1       0.969  -0.472 -20.672  0.00  0.00    +0.159 HD
ENDROOT
BRANCH   1  10
ATOM     10  C   UNL     1       0.749   2.778 -18.557  0.00  0.00    +0.151 C 
BRANCH  10  11
ATOM     11  C   UNL     1       1.033   3.018 -17.100  0.00  0.00    -0.028 A 
ATOM     12  C   UNL     1       0.257   3.925 -16.363  0.00  0.00    +0.005 A 
ATOM     13  C   UNL     1       2.073   2.338 -16.448  0.00  0.00    +0.005 A 
ATOM     14  C   UNL     1       0.501   4.126 -15.002  0.00  0.00    +0.000 A 
ATOM     15  C   UNL     1       2.314   2.542 -15.090  0.00  0.00    +0.000 A 
ATOM     16  C   UNL     1       1.527   3.434 -14.367  0.00  0.00    +0.000 A 
ENDBRANCH  10  11
ENDBRANCH   1  10
TORSDOF 2
ENDMDL
MODEL 8
REMARK VINA RESULT:    -4.970     20.282     21.385
REMARK INTER + INTRA:          -5.727
REMARK INTER:                  -5.600
REMARK INTRA:                  -0.127
REMARK UNBOUND:                -0.176
REMARK  Name = 1550473
REMARK  2 active torsions:
REMARK  status: ('A' for Active; 'I' for Inactive)
REMARK    1  A    between atoms: N_1  and  C_4
REMARK    2  A    between atoms: C_4  and  C_5
REMARK                            x       y       z     vdW  Elec       q    Type
REMARK                         _______ _______ _______ _____ _____    ______ ____
ROOT
ATOM      1  N   UNL     1       5.530  -2.735   5.555  0.00  0.00    -0.354 N 
ATOM      2  N   UNL     1       6.842  -2.592   7.459  0.00  0.00    -0.372 N 
ATOM      3  N   UNL     1       7.509  -1.479   5.567  0.00  0.00    -0.372 N 
ATOM      4  C   UNL     1       6.620  -2.268   6.179  0.00  0.00    +0.166 C 
ATOM      5  H   UNL     1       4.911  -3.354   6.066  0.00  0.00    +0.163 HD
ATOM      6  H   UNL     1       7.653  -2.252   7.957  0.00  0.00    +0.159 HD
ATOM      7  H   UNL     1       6.197  -3.173   7.981  0.00  0.00    +0.159 HD
ATOM      8  H   UNL     1       7.402  -1.202   4.600  0.00  0.00    +0.159 HD
ATOM      9  H   UNL     1       8.333  -1.138   6.045  0.00  0.00    +0.159 HD
ENDROOT
BRANCH   1  10
ATOM     10  C   UNL     1       5.169  -2.398   4.180  0.00  0.00    +0.151 C 
BRANCH  10  11
ATOM     11  C   UNL     1       5.606  -3.513   3.270  0.00  0.00    -0.028 A 
ATOM     12  C   UNL     1       5.788  -4.810   3.770  0.00  0.00    +0.005 A 
ATOM     13  C   UNL     1       5.835  -3.279   1.905  0.00  0.00    +0.005 A 
ATOM     14  C   UNL     1       6.165  -5.852   2.919  0.00  0.00    +0.000 A 
ATOM     15  C   UNL     1       6.213  -4.322   1.059  0.00  0.00    +0.000 A 
ATOM     16  C   UNL     1       6.375  -5.609   1.566  0.00  0.00    +0.000 A 
ENDBRANCH  10  11
ENDBRANCH   1  10
TORSDOF 2
ENDMDL
MODEL 9
REMARK VINA RESULT:    -4.870      5.199      6.713
REMARK INTER + INTRA:          -5.615
REMARK INTER:                  -5.476
REMARK INTRA:                  -0.139
REMARK UNBOUND:                -0.176
REMARK  Name = 1550473
REMARK  2 active torsions:
REMARK  status: ('A' for Active; 'I' for Inactive)
REMARK    1  A    between atoms: N_1  and  C_4
REMARK    2  A    between atoms: C_4  and  C_5
REMARK                            x       y       z     vdW  Elec       q    Type
REMARK                         _______ _______ _______ _____ _____    ______ ____
ROOT
ATOM      1  N   UNL     1       5.379  -0.205 -14.329  0.00  0.00    -0.354 N 
ATOM      2  N   UNL     1       5.437  -1.124 -16.454  0.00  0.00    -0.372 N 
ATOM      3  N   UNL     1       4.133   0.726 -16.081  0.00  0.00    -0.372 N 
ATOM      4  C   UNL     1       4.981  -0.193 -15.608  0.00  0.00    +0.166 C 
ATOM      5  H   UNL     1       6.000  -0.947 -14.025  0.00  0.00    +0.163 HD
ATOM      6  H   UNL     1       5.157  -1.138 -17.425  0.00  0.00    +0.159 HD
ATOM      7  H   UNL     1       6.093  -1.837 -16.158  0.00  0.00    +0.159 HD
ATOM      8  H   UNL     1       3.748   1.453 -15.492  0.00  0.00    +0.159 HD
ATOM      9  H   UNL     1       3.831   0.722 -17.047  0.00  0.00    +0.159 HD
ENDROOT
BRANCH   1  10
ATOM     10  C   UNL     1       4.984   0.796 -13.339  0.00  0.00    +0.151 C 
BRANCH  10  11
ATOM     11  C   UNL     1       4.365   0.101 -12.158  0.00  0.00    -0.028 A 
ATOM     12  C   UNL     1       4.816  -1.167 -11.761  0.00  0.00    +0.005 A 
ATOM     13  C   UNL     1       3.332   0.707 -11.427  0.00  0.00    +0.005 A 
ATOM     14  C   UNL     1       4.263  -1.800 -10.645  0.00  0.00    +0.000 A 
ATOM     15  C   UNL     1       2.781   0.071 -10.314  0.00  0.00    +0.000 A 
ATOM     16  C   UNL     1       3.249  -1.181  -9.922  0.00  0.00    +0.000 A 
ENDBRANCH  10  11
ENDBRANCH   1  10
TORSDOF 2
ENDMDL
