MODEL 1
REMARK VINA RESULT:    -4.894      0.000      0.000
REMARK INTER + INTRA:          -5.607
REMARK INTER:                  -5.466
REMARK INTRA:                  -0.140
REMARK UNBOUND:                -0.140
REMARK  Name = 1550473
REMARK  2 active torsions:
REMARK  status: ('A' for Active; 'I' for Inactive)
REMARK    1  A    between atoms: N_1  and  C_4
REMARK    2  A    between atoms: C_4  and  C_5
REMARK                            x       y       z     vdW  Elec       q    Type
REMARK                         _______ _______ _______ _____ _____    ______ ____
ROOT
ATOM      1  N   UNL     1     -21.471  -7.464  -2.055  0.00  0.00    -0.354 N 
ATOM      2  N   UNL     1     -19.198  -7.051  -1.889  0.00  0.00    -0.372 N 
ATOM      3  N   UNL     1     -20.672  -5.401  -1.281  0.00  0.00    -0.372 N 
ATOM      4  C   UNL     1     -20.463  -6.639  -1.742  0.00  0.00    +0.166 C 
ATOM      5  H   UNL     1     -21.245  -8.379  -2.428  0.00  0.00    +0.163 HD
ATOM      6  H   UNL     1     -18.417  -6.452  -1.658  0.00  0.00    +0.159 HD
ATOM      7  H   UNL     1     -18.976  -7.983  -2.219  0.00  0.00    +0.159 HD
ATOM      8  H   UNL     1     -21.603  -5.028  -1.153  0.00  0.00    +0.159 HD
ATOM      9  H   UNL     1     -19.903  -4.783  -1.055  0.00  0.00    +0.159 HD
ENDROOT
BRANCH   1  10
ATOM     10  C   UNL     1     -22.883  -7.132  -1.881  0.00  0.00    +0.151 C 
BRANCH  10  11
ATOM     11  C   UNL     1     -23.585  -7.262  -3.204  0.00  0.00    -0.028 A 
ATOM     12  C   UNL     1     -23.813  -6.132  -4.003  0.00  0.00    +0.005 A 
ATOM     13  C   UNL     1     -24.020  -8.513  -3.668  0.00  0.00    +0.005 A 
ATOM     14  C   UNL     1     -24.439  -6.256  -5.246  0.00  0.00    +0.000 A 
ATOM     15  C   UNL     1     -24.644  -8.633  -4.909  0.00  0.00    +0.000 A 
ATOM     16  C   UNL     1     -24.851  -7.505  -5.699  0.00  0.00    +0.000 A 
ENDBRANCH  10  11
ENDBRANCH   1  10
TORSDOF 2
ENDMDL
MODEL 2
REMARK VINA RESULT:    -4.807     35.561     36.842
REMARK INTER + INTRA:          -5.509
REMARK INTER:                  -5.364
REMARK INTRA:                  -0.146
REMARK UNBOUND:                -0.140
REMARK  Name = 1550473
REMARK  2 active torsions:
REMARK  status: ('A' for Active; 'I' for Inactive)
REMARK    1  A    between atoms: N_1  and  C_4
REMARK    2  A    between atoms: C_4  and  C_5
REMARK                            x       y       z     vdW  Elec       q    Type
REMARK                         _______ _______ _______ _____ _____    ______ ____
ROOT
ATOM      1  N   UNL     1      10.537  -1.190  12.368  0.00  0.00    -0.354 N 
ATOM      2  N   UNL     1      10.765  -3.154  13.573  0.00  0.00    -0.372 N 
ATOM      3  N   UNL     1       8.942  -2.899  12.203  0.00  0.00    -0.372 N 
ATOM      4  C   UNL     1      10.077  -2.402  12.705  0.00  0.00    +0.166 C 
ATOM      5  H   UNL     1      11.388  -0.858  12.807  0.00  0.00    +0.163 HD
ATOM      6  H   UNL     1      10.445  -4.074  13.844  0.00  0.00    +0.159 HD
ATOM      7  H   UNL     1      11.639  -2.839  13.975  0.00  0.00    +0.159 HD
ATOM      8  H   UNL     1       8.373  -2.379  11.548  0.00  0.00    +0.159 HD
ATOM      9  H   UNL     1       8.599  -3.813  12.471  0.00  0.00    +0.159 HD
ENDROOT
BRANCH   1  10
ATOM     10  C   UNL     1       9.892  -0.313  11.391  0.00  0.00    +0.151 C 
BRANCH  10  11
ATOM     11  C   UNL     1       9.461   0.953  12.078  0.00  0.00    -0.028 A 
ATOM     12  C   UNL     1       8.220   1.536  11.783  0.00  0.00    +0.005 A 
ATOM     13  C   UNL     1      10.287   1.573  13.028  0.00  0.00    +0.005 A 
ATOM     14  C   UNL     1       7.806   2.696  12.442  0.00  0.00    +0.000 A 
ATOM     15  C   UNL     1       9.871   2.732  13.684  0.00  0.00    +0.000 A 
ATOM     16  C   UNL     1       8.629   3.292  13.392  0.00  0.00    +0.000 A 
ENDBRANCH  10  11
ENDBRANCH   1  10
TORSDOF 2
ENDMDL
MODEL 3
REMARK VINA RESULT:    -4.469      1.232      2.187
REMARK INTER + INTRA:          -5.132
REMARK INTER:                  -4.993
REMARK INTRA:                  -0.139
REMARK UNBOUND:                -0.140
REMARK  Name = 1550473
REMARK  2 active torsions:
REMARK  status: ('A' for Active; 'I' for Inactive)
REMARK    1  A    between atoms: N_1  and  C_4
REMARK    2  A    between atoms: C_4  and  C_5
REMARK                            x       y       z     vdW  Elec       q    Type
REMARK                         _______ _______ _______ _____ _____    ______ ____
ROOT
ATOM      1  N   UNL     1     -21.917  -5.025  -1.920  0.00  0.00    -0.354 N 
ATOM      2  N   UNL     1     -20.363  -3.320  -1.721  0.00  0.00    -0.372 N 
ATOM      3  N   UNL     1     -19.691  -5.482  -1.346  0.00  0.00    -0.372 N 
ATOM      4  C   UNL     1     -20.666  -4.622  -1.663  0.00  0.00    +0.166 C 
ATOM      5  H   UNL     1     -22.617  -4.321  -2.124  0.00  0.00    +0.163 HD
ATOM      6  H   UNL     1     -19.426  -2.986  -1.535  0.00  0.00    +0.159 HD
ATOM      7  H   UNL     1     -21.054  -2.623  -1.970  0.00  0.00    +0.159 HD
ATOM      8  H   UNL     1     -19.856  -6.477  -1.280  0.00  0.00    +0.159 HD
ATOM      9  H   UNL     1     -18.750  -5.166  -1.146  0.00  0.00    +0.159 HD
ENDROOT
BRANCH   1  10
ATOM     10  C   UNL     1     -22.338  -6.425  -1.936  0.00  0.00    +0.151 C 
BRANCH  10  11
ATOM     11  C   UNL     1     -23.175  -6.672  -3.161  0.00  0.00    -0.028 A 
ATOM     12  C   UNL     1     -23.531  -7.978  -3.528  0.00  0.00    +0.005 A 
ATOM     13  C   UNL     1     -23.619  -5.604  -3.955  0.00  0.00    +0.005 A 
ATOM     14  C   UNL     1     -24.333  -8.206  -4.649  0.00  0.00    +0.000 A 
ATOM     15  C   UNL     1     -24.419  -5.836  -5.074  0.00  0.00    +0.000 A 
ATOM     16  C   UNL     1     -24.778  -7.137  -5.419  0.00  0.00    +0.000 A 
ENDBRANCH  10  11
ENDBRANCH   1  10
TORSDOF 2
ENDMDL
MODEL 4
REMARK VINA RESULT:    -4.406     35.544     37.152
REMARK INTER + INTRA:          -5.062
REMARK INTER:                  -4.967
REMARK INTRA:                  -0.095
REMARK UNBOUND:                -0.140
REMARK  Name = 1550473
REMARK  2 active torsions:
REMARK  status: ('A' for Active; 'I' for Inactive)
REMARK    1  A    between atoms: N_1  and  C_4
REMARK    2  A    between atoms: C_4  and  C_5
REMARK                            x       y       z     vdW  Elec       q    Type
REMARK                         _______ _______ _______ _____ _____    ______ ____
ROOT
ATOM      1  N   UNL     1      13.197   5.155   1.872  0.00  0.00    -0.354 N 
ATOM      2  N   UNL     1      15.365   4.351   1.998  0.00  0.00    -0.372 N 
ATOM      3  N   UNL     1      14.590   5.717   3.671  0.00  0.00    -0.372 N 
ATOM      4  C   UNL     1      14.370   5.081   2.515  0.00  0.00    +0.166 C 
ATOM      5  H   UNL     1      13.103   4.674   0.985  0.00  0.00    +0.163 HD
ATOM      6  H   UNL     1      16.260   4.274   2.462  0.00  0.00    +0.159 HD
ATOM      7  H   UNL     1      15.254   3.835   1.134  0.00  0.00    +0.159 HD
ATOM      8  H   UNL     1      13.882   6.289   4.111  0.00  0.00    +0.159 HD
ATOM      9  H   UNL     1      15.483   5.661   4.145  0.00  0.00    +0.159 HD
ENDROOT
BRANCH   1  10
ATOM     10  C   UNL     1      12.032   5.879   2.378  0.00  0.00    +0.151 C 
BRANCH  10  11
ATOM     11  C   UNL     1      11.016   6.005   1.276  0.00  0.00    -0.028 A 
ATOM     12  C   UNL     1      10.359   4.870   0.780  0.00  0.00    +0.005 A 
ATOM     13  C   UNL     1      10.703   7.258   0.728  0.00  0.00    +0.005 A 
ATOM     14  C   UNL     1       9.394   4.991  -0.223  0.00  0.00    +0.000 A 
ATOM     15  C   UNL     1       9.739   7.375  -0.274  0.00  0.00    +0.000 A 
ATOM     16  C   UNL     1       9.083   6.241  -0.747  0.00  0.00    +0.000 A 
ENDBRANCH  10  11
ENDBRANCH   1  10
TORSDOF 2
ENDMDL
MODEL 5
REMARK VINA RESULT:    -4.339      1.844      2.713
REMARK INTER + INTRA:          -4.987
REMARK INTER:                  -4.866
REMARK INTRA:                  -0.121
REMARK UNBOUND:                -0.140
REMARK  Name = 1550473
REMARK  2 active torsions:
REMARK  status: ('A' for Active; 'I' for Inactive)
REMARK    1  A    between atoms: N_1  and  C_4
REMARK    2  A    between atoms: C_4  and  C_5
REMARK                            x       y       z     vdW  Elec       q    Type
REMARK                         _______ _______ _______ _____ _____    ______ ____
ROOT
ATOM      1  N   UNL     1     -23.317  -7.424  -3.663  0.00  0.00    -0.354 N 
ATOM      2  N   UNL     1     -21.830  -7.700  -1.909  0.00  0.00    -0.372 N 
ATOM      3  N   UNL     1     -22.848  -5.663  -2.190  0.00  0.00    -0.372 N 
ATOM      4  C   UNL     1     -22.675  -6.925  -2.598  0.00  0.00    +0.166 C 
ATOM      5  H   UNL     1     -23.120  -8.379  -3.939  0.00  0.00    +0.163 HD
ATOM      6  H   UNL     1     -21.334  -7.352  -1.099  0.00  0.00    +0.159 HD
ATOM      7  H   UNL     1     -21.670  -8.668  -2.160  0.00  0.00    +0.159 HD
ATOM      8  H   UNL     1     -23.467  -5.024  -2.671  0.00  0.00    +0.159 HD
ATOM      9  H   UNL     1     -22.352  -5.293  -1.389  0.00  0.00    +0.159 HD
ENDROOT
BRANCH   1  10
ATOM     10  C   UNL     1     -24.298  -6.680  -4.450  0.00  0.00    +0.151 C 
BRANCH  10  11
ATOM     11  C   UNL     1     -25.317  -7.639  -5.000  0.00  0.00    -0.028 A 
ATOM     12  C   UNL     1     -26.629  -7.215  -5.257  0.00  0.00    +0.005 A 
ATOM     13  C   UNL     1     -24.975  -8.973  -5.272  0.00  0.00    +0.005 A 
ATOM     14  C   UNL     1     -27.567  -8.098  -5.797  0.00  0.00    +0.000 A 
ATOM     15  C   UNL     1     -25.915  -9.852  -5.810  0.00  0.00    +0.000 A 
ATOM     16  C   UNL     1     -27.210  -9.414  -6.074  0.00  0.00    +0.000 A 
ENDBRANCH  10  11
ENDBRANCH   1  10
TORSDOF 2
ENDMDL
MODEL 6
REMARK VINA RESULT:    -4.315     37.195     38.519
REMARK INTER + INTRA:          -4.959
REMARK INTER:                  -4.851
REMARK INTRA:                  -0.108
REMARK UNBOUND:                -0.140
REMARK  Name = 1550473
REMARK  2 active torsions:
REMARK  status: ('A' for Active; 'I' for Inactive)
REMARK    1  A    between atoms: N_1  and  C_4
REMARK    2  A    between atoms: C_4  and  C_5
REMARK                            x       y       z     vdW  Elec       q    Type
REMARK                         _______ _______ _______ _____ _____    ______ ____
ROOT
ATOM      1  N   UNL     1      13.344   6.131   2.208  0.00  0.00    -0.354 N 
ATOM      2  N   UNL     1      14.957   4.509   1.844  0.00  0.00    -0.372 N 
ATOM      3  N   UNL     1      14.901   5.581   3.872  0.00  0.00    -0.372 N 
ATOM      4  C   UNL     1      14.391   5.419   2.646  0.00  0.00    +0.166 C 
ATOM      5  H   UNL     1      13.024   5.982   1.258  0.00  0.00    +0.163 HD
ATOM      6  H   UNL     1      15.746   3.955   2.148  0.00  0.00    +0.159 HD
ATOM      7  H   UNL     1      14.606   4.330   0.911  0.00  0.00    +0.159 HD
ATOM      8  H   UNL     1      14.523   6.256   4.524  0.00  0.00    +0.159 HD
ATOM      9  H   UNL     1      15.698   5.044   4.190  0.00  0.00    +0.159 HD
ENDROOT
BRANCH   1  10
ATOM     10  C   UNL     1      12.622   7.108   3.022  0.00  0.00    +0.151 C 
BRANCH  10  11
ATOM     11  C   UNL     1      11.870   8.042   2.115  0.00  0.00    -0.028 A 
ATOM     12  C   UNL     1      12.557   8.855   1.202  0.00  0.00    +0.005 A 
ATOM     13  C   UNL     1      10.469   8.115   2.160  0.00  0.00    +0.005 A 
ATOM     14  C   UNL     1      11.857   9.701   0.338  0.00  0.00    +0.000 A 
ATOM     15  C   UNL     1       9.774   8.962   1.296  0.00  0.00    +0.000 A 
ATOM     16  C   UNL     1      10.468   9.753   0.384  0.00  0.00    +0.000 A 
ENDBRANCH  10  11
ENDBRANCH   1  10
TORSDOF 2
ENDMDL
MODEL 7
REMARK VINA RESULT:    -4.299     30.839     32.271
REMARK INTER + INTRA:          -4.942
REMARK INTER:                  -4.817
REMARK INTRA:                  -0.124
REMARK UNBOUND:                -0.140
REMARK  Name = 1550473
REMARK  2 active torsions:
REMARK  status: ('A' for Active; 'I' for Inactive)
REMARK    1  A    between atoms: N_1  and  C_4
REMARK    2  A    between atoms: C_4  and  C_5
REMARK                            x       y       z     vdW  Elec       q    Type
REMARK                         _______ _______ _______ _____ _____    ______ ____
ROOT
ATOM      1  N   UNL     1       8.055  -6.891 -13.314  0.00  0.00    -0.354 N 
ATOM      2  N   UNL     1       7.419  -8.971 -14.110  0.00  0.00    -0.372 N 
ATOM      3  N   UNL     1       9.474  -8.745 -13.115  0.00  0.00    -0.372 N 
ATOM      4  C   UNL     1       8.323  -8.189 -13.507  0.00  0.00    +0.166 C 
ATOM      5  H   UNL     1       7.176  -6.524 -13.661  0.00  0.00    +0.163 HD
ATOM      6  H   UNL     1       7.592  -9.955 -14.266  0.00  0.00    +0.159 HD
ATOM      7  H   UNL     1       6.523  -8.611 -14.415  0.00  0.00    +0.159 HD
ATOM      8  H   UNL     1      10.200  -8.208 -12.659  0.00  0.00    +0.159 HD
ATOM      9  H   UNL     1       9.671  -9.725 -13.273  0.00  0.00    +0.159 HD
ENDROOT
BRANCH   1  10
ATOM     10  C   UNL     1       8.949  -5.966 -12.619  0.00  0.00    +0.151 C 
BRANCH  10  11
ATOM     11  C   UNL     1       8.164  -4.761 -12.180  0.00  0.00    -0.028 A 
ATOM     12  C   UNL     1       8.809  -3.538 -11.944  0.00  0.00    +0.005 A 
ATOM     13  C   UNL     1       6.773  -4.834 -12.003  0.00  0.00    +0.005 A 
ATOM     14  C   UNL     1       8.076  -2.410 -11.565  0.00  0.00    +0.000 A 
ATOM     15  C   UNL     1       6.045  -3.706 -11.624  0.00  0.00    +0.000 A 
ATOM     16  C   UNL     1       6.696  -2.494 -11.407  0.00  0.00    +0.000 A 
ENDBRANCH  10  11
ENDBRANCH   1  10
TORSDOF 2
ENDMDL
MODEL 8
REMARK VINA RESULT:    -4.243     22.312     23.743
REMARK INTER + INTRA:          -4.879
REMARK INTER:                  -4.761
REMARK INTRA:                  -0.118
REMARK UNBOUND:                -0.140
REMARK  Name = 1550473
REMARK  2 active torsions:
REMARK  status: ('A' for Active; 'I' for Inactive)
REMARK    1  A    between atoms: N_1  and  C_4
REMARK    2  A    between atoms: C_4  and  C_5
REMARK                            x       y       z     vdW  Elec       q    Type
REMARK                         _______ _______ _______ _____ _____    ______ ____
ROOT
ATOM      1  N   UNL     1      -1.770   0.759  -9.196  0.00  0.00    -0.354 N 
ATOM      2  N   UNL     1      -0.821  -1.098 -10.203  0.00  0.00    -0.372 N 
ATOM      3  N   UNL     1      -3.084  -1.077  -9.822  0.00  0.00    -0.372 N 
ATOM      4  C   UNL     1      -1.901  -0.461  -9.733  0.00  0.00    +0.166 C 
ATOM      5  H   UNL     1      -0.841   1.159  -9.130  0.00  0.00    +0.163 HD
ATOM      6  H   UNL     1      -0.890  -2.018 -10.618  0.00  0.00    +0.159 HD
ATOM      7  H   UNL     1       0.099  -0.677 -10.178  0.00  0.00    +0.159 HD
ATOM      8  H   UNL     1      -3.936  -0.652  -9.481  0.00  0.00    +0.159 HD
ATOM      9  H   UNL     1      -3.171  -2.002 -10.223  0.00  0.00    +0.159 HD
ENDROOT
BRANCH   1  10
ATOM     10  C   UNL     1      -2.889   1.561  -8.704  0.00  0.00    +0.151 C 
BRANCH  10  11
ATOM     11  C   UNL     1      -2.367   2.879  -8.203  0.00  0.00    -0.028 A 
ATOM     12  C   UNL     1      -1.173   3.411  -8.711  0.00  0.00    +0.005 A 
ATOM     13  C   UNL     1      -3.065   3.604  -7.225  0.00  0.00    +0.005 A 
ATOM     14  C   UNL     1      -0.703   4.650  -8.268  0.00  0.00    +0.000 A 
ATOM     15  C   UNL     1      -2.593   4.840  -6.785  0.00  0.00    +0.000 A 
ATOM     16  C   UNL     1      -1.413   5.364  -7.308  0.00  0.00    +0.000 A 
ENDBRANCH  10  11
ENDBRANCH   1  10
TORSDOF 2
ENDMDL
MODEL 9
REMARK VINA RESULT:    -4.214     36.013     37.525
REMARK INTER + INTRA:          -4.847
REMARK INTER:                  -4.690
REMARK INTRA:                  -0.157
REMARK UNBOUND:                -0.140
REMARK  Name = 1550473
REMARK  2 active torsions:
REMARK  status: ('A' for Active; 'I' for Inactive)
REMARK    1  A    between atoms: N_1  and  C_4
REMARK    2  A    between atoms: C_4  and  C_5
REMARK                            x       y       z     vdW  Elec       q    Type
REMARK                         _______ _______ _______ _____ _____    ______ ____
ROOT
ATOM      1  N   UNL     1       9.295  -0.439  11.581  0.00  0.00    -0.354 N 
ATOM      2  N   UNL     1       8.159   1.574  11.442  0.00  0.00    -0.372 N 
ATOM      3  N   UNL     1      10.449   1.581  11.300  0.00  0.00    -0.372 N 
ATOM      4  C   UNL     1       9.311   0.893  11.442  0.00  0.00    +0.166 C 
ATOM      5  H   UNL     1       8.401  -0.899  11.714  0.00  0.00    +0.163 HD
ATOM      6  H   UNL     1       8.139   2.580  11.335  0.00  0.00    +0.159 HD
ATOM      7  H   UNL     1       7.264   1.108  11.529  0.00  0.00    +0.159 HD
ATOM      8  H   UNL     1      11.353   1.127  11.298  0.00  0.00    +0.159 HD
ATOM      9  H   UNL     1      10.451   2.589  11.204  0.00  0.00    +0.159 HD
ENDROOT
BRANCH   1  10
ATOM     10  C   UNL     1      10.490  -1.280  11.541  0.00  0.00    +0.151 C 
BRANCH  10  11
ATOM     11  C   UNL     1      10.717  -1.877  12.902  0.00  0.00    -0.028 A 
ATOM     12  C   UNL     1       9.828  -2.832  13.418  0.00  0.00    +0.005 A 
ATOM     13  C   UNL     1      11.822  -1.496  13.679  0.00  0.00    +0.005 A 
ATOM     14  C   UNL     1      10.055  -3.409  14.670  0.00  0.00    +0.000 A 
ATOM     15  C   UNL     1      12.044  -2.074  14.929  0.00  0.00    +0.000 A 
ATOM     16  C   UNL     1      11.162  -3.032  15.423  0.00  0.00    +0.000 A 
ENDBRANCH  10  11
ENDBRANCH   1  10
TORSDOF 2
ENDMDL
