MODEL 1
REMARK VINA RESULT:    -5.906      0.000      0.000
REMARK INTER + INTRA:          -6.722
REMARK INTER:                  -6.597
REMARK INTRA:                  -0.125
REMARK UNBOUND:                -0.125
REMARK  Name = 1550473
REMARK  2 active torsions:
REMARK  status: ('A' for Active; 'I' for Inactive)
REMARK    1  A    between atoms: N_1  and  C_4
REMARK    2  A    between atoms: C_4  and  C_5
REMARK                            x       y       z     vdW  Elec       q    Type
REMARK                         _______ _______ _______ _____ _____    ______ ____
ROOT
ATOM      1  N   UNL     1      -3.518   9.319  -5.206  0.00  0.00    -0.354 N 
ATOM      2  N   UNL     1      -4.838  10.218  -3.529  0.00  0.00    -0.372 N 
ATOM      3  N   UNL     1      -5.781   8.744  -5.012  0.00  0.00    -0.372 N 
ATOM      4  C   UNL     1      -4.706   9.420  -4.595  0.00  0.00    +0.166 C 
ATOM      5  H   UNL     1      -2.749   9.881  -4.859  0.00  0.00    +0.163 HD
ATOM      6  H   UNL     1      -5.721  10.312  -3.045  0.00  0.00    +0.159 HD
ATOM      7  H   UNL     1      -4.056  10.744  -3.156  0.00  0.00    +0.159 HD
ATOM      8  H   UNL     1      -5.749   8.129  -5.814  0.00  0.00    +0.159 HD
ATOM      9  H   UNL     1      -6.676   8.833  -4.548  0.00  0.00    +0.159 HD
ENDROOT
BRANCH   1  10
ATOM     10  C   UNL     1      -3.254   8.437  -6.341  0.00  0.00    +0.151 C 
BRANCH  10  11
ATOM     11  C   UNL     1      -1.795   8.074  -6.353  0.00  0.00    -0.028 A 
ATOM     12  C   UNL     1      -0.869   8.823  -5.613  0.00  0.00    +0.005 A 
ATOM     13  C   UNL     1      -1.333   6.979  -7.099  0.00  0.00    +0.005 A 
ATOM     14  C   UNL     1       0.482   8.469  -5.600  0.00  0.00    +0.000 A 
ATOM     15  C   UNL     1       0.017   6.629  -7.085  0.00  0.00    +0.000 A 
ATOM     16  C   UNL     1       0.924   7.372  -6.333  0.00  0.00    +0.000 A 
ENDBRANCH  10  11
ENDBRANCH   1  10
TORSDOF 2
ENDMDL
MODEL 2
REMARK VINA RESULT:    -5.559      1.319      2.401
REMARK INTER + INTRA:          -6.335
REMARK INTER:                  -6.186
REMARK INTRA:                  -0.149
REMARK UNBOUND:                -0.125
REMARK  Name = 1550473
REMARK  2 active torsions:
REMARK  status: ('A' for Active; 'I' for Inactive)
REMARK    1  A    between atoms: N_1  and  C_4
REMARK    2  A    between atoms: C_4  and  C_5
REMARK                            x       y       z     vdW  Elec       q    Type
REMARK                         _______ _______ _______ _____ _____    ______ ____
ROOT
ATOM      1  N   UNL     1      -2.373  10.222  -4.524  0.00  0.00    -0.354 N 
ATOM      2  N   UNL     1      -4.290  10.320  -3.228  0.00  0.00    -0.372 N 
ATOM      3  N   UNL     1      -2.287   9.849  -2.212  0.00  0.00    -0.372 N 
ATOM      4  C   UNL     1      -2.969  10.129  -3.328  0.00  0.00    +0.166 C 
ATOM      5  H   UNL     1      -2.950  10.407  -5.336  0.00  0.00    +0.163 HD
ATOM      6  H   UNL     1      -4.767  10.260  -2.339  0.00  0.00    +0.159 HD
ATOM      7  H   UNL     1      -4.857  10.551  -4.035  0.00  0.00    +0.159 HD
ATOM      8  H   UNL     1      -1.289   9.688  -2.220  0.00  0.00    +0.159 HD
ATOM      9  H   UNL     1      -2.749   9.773  -1.314  0.00  0.00    +0.159 HD
ENDROOT
BRANCH   1  10
ATOM     10  C   UNL     1      -0.932  10.084  -4.733  0.00  0.00    +0.151 C 
BRANCH  10  11
ATOM     11  C   UNL     1      -0.672   8.864  -5.572  0.00  0.00    -0.028 A 
ATOM     12  C   UNL     1      -1.716   8.252  -6.282  0.00  0.00    +0.005 A 
ATOM     13  C   UNL     1       0.617   8.318  -5.666  0.00  0.00    +0.005 A 
ATOM     14  C   UNL     1      -1.469   7.137  -7.086  0.00  0.00    +0.000 A 
ATOM     15  C   UNL     1       0.859   7.203  -6.469  0.00  0.00    +0.000 A 
ATOM     16  C   UNL     1      -0.183   6.614  -7.181  0.00  0.00    +0.000 A 
ENDBRANCH  10  11
ENDBRANCH   1  10
TORSDOF 2
ENDMDL
MODEL 3
REMARK VINA RESULT:    -5.356      2.183      2.805
REMARK INTER + INTRA:          -6.107
REMARK INTER:                  -5.973
REMARK INTRA:                  -0.134
REMARK UNBOUND:                -0.125
REMARK  Name = 1550473
REMARK  2 active torsions:
REMARK  status: ('A' for Active; 'I' for Inactive)
REMARK    1  A    between atoms: N_1  and  C_4
REMARK    2  A    between atoms: C_4  and  C_5
REMARK                            x       y       z     vdW  Elec       q    Type
REMARK                         _______ _______ _______ _____ _____    ______ ____
ROOT
ATOM      1  N   UNL     1      -1.913   9.360  -3.477  0.00  0.00    -0.354 N 
ATOM      2  N   UNL     1      -1.802   9.649  -1.182  0.00  0.00    -0.372 N 
ATOM      3  N   UNL     1      -0.997  11.307  -2.548  0.00  0.00    -0.372 N 
ATOM      4  C   UNL     1      -1.570  10.106  -2.418  0.00  0.00    +0.166 C 
ATOM      5  H   UNL     1      -2.316   8.445  -3.311  0.00  0.00    +0.163 HD
ATOM      6  H   UNL     1      -1.558  10.191  -0.364  0.00  0.00    +0.159 HD
ATOM      7  H   UNL     1      -2.248   8.754  -1.019  0.00  0.00    +0.159 HD
ATOM      8  H   UNL     1      -0.789  11.706  -3.454  0.00  0.00    +0.159 HD
ATOM      9  H   UNL     1      -0.734  11.859  -1.741  0.00  0.00    +0.159 HD
ENDROOT
BRANCH   1  10
ATOM     10  C   UNL     1      -1.752   9.789  -4.865  0.00  0.00    +0.151 C 
BRANCH  10  11
ATOM     11  C   UNL     1      -1.077   8.692  -5.643  0.00  0.00    -0.028 A 
ATOM     12  C   UNL     1       0.299   8.460  -5.498  0.00  0.00    +0.005 A 
ATOM     13  C   UNL     1      -1.808   7.879  -6.521  0.00  0.00    +0.005 A 
ATOM     14  C   UNL     1       0.921   7.423  -6.197  0.00  0.00    +0.000 A 
ATOM     15  C   UNL     1      -1.183   6.845  -7.218  0.00  0.00    +0.000 A 
ATOM     16  C   UNL     1       0.180   6.615  -7.054  0.00  0.00    +0.000 A 
ENDBRANCH  10  11
ENDBRANCH   1  10
TORSDOF 2
ENDMDL
MODEL 4
REMARK VINA RESULT:    -5.354     15.777     17.425
REMARK INTER + INTRA:          -6.105
REMARK INTER:                  -5.928
REMARK INTRA:                  -0.177
REMARK UNBOUND:                -0.125
REMARK  Name = 1550473
REMARK  2 active torsions:
REMARK  status: ('A' for Active; 'I' for Inactive)
REMARK    1  A    between atoms: N_1  and  C_4
REMARK    2  A    between atoms: C_4  and  C_5
REMARK                            x       y       z     vdW  Elec       q    Type
REMARK                         _______ _______ _______ _____ _____    ______ ____
ROOT
ATOM      1  N   UNL     1       6.961  -3.010 -11.891  0.00  0.00    -0.354 N 
ATOM      2  N   UNL     1       5.456  -4.466 -10.901  0.00  0.00    -0.372 N 
ATOM      3  N   UNL     1       4.801  -3.287 -12.758  0.00  0.00    -0.372 N 
ATOM      4  C   UNL     1       5.747  -3.577 -11.859  0.00  0.00    +0.166 C 
ATOM      5  H   UNL     1       7.624  -3.250 -11.163  0.00  0.00    +0.163 HD
ATOM      6  H   UNL     1       4.550  -4.912 -10.853  0.00  0.00    +0.159 HD
ATOM      7  H   UNL     1       6.135  -4.738 -10.202  0.00  0.00    +0.159 HD
ATOM      8  H   UNL     1       4.956  -2.620 -13.502  0.00  0.00    +0.159 HD
ATOM      9  H   UNL     1       3.884  -3.714 -12.719  0.00  0.00    +0.159 HD
ENDROOT
BRANCH   1  10
ATOM     10  C   UNL     1       7.397  -2.071 -12.923  0.00  0.00    +0.151 C 
BRANCH  10  11
ATOM     11  C   UNL     1       8.143  -2.824 -13.989  0.00  0.00    -0.028 A 
ATOM     12  C   UNL     1       7.758  -2.723 -15.334  0.00  0.00    +0.005 A 
ATOM     13  C   UNL     1       9.240  -3.636 -13.662  0.00  0.00    +0.005 A 
ATOM     14  C   UNL     1       8.470  -3.399 -16.328  0.00  0.00    +0.000 A 
ATOM     15  C   UNL     1       9.947  -4.310 -14.657  0.00  0.00    +0.000 A 
ATOM     16  C   UNL     1       9.563  -4.189 -15.991  0.00  0.00    +0.000 A 
ENDBRANCH  10  11
ENDBRANCH   1  10
TORSDOF 2
ENDMDL
MODEL 5
REMARK VINA RESULT:    -5.273      3.332      4.723
REMARK INTER + INTRA:          -6.015
REMARK INTER:                  -5.921
REMARK INTRA:                  -0.094
REMARK UNBOUND:                -0.125
REMARK  Name = 1550473
REMARK  2 active torsions:
REMARK  status: ('A' for Active; 'I' for Inactive)
REMARK    1  A    between atoms: N_1  and  C_4
REMARK    2  A    between atoms: C_4  and  C_5
REMARK                            x       y       z     vdW  Elec       q    Type
REMARK                         _______ _______ _______ _____ _____    ______ ____
ROOT
ATOM      1  N   UNL     1       0.618  11.070  -5.946  0.00  0.00    -0.354 N 
ATOM      2  N   UNL     1       1.575  13.063  -6.633  0.00  0.00    -0.372 N 
ATOM      3  N   UNL     1       2.122  12.224  -4.569  0.00  0.00    -0.372 N 
ATOM      4  C   UNL     1       1.433  12.106  -5.709  0.00  0.00    +0.166 C 
ATOM      5  H   UNL     1       0.100  11.054  -6.817  0.00  0.00    +0.163 HD
ATOM      6  H   UNL     1       2.186  13.855  -6.484  0.00  0.00    +0.159 HD
ATOM      7  H   UNL     1       1.092  13.021  -7.523  0.00  0.00    +0.159 HD
ATOM      8  H   UNL     1       2.054  11.539  -3.829  0.00  0.00    +0.159 HD
ATOM      9  H   UNL     1       2.729  13.016  -4.396  0.00  0.00    +0.159 HD
ENDROOT
BRANCH   1  10
ATOM     10  C   UNL     1       0.434   9.947  -5.027  0.00  0.00    +0.151 C 
BRANCH  10  11
ATOM     11  C   UNL     1      -0.100   8.768  -5.793  0.00  0.00    -0.028 A 
ATOM     12  C   UNL     1       0.766   7.764  -6.250  0.00  0.00    +0.005 A 
ATOM     13  C   UNL     1      -1.472   8.646  -6.060  0.00  0.00    +0.005 A 
ATOM     14  C   UNL     1       0.267   6.654  -6.935  0.00  0.00    +0.000 A 
ATOM     15  C   UNL     1      -1.967   7.537  -6.745  0.00  0.00    +0.000 A 
ATOM     16  C   UNL     1      -1.097   6.540  -7.180  0.00  0.00    +0.000 A 
ENDBRANCH  10  11
ENDBRANCH   1  10
TORSDOF 2
ENDMDL
MODEL 6
REMARK VINA RESULT:    -5.217      8.519      9.366
REMARK INTER + INTRA:          -5.952
REMARK INTER:                  -5.834
REMARK INTRA:                  -0.118
REMARK UNBOUND:                -0.125
REMARK  Name = 1550473
REMARK  2 active torsions:
REMARK  status: ('A' for Active; 'I' for Inactive)
REMARK    1  A    between atoms: N_1  and  C_4
REMARK    2  A    between atoms: C_4  and  C_5
REMARK                            x       y       z     vdW  Elec       q    Type
REMARK                         _______ _______ _______ _____ _____    ______ ____
ROOT
ATOM      1  N   UNL     1      -1.860   9.197   4.463  0.00  0.00    -0.354 N 
ATOM      2  N   UNL     1      -3.441  10.438   5.614  0.00  0.00    -0.372 N 
ATOM      3  N   UNL     1      -1.947   9.165   6.804  0.00  0.00    -0.372 N 
ATOM      4  C   UNL     1      -2.404   9.591   5.622  0.00  0.00    +0.166 C 
ATOM      5  H   UNL     1      -2.271   9.532   3.599  0.00  0.00    +0.163 HD
ATOM      6  H   UNL     1      -3.870  10.755   6.473  0.00  0.00    +0.159 HD
ATOM      7  H   UNL     1      -3.821  10.807   4.751  0.00  0.00    +0.159 HD
ATOM      8  H   UNL     1      -1.172   8.521   6.878  0.00  0.00    +0.159 HD
ATOM      9  H   UNL     1      -2.371   9.462   7.674  0.00  0.00    +0.159 HD
ENDROOT
BRANCH   1  10
ATOM     10  C   UNL     1      -0.695   8.320   4.363  0.00  0.00    +0.151 C 
BRANCH  10  11
ATOM     11  C   UNL     1      -0.397   8.062   2.912  0.00  0.00    -0.028 A 
ATOM     12  C   UNL     1      -1.421   8.113   1.955  0.00  0.00    +0.005 A 
ATOM     13  C   UNL     1       0.908   7.772   2.486  0.00  0.00    +0.005 A 
ATOM     14  C   UNL     1      -1.140   7.903   0.602  0.00  0.00    +0.000 A 
ATOM     15  C   UNL     1       1.185   7.562   1.135  0.00  0.00    +0.000 A 
ATOM     16  C   UNL     1       0.161   7.630   0.193  0.00  0.00    +0.000 A 
ENDBRANCH  10  11
ENDBRANCH   1  10
TORSDOF 2
ENDMDL
MODEL 7
REMARK VINA RESULT:    -4.996     12.910     14.446
REMARK INTER + INTRA:          -5.705
REMARK INTER:                  -5.589
REMARK INTRA:                  -0.116
REMARK UNBOUND:                -0.125
REMARK  Name = 1550473
REMARK  2 active torsions:
REMARK  status: ('A' for Active; 'I' for Inactive)
REMARK    1  A    between atoms: N_1  and  C_4
REMARK    2  A    between atoms: C_4  and  C_5
REMARK                            x       y       z     vdW  Elec       q    Type
REMARK                         _______ _______ _______ _____ _____    ______ ____
ROOT
ATOM      1  N   UNL     1       6.911   0.653 -12.108  0.00  0.00    -0.354 N 
ATOM      2  N   UNL     1       6.605   2.802 -12.916  0.00  0.00    -0.372 N 
ATOM      3  N   UNL     1       7.261   2.520 -10.735  0.00  0.00    -0.372 N 
ATOM      4  C   UNL     1       6.928   1.978 -11.912  0.00  0.00    +0.166 C 
ATOM      5  H   UNL     1       6.620   0.305 -13.014  0.00  0.00    +0.163 HD
ATOM      6  H   UNL     1       6.613   3.807 -12.799  0.00  0.00    +0.159 HD
ATOM      7  H   UNL     1       6.360   2.452 -13.834  0.00  0.00    +0.159 HD
ATOM      8  H   UNL     1       7.510   1.953  -9.936  0.00  0.00    +0.159 HD
ATOM      9  H   UNL     1       7.264   3.523 -10.595  0.00  0.00    +0.159 HD
ENDROOT
BRANCH   1  10
ATOM     10  C   UNL     1       7.298  -0.328 -11.096  0.00  0.00    +0.151 C 
BRANCH  10  11
ATOM     11  C   UNL     1       6.575  -1.620 -11.363  0.00  0.00    -0.028 A 
ATOM     12  C   UNL     1       6.149  -2.430 -10.300  0.00  0.00    +0.005 A 
ATOM     13  C   UNL     1       6.308  -2.036 -12.676  0.00  0.00    +0.005 A 
ATOM     14  C   UNL     1       5.451  -3.614 -10.546  0.00  0.00    +0.000 A 
ATOM     15  C   UNL     1       5.612  -3.220 -12.918  0.00  0.00    +0.000 A 
ATOM     16  C   UNL     1       5.181  -4.008 -11.853  0.00  0.00    +0.000 A 
ENDBRANCH  10  11
ENDBRANCH   1  10
TORSDOF 2
ENDMDL
MODEL 8
REMARK VINA RESULT:    -4.908     19.267     20.389
REMARK INTER + INTRA:          -5.607
REMARK INTER:                  -5.498
REMARK INTRA:                  -0.110
REMARK UNBOUND:                -0.125
REMARK  Name = 1550473
REMARK  2 active torsions:
REMARK  status: ('A' for Active; 'I' for Inactive)
REMARK    1  A    between atoms: N_1  and  C_4
REMARK    2  A    between atoms: C_4  and  C_5
REMARK                            x       y       z     vdW  Elec       q    Type
REMARK                         _______ _______ _______ _____ _____    ______ ____
ROOT
ATOM      1  N   UNL     1      12.741   6.253   6.597  0.00  0.00    -0.354 N 
ATOM      2  N   UNL     1      14.545   7.010   5.356  0.00  0.00    -0.372 N 
ATOM      3  N   UNL     1      13.430   5.129   4.660  0.00  0.00    -0.372 N 
ATOM      4  C   UNL     1      13.560   6.123   5.544  0.00  0.00    +0.166 C 
ATOM      5  H   UNL     1      12.910   7.011   7.248  0.00  0.00    +0.163 HD
ATOM      6  H   UNL     1      15.176   6.939   4.569  0.00  0.00    +0.159 HD
ATOM      7  H   UNL     1      14.683   7.793   5.983  0.00  0.00    +0.159 HD
ATOM      8  H   UNL     1      12.711   4.423   4.748  0.00  0.00    +0.159 HD
ATOM      9  H   UNL     1      14.060   5.034   3.872  0.00  0.00    +0.159 HD
ENDROOT
BRANCH   1  10
ATOM     10  C   UNL     1      11.605   5.373   6.862  0.00  0.00    +0.151 C 
BRANCH  10  11
ATOM     11  C   UNL     1      11.271   5.429   8.328  0.00  0.00    -0.028 A 
ATOM     12  C   UNL     1      11.241   6.658   9.004  0.00  0.00    +0.005 A 
ATOM     13  C   UNL     1      10.980   4.259   9.044  0.00  0.00    +0.005 A 
ATOM     14  C   UNL     1      10.902   6.714  10.358  0.00  0.00    +0.000 A 
ATOM     15  C   UNL     1      10.643   4.319  10.397  0.00  0.00    +0.000 A 
ATOM     16  C   UNL     1      10.602   5.547  11.052  0.00  0.00    +0.000 A 
ENDBRANCH  10  11
ENDBRANCH   1  10
TORSDOF 2
ENDMDL
MODEL 9
REMARK VINA RESULT:    -4.903      2.281      3.108
REMARK INTER + INTRA:          -5.602
REMARK INTER:                  -5.445
REMARK INTRA:                  -0.157
REMARK UNBOUND:                -0.125
REMARK  Name = 1550473
REMARK  2 active torsions:
REMARK  status: ('A' for Active; 'I' for Inactive)
REMARK    1  A    between atoms: N_1  and  C_4
REMARK    2  A    between atoms: C_4  and  C_5
REMARK                            x       y       z     vdW  Elec       q    Type
REMARK                         _______ _______ _______ _____ _____    ______ ____
ROOT
ATOM      1  N   UNL     1      -0.550  11.131  -4.909  0.00  0.00    -0.354 N 
ATOM      2  N   UNL     1      -1.001  13.309  -5.555  0.00  0.00    -0.372 N 
ATOM      3  N   UNL     1      -2.726  11.995  -4.807  0.00  0.00    -0.372 N 
ATOM      4  C   UNL     1      -1.426  12.130  -5.085  0.00  0.00    +0.166 C 
ATOM      5  H   UNL     1       0.417  11.287  -5.168  0.00  0.00    +0.163 HD
ATOM      6  H   UNL     1      -1.637  14.082  -5.695  0.00  0.00    +0.159 HD
ATOM      7  H   UNL     1      -0.025  13.477  -5.770  0.00  0.00    +0.159 HD
ATOM      8  H   UNL     1      -3.112  11.128  -4.455  0.00  0.00    +0.159 HD
ATOM      9  H   UNL     1      -3.381  12.753  -4.951  0.00  0.00    +0.159 HD
ENDROOT
BRANCH   1  10
ATOM     10  C   UNL     1      -0.901   9.825  -4.353  0.00  0.00    +0.151 C 
BRANCH  10  11
ATOM     11  C   UNL     1      -0.667   8.768  -5.396  0.00  0.00    -0.028 A 
ATOM     12  C   UNL     1       0.605   8.201  -5.563  0.00  0.00    +0.005 A 
ATOM     13  C   UNL     1      -1.715   8.324  -6.218  0.00  0.00    +0.005 A 
ATOM     14  C   UNL     1       0.816   7.198  -6.511  0.00  0.00    +0.000 A 
ATOM     15  C   UNL     1      -1.500   7.323  -7.164  0.00  0.00    +0.000 A 
ATOM     16  C   UNL     1      -0.235   6.758  -7.309  0.00  0.00    +0.000 A 
ENDBRANCH  10  11
ENDBRANCH   1  10
TORSDOF 2
ENDMDL
