MODEL 1
REMARK VINA RESULT:    -4.843      0.000      0.000
REMARK INTER + INTRA:          -5.592
REMARK INTER:                  -5.409
REMARK INTRA:                  -0.183
REMARK UNBOUND:                -0.183
REMARK  Name = 1550473
REMARK  2 active torsions:
REMARK  status: ('A' for Active; 'I' for Inactive)
REMARK    1  A    between atoms: N_1  and  C_4
REMARK    2  A    between atoms: C_4  and  C_5
REMARK                            x       y       z     vdW  Elec       q    Type
REMARK                         _______ _______ _______ _____ _____    ______ ____
ROOT
ATOM      1  N   UNL     1       3.973   0.876  24.785  0.00  0.00    -0.354 N 
ATOM      2  N   UNL     1       3.257   2.139  22.980  0.00  0.00    -0.372 N 
ATOM      3  N   UNL     1       4.956   2.945  24.293  0.00  0.00    -0.372 N 
ATOM      4  C   UNL     1       4.069   1.980  24.032  0.00  0.00    +0.166 C 
ATOM      5  H   UNL     1       3.259   0.195  24.552  0.00  0.00    +0.163 HD
ATOM      6  H   UNL     1       3.308   2.960  22.392  0.00  0.00    +0.159 HD
ATOM      7  H   UNL     1       2.575   1.436  22.723  0.00  0.00    +0.159 HD
ATOM      8  H   UNL     1       5.594   2.889  25.076  0.00  0.00    +0.159 HD
ATOM      9  H   UNL     1       5.015   3.780  23.724  0.00  0.00    +0.159 HD
ENDROOT
BRANCH   1  10
ATOM     10  C   UNL     1       4.846   0.581  25.920  0.00  0.00    +0.151 C 
BRANCH  10  11
ATOM     11  C   UNL     1       5.947  -0.337  25.467  0.00  0.00    -0.028 A 
ATOM     12  C   UNL     1       5.688  -1.693  25.219  0.00  0.00    +0.005 A 
ATOM     13  C   UNL     1       7.252   0.145  25.279  0.00  0.00    +0.005 A 
ATOM     14  C   UNL     1       6.704  -2.539  24.770  0.00  0.00    +0.000 A 
ATOM     15  C   UNL     1       8.264  -0.704  24.831  0.00  0.00    +0.000 A 
ATOM     16  C   UNL     1       7.990  -2.045  24.574  0.00  0.00    +0.000 A 
ENDBRANCH  10  11
ENDBRANCH   1  10
TORSDOF 2
ENDMDL
MODEL 2
REMARK VINA RESULT:    -4.827     22.442     22.815
REMARK INTER + INTRA:          -5.575
REMARK INTER:                  -5.461
REMARK INTRA:                  -0.114
REMARK UNBOUND:                -0.183
REMARK  Name = 1550473
REMARK  2 active torsions:
REMARK  status: ('A' for Active; 'I' for Inactive)
REMARK    1  A    between atoms: N_1  and  C_4
REMARK    2  A    between atoms: C_4  and  C_5
REMARK                            x       y       z     vdW  Elec       q    Type
REMARK                         _______ _______ _______ _____ _____    ______ ____
ROOT
ATOM      1  N   UNL     1       4.924  -6.482   2.904  0.00  0.00    -0.354 N 
ATOM      2  N   UNL     1       3.658  -8.137   3.914  0.00  0.00    -0.372 N 
ATOM      3  N   UNL     1       2.587  -6.338   2.976  0.00  0.00    -0.372 N 
ATOM      4  C   UNL     1       3.729  -6.973   3.258  0.00  0.00    +0.166 C 
ATOM      5  H   UNL     1       5.755  -6.996   3.174  0.00  0.00    +0.163 HD
ATOM      6  H   UNL     1       2.770  -8.534   4.191  0.00  0.00    +0.159 HD
ATOM      7  H   UNL     1       4.487  -8.672   4.142  0.00  0.00    +0.159 HD
ATOM      8  H   UNL     1       2.572  -5.452   2.488  0.00  0.00    +0.159 HD
ATOM      9  H   UNL     1       1.689  -6.713   3.255  0.00  0.00    +0.159 HD
ENDROOT
BRANCH   1  10
ATOM     10  C   UNL     1       5.109  -5.249   2.140  0.00  0.00    +0.151 C 
BRANCH  10  11
ATOM     11  C   UNL     1       6.474  -4.691   2.430  0.00  0.00    -0.028 A 
ATOM     12  C   UNL     1       6.668  -3.306   2.541  0.00  0.00    +0.005 A 
ATOM     13  C   UNL     1       7.577  -5.541   2.602  0.00  0.00    +0.005 A 
ATOM     14  C   UNL     1       7.931  -2.788   2.841  0.00  0.00    +0.000 A 
ATOM     15  C   UNL     1       8.836  -5.020   2.900  0.00  0.00    +0.000 A 
ATOM     16  C   UNL     1       9.012  -3.644   3.022  0.00  0.00    +0.000 A 
ENDBRANCH  10  11
ENDBRANCH   1  10
TORSDOF 2
ENDMDL
MODEL 3
REMARK VINA RESULT:    -4.657     60.197     61.157
REMARK INTER + INTRA:          -5.385
REMARK INTER:                  -5.210
REMARK INTRA:                  -0.175
REMARK UNBOUND:                -0.183
REMARK  Name = 1550473
REMARK  2 active torsions:
REMARK  status: ('A' for Active; 'I' for Inactive)
REMARK    1  A    between atoms: N_1  and  C_4
REMARK    2  A    between atoms: C_4  and  C_5
REMARK                            x       y       z     vdW  Elec       q    Type
REMARK                         _______ _______ _______ _____ _____    ______ ____
ROOT
ATOM      1  N   UNL     1      -4.854 -24.514 -28.402  0.00  0.00    -0.354 N 
ATOM      2  N   UNL     1      -5.130 -24.198 -26.124  0.00  0.00    -0.372 N 
ATOM      3  N   UNL     1      -6.926 -23.872 -27.515  0.00  0.00    -0.372 N 
ATOM      4  C   UNL     1      -5.637 -24.196 -27.363  0.00  0.00    +0.166 C 
ATOM      5  H   UNL     1      -3.878 -24.721 -28.223  0.00  0.00    +0.163 HD
ATOM      6  H   UNL     1      -5.698 -23.966 -25.320  0.00  0.00    +0.159 HD
ATOM      7  H   UNL     1      -4.166 -24.450 -25.944  0.00  0.00    +0.159 HD
ATOM      8  H   UNL     1      -7.367 -23.846 -28.425  0.00  0.00    +0.159 HD
ATOM      9  H   UNL     1      -7.507 -23.625 -26.724  0.00  0.00    +0.159 HD
ENDROOT
BRANCH   1  10
ATOM     10  C   UNL     1      -5.321 -24.594 -29.785  0.00  0.00    +0.151 C 
BRANCH  10  11
ATOM     11  C   UNL     1      -5.457 -26.040 -30.175  0.00  0.00    -0.028 A 
ATOM     12  C   UNL     1      -6.719 -26.589 -30.446  0.00  0.00    +0.005 A 
ATOM     13  C   UNL     1      -4.327 -26.865 -30.280  0.00  0.00    +0.005 A 
ATOM     14  C   UNL     1      -6.843 -27.924 -30.837  0.00  0.00    +0.000 A 
ATOM     15  C   UNL     1      -4.455 -28.198 -30.670  0.00  0.00    +0.000 A 
ATOM     16  C   UNL     1      -5.712 -28.726 -30.951  0.00  0.00    +0.000 A 
ENDBRANCH  10  11
ENDBRANCH   1  10
TORSDOF 2
ENDMDL
MODEL 4
REMARK VINA RESULT:    -4.582     27.938     29.483
REMARK INTER + INTRA:          -5.300
REMARK INTER:                  -5.161
REMARK INTRA:                  -0.139
REMARK UNBOUND:                -0.183
REMARK  Name = 1550473
REMARK  2 active torsions:
REMARK  status: ('A' for Active; 'I' for Inactive)
REMARK    1  A    between atoms: N_1  and  C_4
REMARK    2  A    between atoms: C_4  and  C_5
REMARK                            x       y       z     vdW  Elec       q    Type
REMARK                         _______ _______ _______ _____ _____    ______ ____
ROOT
ATOM      1  N   UNL     1     -10.220   5.701   1.343  0.00  0.00    -0.354 N 
ATOM      2  N   UNL     1     -10.385   4.925   3.519  0.00  0.00    -0.372 N 
ATOM      3  N   UNL     1     -10.670   3.445   1.788  0.00  0.00    -0.372 N 
ATOM      4  C   UNL     1     -10.424   4.693   2.201  0.00  0.00    +0.166 C 
ATOM      5  H   UNL     1     -10.069   6.630   1.719  0.00  0.00    +0.163 HD
ATOM      6  H   UNL     1     -10.532   4.183   4.190  0.00  0.00    +0.159 HD
ATOM      7  H   UNL     1     -10.188   5.845   3.892  0.00  0.00    +0.159 HD
ATOM      8  H   UNL     1     -10.719   3.205   0.807  0.00  0.00    +0.159 HD
ATOM      9  H   UNL     1     -10.832   2.692   2.445  0.00  0.00    +0.159 HD
ENDROOT
BRANCH   1  10
ATOM     10  C   UNL     1     -10.189   5.545  -0.110  0.00  0.00    +0.151 C 
BRANCH  10  11
ATOM     11  C   UNL     1      -8.975   6.246  -0.654  0.00  0.00    -0.028 A 
ATOM     12  C   UNL     1      -9.080   7.089  -1.770  0.00  0.00    +0.005 A 
ATOM     13  C   UNL     1      -7.718   6.077  -0.054  0.00  0.00    +0.005 A 
ATOM     14  C   UNL     1      -7.958   7.764  -2.257  0.00  0.00    +0.000 A 
ATOM     15  C   UNL     1      -6.600   6.753  -0.544  0.00  0.00    +0.000 A 
ATOM     16  C   UNL     1      -6.721   7.598  -1.644  0.00  0.00    +0.000 A 
ENDBRANCH  10  11
ENDBRANCH   1  10
TORSDOF 2
ENDMDL
MODEL 5
REMARK VINA RESULT:    -4.483     25.662     27.746
REMARK INTER + INTRA:          -5.190
REMARK INTER:                  -5.045
REMARK INTRA:                  -0.145
REMARK UNBOUND:                -0.183
REMARK  Name = 1550473
REMARK  2 active torsions:
REMARK  status: ('A' for Active; 'I' for Inactive)
REMARK    1  A    between atoms: N_1  and  C_4
REMARK    2  A    between atoms: C_4  and  C_5
REMARK                            x       y       z     vdW  Elec       q    Type
REMARK                         _______ _______ _______ _____ _____    ______ ____
ROOT
ATOM      1  N   UNL     1      -5.340   9.909   2.681  0.00  0.00    -0.354 N 
ATOM      2  N   UNL     1      -3.826  11.574   3.229  0.00  0.00    -0.372 N 
ATOM      3  N   UNL     1      -3.273   9.388   3.656  0.00  0.00    -0.372 N 
ATOM      4  C   UNL     1      -4.155  10.277   3.186  0.00  0.00    +0.166 C 
ATOM      5  H   UNL     1      -5.976  10.633   2.369  0.00  0.00    +0.163 HD
ATOM      6  H   UNL     1      -2.937  11.882   3.601  0.00  0.00    +0.159 HD
ATOM      7  H   UNL     1      -4.445  12.293   2.874  0.00  0.00    +0.159 HD
ATOM      8  H   UNL     1      -3.463   8.395   3.658  0.00  0.00    +0.159 HD
ATOM      9  H   UNL     1      -2.384   9.677   4.043  0.00  0.00    +0.159 HD
ENDROOT
BRANCH   1  10
ATOM     10  C   UNL     1      -5.772   8.520   2.539  0.00  0.00    +0.151 C 
BRANCH  10  11
ATOM     11  C   UNL     1      -6.193   8.279   1.116  0.00  0.00    -0.028 A 
ATOM     12  C   UNL     1      -6.466   6.979   0.664  0.00  0.00    +0.005 A 
ATOM     13  C   UNL     1      -6.327   9.347   0.215  0.00  0.00    +0.005 A 
ATOM     14  C   UNL     1      -6.886   6.758  -0.650  0.00  0.00    +0.000 A 
ATOM     15  C   UNL     1      -6.746   9.122  -1.096  0.00  0.00    +0.000 A 
ATOM     16  C   UNL     1      -7.028   7.828  -1.527  0.00  0.00    +0.000 A 
ENDBRANCH  10  11
ENDBRANCH   1  10
TORSDOF 2
ENDMDL
MODEL 6
REMARK VINA RESULT:    -4.480     25.266     26.801
REMARK INTER + INTRA:          -5.186
REMARK INTER:                  -5.040
REMARK INTRA:                  -0.147
REMARK UNBOUND:                -0.183
REMARK  Name = 1550473
REMARK  2 active torsions:
REMARK  status: ('A' for Active; 'I' for Inactive)
REMARK    1  A    between atoms: N_1  and  C_4
REMARK    2  A    between atoms: C_4  and  C_5
REMARK                            x       y       z     vdW  Elec       q    Type
REMARK                         _______ _______ _______ _____ _____    ______ ____
ROOT
ATOM      1  N   UNL     1      -8.018   7.940   2.798  0.00  0.00    -0.354 N 
ATOM      2  N   UNL     1      -9.167   5.993   2.296  0.00  0.00    -0.372 N 
ATOM      3  N   UNL     1      -8.963   7.608   0.680  0.00  0.00    -0.372 N 
ATOM      4  C   UNL     1      -8.709   7.194   1.926  0.00  0.00    +0.166 C 
ATOM      5  H   UNL     1      -7.884   7.582   3.737  0.00  0.00    +0.163 HD
ATOM      6  H   UNL     1      -9.689   5.406   1.659  0.00  0.00    +0.159 HD
ATOM      7  H   UNL     1      -8.993   5.618   3.221  0.00  0.00    +0.159 HD
ATOM      8  H   UNL     1      -8.650   8.508   0.340  0.00  0.00    +0.159 HD
ATOM      9  H   UNL     1      -9.494   7.041   0.031  0.00  0.00    +0.159 HD
ENDROOT
BRANCH   1  10
ATOM     10  C   UNL     1      -7.429   9.239   2.478  0.00  0.00    +0.151 C 
BRANCH  10  11
ATOM     11  C   UNL     1      -5.937   9.158   2.647  0.00  0.00    -0.028 A 
ATOM     12  C   UNL     1      -5.375   8.312   3.615  0.00  0.00    +0.005 A 
ATOM     13  C   UNL     1      -5.079   9.919   1.839  0.00  0.00    +0.005 A 
ATOM     14  C   UNL     1      -3.989   8.214   3.752  0.00  0.00    +0.000 A 
ATOM     15  C   UNL     1      -3.695   9.819   1.980  0.00  0.00    +0.000 A 
ATOM     16  C   UNL     1      -3.150   8.964   2.934  0.00  0.00    +0.000 A 
ENDBRANCH  10  11
ENDBRANCH   1  10
TORSDOF 2
ENDMDL
MODEL 7
REMARK VINA RESULT:    -4.450     25.519     27.416
REMARK INTER + INTRA:          -5.154
REMARK INTER:                  -5.025
REMARK INTRA:                  -0.129
REMARK UNBOUND:                -0.183
REMARK  Name = 1550473
REMARK  2 active torsions:
REMARK  status: ('A' for Active; 'I' for Inactive)
REMARK    1  A    between atoms: N_1  and  C_4
REMARK    2  A    between atoms: C_4  and  C_5
REMARK                            x       y       z     vdW  Elec       q    Type
REMARK                         _______ _______ _______ _____ _____    ______ ____
ROOT
ATOM      1  N   UNL     1      -5.025   8.063   2.533  0.00  0.00    -0.354 N 
ATOM      2  N   UNL     1      -2.863   8.856   2.777  0.00  0.00    -0.372 N 
ATOM      3  N   UNL     1      -4.587  10.021   3.745  0.00  0.00    -0.372 N 
ATOM      4  C   UNL     1      -4.174   8.977   3.018  0.00  0.00    +0.166 C 
ATOM      5  H   UNL     1      -4.652   7.312   1.964  0.00  0.00    +0.163 HD
ATOM      6  H   UNL     1      -2.196   9.528   3.133  0.00  0.00    +0.159 HD
ATOM      7  H   UNL     1      -2.488   8.080   2.247  0.00  0.00    +0.159 HD
ATOM      8  H   UNL     1      -5.564  10.172   3.957  0.00  0.00    +0.159 HD
ATOM      9  H   UNL     1      -3.937  10.710   4.100  0.00  0.00    +0.159 HD
ENDROOT
BRANCH   1  10
ATOM     10  C   UNL     1      -6.465   8.073   2.783  0.00  0.00    +0.151 C 
BRANCH  10  11
ATOM     11  C   UNL     1      -7.168   7.398   1.638  0.00  0.00    -0.028 A 
ATOM     12  C   UNL     1      -6.570   7.342   0.370  0.00  0.00    +0.005 A 
ATOM     13  C   UNL     1      -8.428   6.807   1.815  0.00  0.00    +0.005 A 
ATOM     14  C   UNL     1      -7.209   6.688  -0.687  0.00  0.00    +0.000 A 
ATOM     15  C   UNL     1      -9.063   6.157   0.757  0.00  0.00    +0.000 A 
ATOM     16  C   UNL     1      -8.452   6.095  -0.493  0.00  0.00    +0.000 A 
ENDBRANCH  10  11
ENDBRANCH   1  10
TORSDOF 2
ENDMDL
MODEL 8
REMARK VINA RESULT:    -4.392     61.586     62.575
REMARK INTER + INTRA:          -5.089
REMARK INTER:                  -4.949
REMARK INTRA:                  -0.139
REMARK UNBOUND:                -0.183
REMARK  Name = 1550473
REMARK  2 active torsions:
REMARK  status: ('A' for Active; 'I' for Inactive)
REMARK    1  A    between atoms: N_1  and  C_4
REMARK    2  A    between atoms: C_4  and  C_5
REMARK                            x       y       z     vdW  Elec       q    Type
REMARK                         _______ _______ _______ _____ _____    ______ ____
ROOT
ATOM      1  N   UNL     1      -3.583 -26.723 -29.933  0.00  0.00    -0.354 N 
ATOM      2  N   UNL     1      -1.500 -27.425 -29.201  0.00  0.00    -0.372 N 
ATOM      3  N   UNL     1      -3.017 -26.660 -27.659  0.00  0.00    -0.372 N 
ATOM      4  C   UNL     1      -2.715 -26.930 -28.933  0.00  0.00    +0.166 C 
ATOM      5  H   UNL     1      -3.282 -26.920 -30.880  0.00  0.00    +0.163 HD
ATOM      6  H   UNL     1      -0.826 -27.596 -28.468  0.00  0.00    +0.159 HD
ATOM      7  H   UNL     1      -1.219 -27.665 -30.144  0.00  0.00    +0.159 HD
ATOM      8  H   UNL     1      -3.915 -26.279 -27.391  0.00  0.00    +0.159 HD
ATOM      9  H   UNL     1      -2.351 -26.812 -26.912  0.00  0.00    +0.159 HD
ENDROOT
BRANCH   1  10
ATOM     10  C   UNL     1      -4.948 -26.238 -29.742  0.00  0.00    +0.151 C 
BRANCH  10  11
ATOM     11  C   UNL     1      -5.901 -27.159 -30.453  0.00  0.00    -0.028 A 
ATOM     12  C   UNL     1      -7.232 -26.776 -30.673  0.00  0.00    +0.005 A 
ATOM     13  C   UNL     1      -5.476 -28.415 -30.915  0.00  0.00    +0.005 A 
ATOM     14  C   UNL     1      -8.109 -27.619 -31.360  0.00  0.00    +0.000 A 
ATOM     15  C   UNL     1      -6.355 -29.254 -31.600  0.00  0.00    +0.000 A 
ATOM     16  C   UNL     1      -7.670 -28.854 -31.824  0.00  0.00    +0.000 A 
ENDBRANCH  10  11
ENDBRANCH   1  10
TORSDOF 2
ENDMDL
MODEL 9
REMARK VINA RESULT:    -4.388     59.594     60.584
REMARK INTER + INTRA:          -5.085
REMARK INTER:                  -4.946
REMARK INTRA:                  -0.139
REMARK UNBOUND:                -0.183
REMARK  Name = 1550473
REMARK  2 active torsions:
REMARK  status: ('A' for Active; 'I' for Inactive)
REMARK    1  A    between atoms: N_1  and  C_4
REMARK    2  A    between atoms: C_4  and  C_5
REMARK                            x       y       z     vdW  Elec       q    Type
REMARK                         _______ _______ _______ _____ _____    ______ ____
ROOT
ATOM      1  N   UNL     1      -3.679 -26.970 -27.697  0.00  0.00    -0.354 N 
ATOM      2  N   UNL     1      -2.086 -28.462 -28.472  0.00  0.00    -0.372 N 
ATOM      3  N   UNL     1      -4.144 -29.263 -27.847  0.00  0.00    -0.372 N 
ATOM      4  C   UNL     1      -3.315 -28.224 -27.999  0.00  0.00    +0.166 C 
ATOM      5  H   UNL     1      -2.995 -26.231 -27.806  0.00  0.00    +0.163 HD
ATOM      6  H   UNL     1      -1.785 -29.397 -28.712  0.00  0.00    +0.159 HD
ATOM      7  H   UNL     1      -1.420 -27.715 -28.624  0.00  0.00    +0.159 HD
ATOM      8  H   UNL     1      -5.083 -29.151 -27.489  0.00  0.00    +0.159 HD
ATOM      9  H   UNL     1      -3.856 -30.207 -28.071  0.00  0.00    +0.159 HD
ENDROOT
BRANCH   1  10
ATOM     10  C   UNL     1      -5.012 -26.597 -27.226  0.00  0.00    +0.151 C 
BRANCH  10  11
ATOM     11  C   UNL     1      -5.625 -25.632 -28.203  0.00  0.00    -0.028 A 
ATOM     12  C   UNL     1      -4.894 -25.181 -29.312  0.00  0.00    +0.005 A 
ATOM     13  C   UNL     1      -6.938 -25.169 -28.029  0.00  0.00    +0.005 A 
ATOM     14  C   UNL     1      -5.474 -24.308 -30.236  0.00  0.00    +0.000 A 
ATOM     15  C   UNL     1      -7.513 -24.297 -28.953  0.00  0.00    +0.000 A 
ATOM     16  C   UNL     1      -6.781 -23.869 -30.058  0.00  0.00    +0.000 A 
ENDBRANCH  10  11
ENDBRANCH   1  10
TORSDOF 2
ENDMDL
