MODEL 1
REMARK VINA RESULT:    -5.369      0.000      0.000
REMARK INTER + INTRA:          -6.118
REMARK INTER:                  -5.996
REMARK INTRA:                  -0.121
REMARK UNBOUND:                -0.121
REMARK  Name = 1550473
REMARK  2 active torsions:
REMARK  status: ('A' for Active; 'I' for Inactive)
REMARK    1  A    between atoms: N_1  and  C_4
REMARK    2  A    between atoms: C_4  and  C_5
REMARK                            x       y       z     vdW  Elec       q    Type
REMARK                         _______ _______ _______ _____ _____    ______ ____
ROOT
ATOM      1  N   UNL     1      -3.255  14.985  13.124  0.00  0.00    -0.354 N 
ATOM      2  N   UNL     1      -4.144  17.069  12.644  0.00  0.00    -0.372 N 
ATOM      3  N   UNL     1      -2.008  16.589  11.958  0.00  0.00    -0.372 N 
ATOM      4  C   UNL     1      -3.127  16.201  12.578  0.00  0.00    +0.166 C 
ATOM      5  H   UNL     1      -4.119  14.762  13.606  0.00  0.00    +0.163 HD
ATOM      6  H   UNL     1      -4.078  17.992  12.238  0.00  0.00    +0.159 HD
ATOM      7  H   UNL     1      -5.023  16.827  13.086  0.00  0.00    +0.159 HD
ATOM      8  H   UNL     1      -1.202  15.984  11.879  0.00  0.00    +0.159 HD
ATOM      9  H   UNL     1      -1.918  17.514  11.556  0.00  0.00    +0.159 HD
ENDROOT
BRANCH   1  10
ATOM     10  C   UNL     1      -2.228  13.947  13.060  0.00  0.00    +0.151 C 
BRANCH  10  11
ATOM     11  C   UNL     1      -2.862  12.610  13.326  0.00  0.00    -0.028 A 
ATOM     12  C   UNL     1      -2.157  11.610  14.011  0.00  0.00    +0.005 A 
ATOM     13  C   UNL     1      -4.172  12.338  12.900  0.00  0.00    +0.005 A 
ATOM     14  C   UNL     1      -2.757  10.378  14.284  0.00  0.00    +0.000 A 
ATOM     15  C   UNL     1      -4.767  11.107  13.174  0.00  0.00    +0.000 A 
ATOM     16  C   UNL     1      -4.060  10.128  13.868  0.00  0.00    +0.000 A 
ENDBRANCH  10  11
ENDBRANCH   1  10
TORSDOF 2
ENDMDL
MODEL 2
REMARK VINA RESULT:    -5.255     21.726     22.400
REMARK INTER + INTRA:          -5.991
REMARK INTER:                  -5.876
REMARK INTRA:                  -0.114
REMARK UNBOUND:                -0.121
REMARK  Name = 1550473
REMARK  2 active torsions:
REMARK  status: ('A' for Active; 'I' for Inactive)
REMARK    1  A    between atoms: N_1  and  C_4
REMARK    2  A    between atoms: C_4  and  C_5
REMARK                            x       y       z     vdW  Elec       q    Type
REMARK                         _______ _______ _______ _____ _____    ______ ____
ROOT
ATOM      1  N   UNL     1      -3.173   0.249  -6.367  0.00  0.00    -0.354 N 
ATOM      2  N   UNL     1      -2.671  -1.257  -8.052  0.00  0.00    -0.372 N 
ATOM      3  N   UNL     1      -1.157   0.392  -7.552  0.00  0.00    -0.372 N 
ATOM      4  C   UNL     1      -2.335  -0.194  -7.313  0.00  0.00    +0.166 C 
ATOM      5  H   UNL     1      -4.065  -0.220  -6.255  0.00  0.00    +0.163 HD
ATOM      6  H   UNL     1      -2.058  -1.616  -8.771  0.00  0.00    +0.159 HD
ATOM      7  H   UNL     1      -3.543  -1.753  -7.908  0.00  0.00    +0.159 HD
ATOM      8  H   UNL     1      -0.847   1.203  -7.033  0.00  0.00    +0.159 HD
ATOM      9  H   UNL     1      -0.534   0.055  -8.275  0.00  0.00    +0.159 HD
ENDROOT
BRANCH   1  10
ATOM     10  C   UNL     1      -2.879   1.366  -5.471  0.00  0.00    +0.151 C 
BRANCH  10  11
ATOM     11  C   UNL     1      -2.798   0.856  -4.059  0.00  0.00    -0.028 A 
ATOM     12  C   UNL     1      -2.724   1.750  -2.981  0.00  0.00    +0.005 A 
ATOM     13  C   UNL     1      -2.803  -0.522  -3.791  0.00  0.00    +0.005 A 
ATOM     14  C   UNL     1      -2.679   1.277  -1.668  0.00  0.00    +0.000 A 
ATOM     15  C   UNL     1      -2.757  -0.990  -2.478  0.00  0.00    +0.000 A 
ATOM     16  C   UNL     1      -2.698  -0.091  -1.417  0.00  0.00    +0.000 A 
ENDBRANCH  10  11
ENDBRANCH   1  10
TORSDOF 2
ENDMDL
MODEL 3
REMARK VINA RESULT:    -4.962     25.930     26.583
REMARK INTER + INTRA:          -5.664
REMARK INTER:                  -5.533
REMARK INTRA:                  -0.131
REMARK UNBOUND:                -0.121
REMARK  Name = 1550473
REMARK  2 active torsions:
REMARK  status: ('A' for Active; 'I' for Inactive)
REMARK    1  A    between atoms: N_1  and  C_4
REMARK    2  A    between atoms: C_4  and  C_5
REMARK                            x       y       z     vdW  Elec       q    Type
REMARK                         _______ _______ _______ _____ _____    ______ ____
ROOT
ATOM      1  N   UNL     1      -5.138  -0.392 -10.937  0.00  0.00    -0.354 N 
ATOM      2  N   UNL     1      -5.405   0.346 -13.116  0.00  0.00    -0.372 N 
ATOM      3  N   UNL     1      -6.926   1.002 -11.528  0.00  0.00    -0.372 N 
ATOM      4  C   UNL     1      -5.823   0.315 -11.845  0.00  0.00    +0.166 C 
ATOM      5  H   UNL     1      -4.327  -0.916 -11.247  0.00  0.00    +0.163 HD
ATOM      6  H   UNL     1      -5.900   0.874 -13.822  0.00  0.00    +0.159 HD
ATOM      7  H   UNL     1      -4.569  -0.142 -13.414  0.00  0.00    +0.159 HD
ATOM      8  H   UNL     1      -7.297   1.015 -10.587  0.00  0.00    +0.159 HD
ATOM      9  H   UNL     1      -7.441   1.527 -12.223  0.00  0.00    +0.159 HD
ENDROOT
BRANCH   1  10
ATOM     10  C   UNL     1      -5.478  -0.448  -9.517  0.00  0.00    +0.151 C 
BRANCH  10  11
ATOM     11  C   UNL     1      -4.223  -0.289  -8.704  0.00  0.00    -0.028 A 
ATOM     12  C   UNL     1      -4.277   0.240  -7.406  0.00  0.00    +0.005 A 
ATOM     13  C   UNL     1      -2.977  -0.671  -9.224  0.00  0.00    +0.005 A 
ATOM     14  C   UNL     1      -3.115   0.360  -6.640  0.00  0.00    +0.000 A 
ATOM     15  C   UNL     1      -1.819  -0.549  -8.456  0.00  0.00    +0.000 A 
ATOM     16  C   UNL     1      -1.889  -0.036  -7.163  0.00  0.00    +0.000 A 
ENDBRANCH  10  11
ENDBRANCH   1  10
TORSDOF 2
ENDMDL
MODEL 4
REMARK VINA RESULT:    -4.869     19.421     20.558
REMARK INTER + INTRA:          -5.559
REMARK INTER:                  -5.441
REMARK INTRA:                  -0.119
REMARK UNBOUND:                -0.121
REMARK  Name = 1550473
REMARK  2 active torsions:
REMARK  status: ('A' for Active; 'I' for Inactive)
REMARK    1  A    between atoms: N_1  and  C_4
REMARK    2  A    between atoms: C_4  and  C_5
REMARK                            x       y       z     vdW  Elec       q    Type
REMARK                         _______ _______ _______ _____ _____    ______ ____
ROOT
ATOM      1  N   UNL     1     -11.426  14.896  -5.179  0.00  0.00    -0.354 N 
ATOM      2  N   UNL     1     -12.883  13.346  -4.264  0.00  0.00    -0.372 N 
ATOM      3  N   UNL     1     -13.409  14.307  -6.281  0.00  0.00    -0.372 N 
ATOM      4  C   UNL     1     -12.565  14.194  -5.250  0.00  0.00    +0.166 C 
ATOM      5  H   UNL     1     -10.844  14.788  -4.357  0.00  0.00    +0.163 HD
ATOM      6  H   UNL     1     -13.734  12.800  -4.291  0.00  0.00    +0.159 HD
ATOM      7  H   UNL     1     -12.277  13.206  -3.465  0.00  0.00    +0.159 HD
ATOM      8  H   UNL     1     -13.229  14.934  -7.053  0.00  0.00    +0.159 HD
ATOM      9  H   UNL     1     -14.271  13.778  -6.320  0.00  0.00    +0.159 HD
ENDROOT
BRANCH   1  10
ATOM     10  C   UNL     1     -10.960  15.806  -6.224  0.00  0.00    +0.151 C 
BRANCH  10  11
ATOM     11  C   UNL     1      -9.639  16.393  -5.812  0.00  0.00    -0.028 A 
ATOM     12  C   UNL     1      -8.768  16.931  -6.771  0.00  0.00    +0.005 A 
ATOM     13  C   UNL     1      -9.254  16.420  -4.463  0.00  0.00    +0.005 A 
ATOM     14  C   UNL     1      -7.554  17.503  -6.385  0.00  0.00    +0.000 A 
ATOM     15  C   UNL     1      -8.040  16.991  -4.082  0.00  0.00    +0.000 A 
ATOM     16  C   UNL     1      -7.191  17.535  -5.043  0.00  0.00    +0.000 A 
ENDBRANCH  10  11
ENDBRANCH   1  10
TORSDOF 2
ENDMDL
MODEL 5
REMARK VINA RESULT:    -4.702     23.733     24.477
REMARK INTER + INTRA:          -5.373
REMARK INTER:                  -5.346
REMARK INTRA:                  -0.027
REMARK UNBOUND:                -0.121
REMARK  Name = 1550473
REMARK  2 active torsions:
REMARK  status: ('A' for Active; 'I' for Inactive)
REMARK    1  A    between atoms: N_1  and  C_4
REMARK    2  A    between atoms: C_4  and  C_5
REMARK                            x       y       z     vdW  Elec       q    Type
REMARK                         _______ _______ _______ _____ _____    ______ ____
ROOT
ATOM      1  N   UNL     1      -3.634   1.353  -5.696  0.00  0.00    -0.354 N 
ATOM      2  N   UNL     1      -2.092   1.735  -4.010  0.00  0.00    -0.372 N 
ATOM      3  N   UNL     1      -3.238  -0.252  -4.035  0.00  0.00    -0.372 N 
ATOM      4  C   UNL     1      -2.999   0.940  -4.591  0.00  0.00    +0.166 C 
ATOM      5  H   UNL     1      -3.430   2.281  -6.050  0.00  0.00    +0.163 HD
ATOM      6  H   UNL     1      -1.595   1.449  -3.178  0.00  0.00    +0.159 HD
ATOM      7  H   UNL     1      -1.857   2.643  -4.393  0.00  0.00    +0.159 HD
ATOM      8  H   UNL     1      -3.916  -0.897  -4.421  0.00  0.00    +0.159 HD
ATOM      9  H   UNL     1      -2.759  -0.552  -3.195  0.00  0.00    +0.159 HD
ENDROOT
BRANCH   1  10
ATOM     10  C   UNL     1      -4.600   0.542  -6.435  0.00  0.00    +0.151 C 
BRANCH  10  11
ATOM     11  C   UNL     1      -3.950   0.025  -7.689  0.00  0.00    -0.028 A 
ATOM     12  C   UNL     1      -4.717  -0.231  -8.835  0.00  0.00    +0.005 A 
ATOM     13  C   UNL     1      -2.566  -0.205  -7.739  0.00  0.00    +0.005 A 
ATOM     14  C   UNL     1      -4.109  -0.683 -10.009  0.00  0.00    +0.000 A 
ATOM     15  C   UNL     1      -1.963  -0.657  -8.913  0.00  0.00    +0.000 A 
ATOM     16  C   UNL     1      -2.734  -0.893 -10.048  0.00  0.00    +0.000 A 
ENDBRANCH  10  11
ENDBRANCH   1  10
TORSDOF 2
ENDMDL
MODEL 6
REMARK VINA RESULT:    -4.697     27.708     28.958
REMARK INTER + INTRA:          -5.367
REMARK INTER:                  -5.229
REMARK INTRA:                  -0.139
REMARK UNBOUND:                -0.121
REMARK  Name = 1550473
REMARK  2 active torsions:
REMARK  status: ('A' for Active; 'I' for Inactive)
REMARK    1  A    between atoms: N_1  and  C_4
REMARK    2  A    between atoms: C_4  and  C_5
REMARK                            x       y       z     vdW  Elec       q    Type
REMARK                         _______ _______ _______ _____ _____    ______ ____
ROOT
ATOM      1  N   UNL     1      -9.921  -8.862  -6.166  0.00  0.00    -0.354 N 
ATOM      2  N   UNL     1     -11.811 -10.197  -6.270  0.00  0.00    -0.372 N 
ATOM      3  N   UNL     1      -9.837 -11.122  -5.553  0.00  0.00    -0.372 N 
ATOM      4  C   UNL     1     -10.508 -10.054  -5.995  0.00  0.00    +0.166 C 
ATOM      5  H   UNL     1     -10.478  -8.099  -6.532  0.00  0.00    +0.163 HD
ATOM      6  H   UNL     1     -12.282 -11.083  -6.147  0.00  0.00    +0.159 HD
ATOM      7  H   UNL     1     -12.376  -9.420  -6.592  0.00  0.00    +0.159 HD
ATOM      8  H   UNL     1      -8.851 -11.082  -5.333  0.00  0.00    +0.159 HD
ATOM      9  H   UNL     1     -10.289 -12.021  -5.435  0.00  0.00    +0.159 HD
ENDROOT
BRANCH   1  10
ATOM     10  C   UNL     1      -8.521  -8.587  -5.845  0.00  0.00    +0.151 C 
BRANCH  10  11
ATOM     11  C   UNL     1      -8.432  -7.270  -5.124  0.00  0.00    -0.028 A 
ATOM     12  C   UNL     1      -9.545  -6.754  -4.443  0.00  0.00    +0.005 A 
ATOM     13  C   UNL     1      -7.237  -6.535  -5.114  0.00  0.00    +0.005 A 
ATOM     14  C   UNL     1      -9.454  -5.545  -3.749  0.00  0.00    +0.000 A 
ATOM     15  C   UNL     1      -7.150  -5.329  -4.420  0.00  0.00    +0.000 A 
ATOM     16  C   UNL     1      -8.258  -4.835  -3.736  0.00  0.00    +0.000 A 
ENDBRANCH  10  11
ENDBRANCH   1  10
TORSDOF 2
ENDMDL
MODEL 7
REMARK VINA RESULT:    -4.665     25.889     27.042
REMARK INTER + INTRA:          -5.332
REMARK INTER:                  -5.192
REMARK INTRA:                  -0.140
REMARK UNBOUND:                -0.121
REMARK  Name = 1550473
REMARK  2 active torsions:
REMARK  status: ('A' for Active; 'I' for Inactive)
REMARK    1  A    between atoms: N_1  and  C_4
REMARK    2  A    between atoms: C_4  and  C_5
REMARK                            x       y       z     vdW  Elec       q    Type
REMARK                         _______ _______ _______ _____ _____    ______ ____
ROOT
ATOM      1  N   UNL     1      -9.958  -4.830  -3.737  0.00  0.00    -0.354 N 
ATOM      2  N   UNL     1     -11.278  -3.465  -2.411  0.00  0.00    -0.372 N 
ATOM      3  N   UNL     1      -9.064  -3.732  -1.869  0.00  0.00    -0.372 N 
ATOM      4  C   UNL     1     -10.089  -4.018  -2.680  0.00  0.00    +0.166 C 
ATOM      5  H   UNL     1     -10.780  -5.031  -4.295  0.00  0.00    +0.163 HD
ATOM      6  H   UNL     1     -11.407  -2.846  -1.622  0.00  0.00    +0.159 HD
ATOM      7  H   UNL     1     -12.087  -3.632  -2.997  0.00  0.00    +0.159 HD
ATOM      8  H   UNL     1      -8.142  -4.121  -2.014  0.00  0.00    +0.159 HD
ATOM      9  H   UNL     1      -9.176  -3.124  -1.068  0.00  0.00    +0.159 HD
ENDROOT
BRANCH   1  10
ATOM     10  C   UNL     1      -8.694  -5.439  -4.148  0.00  0.00    +0.151 C 
BRANCH  10  11
ATOM     11  C   UNL     1      -8.940  -6.875  -4.523  0.00  0.00    -0.028 A 
ATOM     12  C   UNL     1     -10.118  -7.523  -4.123  0.00  0.00    +0.005 A 
ATOM     13  C   UNL     1      -8.002  -7.590  -5.282  0.00  0.00    +0.005 A 
ATOM     14  C   UNL     1     -10.361  -8.847  -4.497  0.00  0.00    +0.000 A 
ATOM     15  C   UNL     1      -8.248  -8.913  -5.652  0.00  0.00    +0.000 A 
ATOM     16  C   UNL     1      -9.428  -9.540  -5.262  0.00  0.00    +0.000 A 
ENDBRANCH  10  11
ENDBRANCH   1  10
TORSDOF 2
ENDMDL
MODEL 8
REMARK VINA RESULT:    -4.642      4.925      6.521
REMARK INTER + INTRA:          -5.306
REMARK INTER:                  -5.144
REMARK INTRA:                  -0.162
REMARK UNBOUND:                -0.121
REMARK  Name = 1550473
REMARK  2 active torsions:
REMARK  status: ('A' for Active; 'I' for Inactive)
REMARK    1  A    between atoms: N_1  and  C_4
REMARK    2  A    between atoms: C_4  and  C_5
REMARK                            x       y       z     vdW  Elec       q    Type
REMARK                         _______ _______ _______ _____ _____    ______ ____
ROOT
ATOM      1  N   UNL     1      -2.991   8.805  12.628  0.00  0.00    -0.354 N 
ATOM      2  N   UNL     1      -3.907  10.605  11.496  0.00  0.00    -0.372 N 
ATOM      3  N   UNL     1      -5.096   9.654  13.212  0.00  0.00    -0.372 N 
ATOM      4  C   UNL     1      -3.994   9.676  12.454  0.00  0.00    +0.166 C 
ATOM      5  H   UNL     1      -2.197   8.854  12.001  0.00  0.00    +0.163 HD
ATOM      6  H   UNL     1      -4.646  11.278  11.343  0.00  0.00    +0.159 HD
ATOM      7  H   UNL     1      -3.091  10.682  10.901  0.00  0.00    +0.159 HD
ATOM      8  H   UNL     1      -5.226   8.973  13.949  0.00  0.00    +0.159 HD
ATOM      9  H   UNL     1      -5.852  10.311  13.067  0.00  0.00    +0.159 HD
ENDROOT
BRANCH   1  10
ATOM     10  C   UNL     1      -2.964   7.788  13.678  0.00  0.00    +0.151 C 
BRANCH  10  11
ATOM     11  C   UNL     1      -3.407   6.472  13.100  0.00  0.00    -0.028 A 
ATOM     12  C   UNL     1      -4.186   5.586  13.859  0.00  0.00    +0.005 A 
ATOM     13  C   UNL     1      -3.056   6.108  11.791  0.00  0.00    +0.005 A 
ATOM     14  C   UNL     1      -4.622   4.378  13.311  0.00  0.00    +0.000 A 
ATOM     15  C   UNL     1      -3.493   4.900  11.248  0.00  0.00    +0.000 A 
ATOM     16  C   UNL     1      -4.278   4.036  12.008  0.00  0.00    +0.000 A 
ENDBRANCH  10  11
ENDBRANCH   1  10
TORSDOF 2
ENDMDL
MODEL 9
REMARK VINA RESULT:    -4.563     24.804     25.895
REMARK INTER + INTRA:          -5.218
REMARK INTER:                  -5.104
REMARK INTRA:                  -0.114
REMARK UNBOUND:                -0.121
REMARK  Name = 1550473
REMARK  2 active torsions:
REMARK  status: ('A' for Active; 'I' for Inactive)
REMARK    1  A    between atoms: N_1  and  C_4
REMARK    2  A    between atoms: C_4  and  C_5
REMARK                            x       y       z     vdW  Elec       q    Type
REMARK                         _______ _______ _______ _____ _____    ______ ____
ROOT
ATOM      1  N   UNL     1      -7.969  -4.314  -2.664  0.00  0.00    -0.354 N 
ATOM      2  N   UNL     1      -8.061  -3.103  -0.692  0.00  0.00    -0.372 N 
ATOM      3  N   UNL     1      -6.676  -2.382  -2.372  0.00  0.00    -0.372 N 
ATOM      4  C   UNL     1      -7.566  -3.273  -1.923  0.00  0.00    +0.166 C 
ATOM      5  H   UNL     1      -8.624  -4.971  -2.255  0.00  0.00    +0.163 HD
ATOM      6  H   UNL     1      -7.779  -2.325  -0.111  0.00  0.00    +0.159 HD
ATOM      7  H   UNL     1      -8.750  -3.736  -0.303  0.00  0.00    +0.159 HD
ATOM      8  H   UNL     1      -6.260  -2.456  -3.291  0.00  0.00    +0.159 HD
ATOM      9  H   UNL     1      -6.371  -1.603  -1.801  0.00  0.00    +0.159 HD
ENDROOT
BRANCH   1  10
ATOM     10  C   UNL     1      -7.532  -4.559  -4.037  0.00  0.00    +0.151 C 
BRANCH  10  11
ATOM     11  C   UNL     1      -8.084  -5.878  -4.501  0.00  0.00    -0.028 A 
ATOM     12  C   UNL     1      -7.354  -6.685  -5.386  0.00  0.00    +0.005 A 
ATOM     13  C   UNL     1      -9.335  -6.330  -4.054  0.00  0.00    +0.005 A 
ATOM     14  C   UNL     1      -7.853  -7.924  -5.793  0.00  0.00    +0.000 A 
ATOM     15  C   UNL     1      -9.831  -7.568  -4.464  0.00  0.00    +0.000 A 
ATOM     16  C   UNL     1      -9.089  -8.366  -5.332  0.00  0.00    +0.000 A 
ENDBRANCH  10  11
ENDBRANCH   1  10
TORSDOF 2
ENDMDL
