MODEL 1
REMARK VINA RESULT:    -6.094      0.000      0.000
REMARK INTER + INTRA:          -6.989
REMARK INTER:                  -6.807
REMARK INTRA:                  -0.182
REMARK UNBOUND:                -0.182
REMARK  Name = 1550473
REMARK  2 active torsions:
REMARK  status: ('A' for Active; 'I' for Inactive)
REMARK    1  A    between atoms: N_1  and  C_4
REMARK    2  A    between atoms: C_4  and  C_5
REMARK                            x       y       z     vdW  Elec       q    Type
REMARK                         _______ _______ _______ _____ _____    ______ ____
ROOT
ATOM      1  N   UNL     1       3.586  -0.150   4.316  0.00  0.00    -0.354 N 
ATOM      2  N   UNL     1       5.556   1.030   4.018  0.00  0.00    -0.372 N 
ATOM      3  N   UNL     1       3.637   1.809   3.031  0.00  0.00    -0.372 N 
ATOM      4  C   UNL     1       4.245   0.890   3.789  0.00  0.00    +0.166 C 
ATOM      5  H   UNL     1       4.111  -0.828   4.856  0.00  0.00    +0.163 HD
ATOM      6  H   UNL     1       6.079   1.807   3.636  0.00  0.00    +0.159 HD
ATOM      7  H   UNL     1       6.069   0.376   4.596  0.00  0.00    +0.159 HD
ATOM      8  H   UNL     1       2.650   1.758   2.816  0.00  0.00    +0.159 HD
ATOM      9  H   UNL     1       4.145   2.587   2.631  0.00  0.00    +0.159 HD
ENDROOT
BRANCH   1  10
ATOM     10  C   UNL     1       2.147  -0.365   4.172  0.00  0.00    +0.151 C 
BRANCH  10  11
ATOM     11  C   UNL     1       1.446   0.174   5.387  0.00  0.00    -0.028 A 
ATOM     12  C   UNL     1       0.579   1.272   5.281  0.00  0.00    +0.005 A 
ATOM     13  C   UNL     1       1.639  -0.411   6.648  0.00  0.00    +0.005 A 
ATOM     14  C   UNL     1      -0.097   1.754   6.405  0.00  0.00    +0.000 A 
ATOM     15  C   UNL     1       0.964   0.074   7.768  0.00  0.00    +0.000 A 
ATOM     16  C   UNL     1       0.094   1.155   7.645  0.00  0.00    +0.000 A 
ENDBRANCH  10  11
ENDBRANCH   1  10
TORSDOF 2
ENDMDL
MODEL 2
REMARK VINA RESULT:    -5.972      3.188      4.100
REMARK INTER + INTRA:          -6.853
REMARK INTER:                  -6.760
REMARK INTRA:                  -0.092
REMARK UNBOUND:                -0.182
REMARK  Name = 1550473
REMARK  2 active torsions:
REMARK  status: ('A' for Active; 'I' for Inactive)
REMARK    1  A    between atoms: N_1  and  C_4
REMARK    2  A    between atoms: C_4  and  C_5
REMARK                            x       y       z     vdW  Elec       q    Type
REMARK                         _______ _______ _______ _____ _____    ______ ____
ROOT
ATOM      1  N   UNL     1       2.528   0.292   0.341  0.00  0.00    -0.354 N 
ATOM      2  N   UNL     1       3.204  -0.435  -1.751  0.00  0.00    -0.372 N 
ATOM      3  N   UNL     1       2.319   1.671  -1.542  0.00  0.00    -0.372 N 
ATOM      4  C   UNL     1       2.678   0.517  -0.971  0.00  0.00    +0.166 C 
ATOM      5  H   UNL     1       2.792  -0.616   0.707  0.00  0.00    +0.163 HD
ATOM      6  H   UNL     1       3.333  -0.293  -2.744  0.00  0.00    +0.159 HD
ATOM      7  H   UNL     1       3.509  -1.325  -1.375  0.00  0.00    +0.159 HD
ATOM      8  H   UNL     1       1.911   2.428  -1.009  0.00  0.00    +0.159 HD
ATOM      9  H   UNL     1       2.430   1.828  -2.536  0.00  0.00    +0.159 HD
ENDROOT
BRANCH   1  10
ATOM     10  C   UNL     1       2.016   1.282   1.287  0.00  0.00    +0.151 C 
BRANCH  10  11
ATOM     11  C   UNL     1       1.806   0.623   2.622  0.00  0.00    -0.028 A 
ATOM     12  C   UNL     1       2.760   0.759   3.641  0.00  0.00    +0.005 A 
ATOM     13  C   UNL     1       0.653  -0.135   2.877  0.00  0.00    +0.005 A 
ATOM     14  C   UNL     1       2.551   0.172   4.892  0.00  0.00    +0.000 A 
ATOM     15  C   UNL     1       0.448  -0.720   4.126  0.00  0.00    +0.000 A 
ATOM     16  C   UNL     1       1.397  -0.564   5.134  0.00  0.00    +0.000 A 
ENDBRANCH  10  11
ENDBRANCH   1  10
TORSDOF 2
ENDMDL
MODEL 3
REMARK VINA RESULT:    -5.911      2.049      2.834
REMARK INTER + INTRA:          -6.784
REMARK INTER:                  -6.670
REMARK INTRA:                  -0.114
REMARK UNBOUND:                -0.182
REMARK  Name = 1550473
REMARK  2 active torsions:
REMARK  status: ('A' for Active; 'I' for Inactive)
REMARK    1  A    between atoms: N_1  and  C_4
REMARK    2  A    between atoms: C_4  and  C_5
REMARK                            x       y       z     vdW  Elec       q    Type
REMARK                         _______ _______ _______ _____ _____    ______ ____
ROOT
ATOM      1  N   UNL     1       3.162   1.881   2.184  0.00  0.00    -0.354 N 
ATOM      2  N   UNL     1       2.917   1.819  -0.118  0.00  0.00    -0.372 N 
ATOM      3  N   UNL     1       4.320   0.308   0.888  0.00  0.00    -0.372 N 
ATOM      4  C   UNL     1       3.470   1.334   1.000  0.00  0.00    +0.166 C 
ATOM      5  H   UNL     1       2.534   2.676   2.198  0.00  0.00    +0.163 HD
ATOM      6  H   UNL     1       3.128   1.425  -1.026  0.00  0.00    +0.159 HD
ATOM      7  H   UNL     1       2.254   2.584  -0.097  0.00  0.00    +0.159 HD
ATOM      8  H   UNL     1       4.776  -0.099   1.694  0.00  0.00    +0.159 HD
ATOM      9  H   UNL     1       4.553  -0.092  -0.012  0.00  0.00    +0.159 HD
ENDROOT
BRANCH   1  10
ATOM     10  C   UNL     1       3.667   1.393   3.466  0.00  0.00    +0.151 C 
BRANCH  10  11
ATOM     11  C   UNL     1       2.635   1.648   4.530  0.00  0.00    -0.028 A 
ATOM     12  C   UNL     1       2.898   2.544   5.576  0.00  0.00    +0.005 A 
ATOM     13  C   UNL     1       1.391   1.000   4.494  0.00  0.00    +0.005 A 
ATOM     14  C   UNL     1       1.929   2.804   6.548  0.00  0.00    +0.000 A 
ATOM     15  C   UNL     1       0.426   1.262   5.467  0.00  0.00    +0.000 A 
ATOM     16  C   UNL     1       0.694   2.165   6.492  0.00  0.00    +0.000 A 
ENDBRANCH  10  11
ENDBRANCH   1  10
TORSDOF 2
ENDMDL
MODEL 4
REMARK VINA RESULT:    -5.753      5.979      7.388
REMARK INTER + INTRA:          -6.607
REMARK INTER:                  -6.483
REMARK INTRA:                  -0.124
REMARK UNBOUND:                -0.182
REMARK  Name = 1550473
REMARK  2 active torsions:
REMARK  status: ('A' for Active; 'I' for Inactive)
REMARK    1  A    between atoms: N_1  and  C_4
REMARK    2  A    between atoms: C_4  and  C_5
REMARK                            x       y       z     vdW  Elec       q    Type
REMARK                         _______ _______ _______ _____ _____    ______ ____
ROOT
ATOM      1  N   UNL     1      -2.023  -0.346  -0.530  0.00  0.00    -0.354 N 
ATOM      2  N   UNL     1      -4.315  -0.666  -0.439  0.00  0.00    -0.372 N 
ATOM      3  N   UNL     1      -3.365  -0.007  -2.421  0.00  0.00    -0.372 N 
ATOM      4  C   UNL     1      -3.219  -0.337  -1.133  0.00  0.00    +0.166 C 
ATOM      5  H   UNL     1      -1.983  -0.576   0.457  0.00  0.00    +0.163 HD
ATOM      6  H   UNL     1      -5.231  -0.672  -0.868  0.00  0.00    +0.159 HD
ATOM      7  H   UNL     1      -4.267  -0.940   0.535  0.00  0.00    +0.159 HD
ATOM      8  H   UNL     1      -2.578   0.257  -2.999  0.00  0.00    +0.159 HD
ATOM      9  H   UNL     1      -4.275   0.004  -2.865  0.00  0.00    +0.159 HD
ENDROOT
BRANCH   1  10
ATOM     10  C   UNL     1      -0.762  -0.056  -1.210  0.00  0.00    +0.151 C 
BRANCH  10  11
ATOM     11  C   UNL     1       0.316   0.147  -0.181  0.00  0.00    -0.028 A 
ATOM     12  C   UNL     1       0.050  -0.067   1.180  0.00  0.00    +0.005 A 
ATOM     13  C   UNL     1       1.606   0.547  -0.560  0.00  0.00    +0.005 A 
ATOM     14  C   UNL     1       1.059   0.092   2.133  0.00  0.00    +0.000 A 
ATOM     15  C   UNL     1       2.610   0.705   0.395  0.00  0.00    +0.000 A 
ATOM     16  C   UNL     1       2.337   0.475   1.741  0.00  0.00    +0.000 A 
ENDBRANCH  10  11
ENDBRANCH   1  10
TORSDOF 2
ENDMDL
MODEL 5
REMARK VINA RESULT:    -5.396      3.733      5.125
REMARK INTER + INTRA:          -6.209
REMARK INTER:                  -6.084
REMARK INTRA:                  -0.125
REMARK UNBOUND:                -0.182
REMARK  Name = 1550473
REMARK  2 active torsions:
REMARK  status: ('A' for Active; 'I' for Inactive)
REMARK    1  A    between atoms: N_1  and  C_4
REMARK    2  A    between atoms: C_4  and  C_5
REMARK                            x       y       z     vdW  Elec       q    Type
REMARK                         _______ _______ _______ _____ _____    ______ ____
ROOT
ATOM      1  N   UNL     1       2.190   0.176   0.048  0.00  0.00    -0.354 N 
ATOM      2  N   UNL     1       0.270   0.127  -1.245  0.00  0.00    -0.372 N 
ATOM      3  N   UNL     1       1.889   1.680  -1.723  0.00  0.00    -0.372 N 
ATOM      4  C   UNL     1       1.464   0.664  -0.966  0.00  0.00    +0.166 C 
ATOM      5  H   UNL     1       1.798  -0.576   0.603  0.00  0.00    +0.163 HD
ATOM      6  H   UNL     1      -0.300   0.471  -2.006  0.00  0.00    +0.159 HD
ATOM      7  H   UNL     1      -0.099  -0.655  -0.718  0.00  0.00    +0.159 HD
ATOM      8  H   UNL     1       2.778   2.134  -1.561  0.00  0.00    +0.159 HD
ATOM      9  H   UNL     1       1.328   2.047  -2.482  0.00  0.00    +0.159 HD
ENDROOT
BRANCH   1  10
ATOM     10  C   UNL     1       3.526   0.654   0.401  0.00  0.00    +0.151 C 
BRANCH  10  11
ATOM     11  C   UNL     1       3.609   0.823   1.893  0.00  0.00    -0.028 A 
ATOM     12  C   UNL     1       4.274  -0.127   2.681  0.00  0.00    +0.005 A 
ATOM     13  C   UNL     1       3.030   1.935   2.523  0.00  0.00    +0.005 A 
ATOM     14  C   UNL     1       4.377   0.045   4.064  0.00  0.00    +0.000 A 
ATOM     15  C   UNL     1       3.134   2.103   3.904  0.00  0.00    +0.000 A 
ATOM     16  C   UNL     1       3.810   1.159   4.674  0.00  0.00    +0.000 A 
ENDBRANCH  10  11
ENDBRANCH   1  10
TORSDOF 2
ENDMDL
MODEL 6
REMARK VINA RESULT:    -5.365      2.468      4.384
REMARK INTER + INTRA:          -6.175
REMARK INTER:                  -6.003
REMARK INTRA:                  -0.172
REMARK UNBOUND:                -0.182
REMARK  Name = 1550473
REMARK  2 active torsions:
REMARK  status: ('A' for Active; 'I' for Inactive)
REMARK    1  A    between atoms: N_1  and  C_4
REMARK    2  A    between atoms: C_4  and  C_5
REMARK                            x       y       z     vdW  Elec       q    Type
REMARK                         _______ _______ _______ _____ _____    ______ ____
ROOT
ATOM      1  N   UNL     1       2.642   0.264   6.318  0.00  0.00    -0.354 N 
ATOM      2  N   UNL     1       2.609  -1.574   7.726  0.00  0.00    -0.372 N 
ATOM      3  N   UNL     1       0.677  -0.372   7.425  0.00  0.00    -0.372 N 
ATOM      4  C   UNL     1       1.974  -0.547   7.148  0.00  0.00    +0.166 C 
ATOM      5  H   UNL     1       3.631   0.096   6.172  0.00  0.00    +0.163 HD
ATOM      6  H   UNL     1       2.130  -2.205   8.355  0.00  0.00    +0.159 HD
ATOM      7  H   UNL     1       3.586  -1.767   7.543  0.00  0.00    +0.159 HD
ATOM      8  H   UNL     1       0.142   0.387   7.026  0.00  0.00    +0.159 HD
ATOM      9  H   UNL     1       0.184  -0.987   8.061  0.00  0.00    +0.159 HD
ENDROOT
BRANCH   1  10
ATOM     10  C   UNL     1       2.030   1.378   5.595  0.00  0.00    +0.151 C 
BRANCH  10  11
ATOM     11  C   UNL     1       1.857   0.991   4.152  0.00  0.00    -0.028 A 
ATOM     12  C   UNL     1       2.827   1.339   3.200  0.00  0.00    +0.005 A 
ATOM     13  C   UNL     1       0.728   0.271   3.731  0.00  0.00    +0.005 A 
ATOM     14  C   UNL     1       2.681   0.954   1.865  0.00  0.00    +0.000 A 
ATOM     15  C   UNL     1       0.586  -0.111   2.397  0.00  0.00    +0.000 A 
ATOM     16  C   UNL     1       1.564   0.229   1.465  0.00  0.00    +0.000 A 
ENDBRANCH  10  11
ENDBRANCH   1  10
TORSDOF 2
ENDMDL
MODEL 7
REMARK VINA RESULT:    -5.322      2.653      3.698
REMARK INTER + INTRA:          -6.126
REMARK INTER:                  -6.046
REMARK INTRA:                  -0.080
REMARK UNBOUND:                -0.182
REMARK  Name = 1550473
REMARK  2 active torsions:
REMARK  status: ('A' for Active; 'I' for Inactive)
REMARK    1  A    between atoms: N_1  and  C_4
REMARK    2  A    between atoms: C_4  and  C_5
REMARK                            x       y       z     vdW  Elec       q    Type
REMARK                         _______ _______ _______ _____ _____    ______ ____
ROOT
ATOM      1  N   UNL     1       3.427   1.836   5.827  0.00  0.00    -0.354 N 
ATOM      2  N   UNL     1       3.337   2.489   8.047  0.00  0.00    -0.372 N 
ATOM      3  N   UNL     1       2.464   3.881   6.446  0.00  0.00    -0.372 N 
ATOM      4  C   UNL     1       3.075   2.734   6.758  0.00  0.00    +0.166 C 
ATOM      5  H   UNL     1       3.915   0.999   6.126  0.00  0.00    +0.163 HD
ATOM      6  H   UNL     1       3.081   3.147   8.772  0.00  0.00    +0.159 HD
ATOM      7  H   UNL     1       3.784   1.631   8.347  0.00  0.00    +0.159 HD
ATOM      8  H   UNL     1       2.243   4.128   5.490  0.00  0.00    +0.159 HD
ATOM      9  H   UNL     1       2.210   4.557   7.156  0.00  0.00    +0.159 HD
ENDROOT
BRANCH   1  10
ATOM     10  C   UNL     1       3.139   1.981   4.401  0.00  0.00    +0.151 C 
BRANCH  10  11
ATOM     11  C   UNL     1       2.060   1.007   4.016  0.00  0.00    -0.028 A 
ATOM     12  C   UNL     1       1.406   0.245   4.996  0.00  0.00    +0.005 A 
ATOM     13  C   UNL     1       1.683   0.846   2.674  0.00  0.00    +0.005 A 
ATOM     14  C   UNL     1       0.382  -0.637   4.642  0.00  0.00    +0.000 A 
ATOM     15  C   UNL     1       0.661  -0.038   2.325  0.00  0.00    +0.000 A 
ATOM     16  C   UNL     1       0.010  -0.777   3.309  0.00  0.00    +0.000 A 
ENDBRANCH  10  11
ENDBRANCH   1  10
TORSDOF 2
ENDMDL
MODEL 8
REMARK VINA RESULT:    -4.928     14.147     15.578
REMARK INTER + INTRA:          -5.686
REMARK INTER:                  -5.568
REMARK INTRA:                  -0.118
REMARK UNBOUND:                -0.182
REMARK  Name = 1550473
REMARK  2 active torsions:
REMARK  status: ('A' for Active; 'I' for Inactive)
REMARK    1  A    between atoms: N_1  and  C_4
REMARK    2  A    between atoms: C_4  and  C_5
REMARK                            x       y       z     vdW  Elec       q    Type
REMARK                         _______ _______ _______ _____ _____    ______ ____
ROOT
ATOM      1  N   UNL     1       5.302  -1.968  21.097  0.00  0.00    -0.354 N 
ATOM      2  N   UNL     1       4.864  -4.239  21.223  0.00  0.00    -0.372 N 
ATOM      3  N   UNL     1       3.160  -2.757  21.630  0.00  0.00    -0.372 N 
ATOM      4  C   UNL     1       4.443  -2.972  21.316  0.00  0.00    +0.166 C 
ATOM      5  H   UNL     1       6.268  -2.197  20.893  0.00  0.00    +0.163 HD
ATOM      6  H   UNL     1       4.238  -5.017  21.380  0.00  0.00    +0.159 HD
ATOM      7  H   UNL     1       5.820  -4.465  20.974  0.00  0.00    +0.159 HD
ATOM      8  H   UNL     1       2.781  -1.824  21.722  0.00  0.00    +0.159 HD
ATOM      9  H   UNL     1       2.521  -3.522  21.802  0.00  0.00    +0.159 HD
ENDROOT
BRANCH   1  10
ATOM     10  C   UNL     1       4.931  -0.554  21.121  0.00  0.00    +0.151 C 
BRANCH  10  11
ATOM     11  C   UNL     1       5.441   0.109  19.872  0.00  0.00    -0.028 A 
ATOM     12  C   UNL     1       4.546   0.595  18.907  0.00  0.00    +0.005 A 
ATOM     13  C   UNL     1       6.818   0.260  19.649  0.00  0.00    +0.005 A 
ATOM     14  C   UNL     1       5.018   1.238  17.760  0.00  0.00    +0.000 A 
ATOM     15  C   UNL     1       7.286   0.902  18.502  0.00  0.00    +0.000 A 
ATOM     16  C   UNL     1       6.386   1.393  17.560  0.00  0.00    +0.000 A 
ENDBRANCH  10  11
ENDBRANCH   1  10
TORSDOF 2
ENDMDL
MODEL 9
REMARK VINA RESULT:    -4.886     15.124     16.200
REMARK INTER + INTRA:          -5.640
REMARK INTER:                  -5.493
REMARK INTRA:                  -0.146
REMARK UNBOUND:                -0.182
REMARK  Name = 1550473
REMARK  2 active torsions:
REMARK  status: ('A' for Active; 'I' for Inactive)
REMARK    1  A    between atoms: N_1  and  C_4
REMARK    2  A    between atoms: C_4  and  C_5
REMARK                            x       y       z     vdW  Elec       q    Type
REMARK                         _______ _______ _______ _____ _____    ______ ____
ROOT
ATOM      1  N   UNL     1      -5.961   5.247  19.223  0.00  0.00    -0.354 N 
ATOM      2  N   UNL     1      -3.970   4.347  19.991  0.00  0.00    -0.372 N 
ATOM      3  N   UNL     1      -5.623   2.929  19.271  0.00  0.00    -0.372 N 
ATOM      4  C   UNL     1      -5.199   4.178  19.489  0.00  0.00    +0.166 C 
ATOM      5  H   UNL     1      -5.593   6.166  19.439  0.00  0.00    +0.163 HD
ATOM      6  H   UNL     1      -3.371   3.560  20.199  0.00  0.00    +0.159 HD
ATOM      7  H   UNL     1      -3.587   5.269  20.163  0.00  0.00    +0.159 HD
ATOM      8  H   UNL     1      -6.543   2.733  18.899  0.00  0.00    +0.159 HD
ATOM      9  H   UNL     1      -5.043   2.127  19.483  0.00  0.00    +0.159 HD
ENDROOT
BRANCH   1  10
ATOM     10  C   UNL     1      -7.293   5.174  18.625  0.00  0.00    +0.151 C 
BRANCH  10  11
ATOM     11  C   UNL     1      -7.274   5.875  17.295  0.00  0.00    -0.028 A 
ATOM     12  C   UNL     1      -7.240   7.276  17.229  0.00  0.00    +0.005 A 
ATOM     13  C   UNL     1      -7.283   5.144  16.097  0.00  0.00    +0.005 A 
ATOM     14  C   UNL     1      -7.192   7.927  15.994  0.00  0.00    +0.000 A 
ATOM     15  C   UNL     1      -7.236   5.798  14.865  0.00  0.00    +0.000 A 
ATOM     16  C   UNL     1      -7.188   7.189  14.814  0.00  0.00    +0.000 A 
ENDBRANCH  10  11
ENDBRANCH   1  10
TORSDOF 2
ENDMDL
