MODEL 1
REMARK VINA RESULT:    -4.316      0.000      0.000
REMARK INTER + INTRA:          -4.995
REMARK INTER:                  -4.821
REMARK INTRA:                  -0.174
REMARK UNBOUND:                -0.174
REMARK  Name = 1550473
REMARK  2 active torsions:
REMARK  status: ('A' for Active; 'I' for Inactive)
REMARK    1  A    between atoms: N_1  and  C_4
REMARK    2  A    between atoms: C_4  and  C_5
REMARK                            x       y       z     vdW  Elec       q    Type
REMARK                         _______ _______ _______ _____ _____    ______ ____
ROOT
ATOM      1  N   UNL     1      -1.205  -6.461 -40.618  0.00  0.00    -0.354 N 
ATOM      2  N   UNL     1      -0.017  -6.271 -38.639  0.00  0.00    -0.372 N 
ATOM      3  N   UNL     1      -2.275  -6.667 -38.544  0.00  0.00    -0.372 N 
ATOM      4  C   UNL     1      -1.176  -6.468 -39.279  0.00  0.00    +0.166 C 
ATOM      5  H   UNL     1      -0.342  -6.275 -41.117  0.00  0.00    +0.163 HD
ATOM      6  H   UNL     1       0.036  -6.274 -37.629  0.00  0.00    +0.159 HD
ATOM      7  H   UNL     1       0.851  -6.131 -39.140  0.00  0.00    +0.159 HD
ATOM      8  H   UNL     1      -3.182  -6.816 -38.966  0.00  0.00    +0.159 HD
ATOM      9  H   UNL     1      -2.245  -6.662 -37.532  0.00  0.00    +0.159 HD
ENDROOT
BRANCH   1  10
ATOM     10  C   UNL     1      -2.405  -6.719 -41.412  0.00  0.00    +0.151 C 
BRANCH  10  11
ATOM     11  C   UNL     1      -2.313  -8.096 -42.008  0.00  0.00    -0.028 A 
ATOM     12  C   UNL     1      -1.365  -8.380 -43.002  0.00  0.00    +0.005 A 
ATOM     13  C   UNL     1      -3.167  -9.124 -41.579  0.00  0.00    +0.005 A 
ATOM     14  C   UNL     1      -1.260  -9.667 -43.535  0.00  0.00    +0.000 A 
ATOM     15  C   UNL     1      -3.059 -10.407 -42.114  0.00  0.00    +0.000 A 
ATOM     16  C   UNL     1      -2.104 -10.679 -43.090  0.00  0.00    +0.000 A 
ENDBRANCH  10  11
ENDBRANCH   1  10
TORSDOF 2
ENDMDL
MODEL 2
REMARK VINA RESULT:    -4.203     49.463     51.219
REMARK INTER + INTRA:          -4.868
REMARK INTER:                  -4.773
REMARK INTRA:                  -0.095
REMARK UNBOUND:                -0.174
REMARK  Name = 1550473
REMARK  2 active torsions:
REMARK  status: ('A' for Active; 'I' for Inactive)
REMARK    1  A    between atoms: N_1  and  C_4
REMARK    2  A    between atoms: C_4  and  C_5
REMARK                            x       y       z     vdW  Elec       q    Type
REMARK                         _______ _______ _______ _____ _____    ______ ____
ROOT
ATOM      1  N   UNL     1       1.396  19.254   3.695  0.00  0.00    -0.354 N 
ATOM      2  N   UNL     1       0.852  20.423   5.619  0.00  0.00    -0.372 N 
ATOM      3  N   UNL     1       1.908  18.395   5.815  0.00  0.00    -0.372 N 
ATOM      4  C   UNL     1       1.390  19.347   5.031  0.00  0.00    +0.166 C 
ATOM      5  H   UNL     1       0.961  19.995   3.158  0.00  0.00    +0.163 HD
ATOM      6  H   UNL     1       0.835  20.523   6.625  0.00  0.00    +0.159 HD
ATOM      7  H   UNL     1       0.458  21.184   5.079  0.00  0.00    +0.159 HD
ATOM      8  H   UNL     1       2.324  17.556   5.434  0.00  0.00    +0.159 HD
ATOM      9  H   UNL     1       1.890  18.472   6.824  0.00  0.00    +0.159 HD
ENDROOT
BRANCH   1  10
ATOM     10  C   UNL     1       2.006  18.150   2.956  0.00  0.00    +0.151 C 
BRANCH  10  11
ATOM     11  C   UNL     1       1.775  18.357   1.484  0.00  0.00    -0.028 A 
ATOM     12  C   UNL     1       2.395  19.418   0.809  0.00  0.00    +0.005 A 
ATOM     13  C   UNL     1       0.941  17.493   0.758  0.00  0.00    +0.005 A 
ATOM     14  C   UNL     1       2.205  19.594  -0.564  0.00  0.00    +0.000 A 
ATOM     15  C   UNL     1       0.753  17.672  -0.612  0.00  0.00    +0.000 A 
ATOM     16  C   UNL     1       1.387  18.721  -1.273  0.00  0.00    +0.000 A 
ENDBRANCH  10  11
ENDBRANCH   1  10
TORSDOF 2
ENDMDL
MODEL 3
REMARK VINA RESULT:    -4.121     23.198     24.452
REMARK INTER + INTRA:          -4.776
REMARK INTER:                  -4.644
REMARK INTRA:                  -0.132
REMARK UNBOUND:                -0.174
REMARK  Name = 1550473
REMARK  2 active torsions:
REMARK  status: ('A' for Active; 'I' for Inactive)
REMARK    1  A    between atoms: N_1  and  C_4
REMARK    2  A    between atoms: C_4  and  C_5
REMARK                            x       y       z     vdW  Elec       q    Type
REMARK                         _______ _______ _______ _____ _____    ______ ____
ROOT
ATOM      1  N   UNL     1     -11.339 -12.244 -63.776  0.00  0.00    -0.354 N 
ATOM      2  N   UNL     1     -12.852 -13.352 -65.135  0.00  0.00    -0.372 N 
ATOM      3  N   UNL     1     -13.423 -12.932 -62.952  0.00  0.00    -0.372 N 
ATOM      4  C   UNL     1     -12.530 -12.836 -63.943  0.00  0.00    +0.166 C 
ATOM      5  H   UNL     1     -10.695 -12.230 -64.558  0.00  0.00    +0.163 HD
ATOM      6  H   UNL     1     -13.744 -13.802 -65.292  0.00  0.00    +0.159 HD
ATOM      7  H   UNL     1     -12.224 -13.296 -65.928  0.00  0.00    +0.159 HD
ATOM      8  H   UNL     1     -13.238 -12.568 -62.027  0.00  0.00    +0.159 HD
ATOM      9  H   UNL     1     -14.316 -13.389 -63.087  0.00  0.00    +0.159 HD
ENDROOT
BRANCH   1  10
ATOM     10  C   UNL     1     -10.912 -11.603 -62.534  0.00  0.00    +0.151 C 
BRANCH  10  11
ATOM     11  C   UNL     1     -10.212 -10.313 -62.862  0.00  0.00    -0.028 A 
ATOM     12  C   UNL     1     -10.069  -9.313 -61.890  0.00  0.00    +0.005 A 
ATOM     13  C   UNL     1      -9.683 -10.088 -64.142  0.00  0.00    +0.005 A 
ATOM     14  C   UNL     1      -9.392  -8.127 -62.185  0.00  0.00    +0.000 A 
ATOM     15  C   UNL     1      -9.008  -8.903 -64.434  0.00  0.00    +0.000 A 
ATOM     16  C   UNL     1      -8.861  -7.924 -63.455  0.00  0.00    +0.000 A 
ENDBRANCH  10  11
ENDBRANCH   1  10
TORSDOF 2
ENDMDL
MODEL 4
REMARK VINA RESULT:    -4.038     56.773     57.787
REMARK INTER + INTRA:          -4.684
REMARK INTER:                  -4.536
REMARK INTRA:                  -0.149
REMARK UNBOUND:                -0.174
REMARK  Name = 1550473
REMARK  2 active torsions:
REMARK  status: ('A' for Active; 'I' for Inactive)
REMARK    1  A    between atoms: N_1  and  C_4
REMARK    2  A    between atoms: C_4  and  C_5
REMARK                            x       y       z     vdW  Elec       q    Type
REMARK                         _______ _______ _______ _____ _____    ______ ____
ROOT
ATOM      1  N   UNL     1     -23.903 -33.745   7.230  0.00  0.00    -0.354 N 
ATOM      2  N   UNL     1     -24.627 -33.021   9.307  0.00  0.00    -0.372 N 
ATOM      3  N   UNL     1     -23.260 -34.860   9.188  0.00  0.00    -0.372 N 
ATOM      4  C   UNL     1     -23.924 -33.882   8.562  0.00  0.00    +0.166 C 
ATOM      5  H   UNL     1     -24.451 -33.001   6.814  0.00  0.00    +0.163 HD
ATOM      6  H   UNL     1     -24.659 -33.097  10.315  0.00  0.00    +0.159 HD
ATOM      7  H   UNL     1     -25.137 -32.251   8.892  0.00  0.00    +0.159 HD
ATOM      8  H   UNL     1     -22.716 -35.546   8.683  0.00  0.00    +0.159 HD
ATOM      9  H   UNL     1     -23.289 -34.960  10.195  0.00  0.00    +0.159 HD
ENDROOT
BRANCH   1  10
ATOM     10  C   UNL     1     -23.125 -34.597   6.332  0.00  0.00    +0.151 C 
BRANCH  10  11
ATOM     11  C   UNL     1     -22.144 -33.746   5.574  0.00  0.00    -0.028 A 
ATOM     12  C   UNL     1     -21.076 -34.335   4.883  0.00  0.00    +0.005 A 
ATOM     13  C   UNL     1     -22.281 -32.350   5.538  0.00  0.00    +0.005 A 
ATOM     14  C   UNL     1     -20.181 -33.548   4.154  0.00  0.00    +0.000 A 
ATOM     15  C   UNL     1     -21.386 -31.567   4.810  0.00  0.00    +0.000 A 
ATOM     16  C   UNL     1     -20.338 -32.166   4.116  0.00  0.00    +0.000 A 
ENDBRANCH  10  11
ENDBRANCH   1  10
TORSDOF 2
ENDMDL
MODEL 5
REMARK VINA RESULT:    -4.032     56.406     57.419
REMARK INTER + INTRA:          -4.677
REMARK INTER:                  -4.577
REMARK INTRA:                  -0.100
REMARK UNBOUND:                -0.174
REMARK  Name = 1550473
REMARK  2 active torsions:
REMARK  status: ('A' for Active; 'I' for Inactive)
REMARK    1  A    between atoms: N_1  and  C_4
REMARK    2  A    between atoms: C_4  and  C_5
REMARK                            x       y       z     vdW  Elec       q    Type
REMARK                         _______ _______ _______ _____ _____    ______ ____
ROOT
ATOM      1  N   UNL     1     -22.802 -31.975   8.478  0.00  0.00    -0.354 N 
ATOM      2  N   UNL     1     -24.047 -30.213   9.321  0.00  0.00    -0.372 N 
ATOM      3  N   UNL     1     -21.815 -30.342   9.839  0.00  0.00    -0.372 N 
ATOM      4  C   UNL     1     -22.878 -30.854   9.208  0.00  0.00    +0.166 C 
ATOM      5  H   UNL     1     -23.650 -32.328   8.050  0.00  0.00    +0.163 HD
ATOM      6  H   UNL     1     -24.134 -29.364   9.862  0.00  0.00    +0.159 HD
ATOM      7  H   UNL     1     -24.883 -30.544   8.854  0.00  0.00    +0.159 HD
ATOM      8  H   UNL     1     -20.905 -30.781   9.798  0.00  0.00    +0.159 HD
ATOM      9  H   UNL     1     -21.885 -29.499  10.395  0.00  0.00    +0.159 HD
ENDROOT
BRANCH   1  10
ATOM     10  C   UNL     1     -21.565 -32.719   8.248  0.00  0.00    +0.151 C 
BRANCH  10  11
ATOM     11  C   UNL     1     -21.127 -32.515   6.824  0.00  0.00    -0.028 A 
ATOM     12  C   UNL     1     -19.954 -33.118   6.346  0.00  0.00    +0.005 A 
ATOM     13  C   UNL     1     -21.884 -31.725   5.945  0.00  0.00    +0.005 A 
ATOM     14  C   UNL     1     -19.563 -32.954   5.015  0.00  0.00    +0.000 A 
ATOM     15  C   UNL     1     -21.489 -31.562   4.617  0.00  0.00    +0.000 A 
ATOM     16  C   UNL     1     -20.330 -32.179   4.152  0.00  0.00    +0.000 A 
ENDBRANCH  10  11
ENDBRANCH   1  10
TORSDOF 2
ENDMDL
MODEL 6
REMARK VINA RESULT:    -4.000     11.116     12.745
REMARK INTER + INTRA:          -4.641
REMARK INTER:                  -4.519
REMARK INTRA:                  -0.123
REMARK UNBOUND:                -0.174
REMARK  Name = 1550473
REMARK  2 active torsions:
REMARK  status: ('A' for Active; 'I' for Inactive)
REMARK    1  A    between atoms: N_1  and  C_4
REMARK    2  A    between atoms: C_4  and  C_5
REMARK                            x       y       z     vdW  Elec       q    Type
REMARK                         _______ _______ _______ _____ _____    ______ ____
ROOT
ATOM      1  N   UNL     1       2.806   3.551 -36.103  0.00  0.00    -0.354 N 
ATOM      2  N   UNL     1       4.209   3.197 -34.294  0.00  0.00    -0.372 N 
ATOM      3  N   UNL     1       3.748   5.351 -34.935  0.00  0.00    -0.372 N 
ATOM      4  C   UNL     1       3.579   4.038 -35.123  0.00  0.00    +0.166 C 
ATOM      5  H   UNL     1       2.743   2.545 -36.211  0.00  0.00    +0.163 HD
ATOM      6  H   UNL     1       4.796   3.535 -33.544  0.00  0.00    +0.159 HD
ATOM      7  H   UNL     1       4.107   2.193 -34.376  0.00  0.00    +0.159 HD
ATOM      8  H   UNL     1       3.304   6.039 -35.530  0.00  0.00    +0.159 HD
ATOM      9  H   UNL     1       4.341   5.709 -34.197  0.00  0.00    +0.159 HD
ENDROOT
BRANCH   1  10
ATOM     10  C   UNL     1       2.034   4.382 -37.025  0.00  0.00    +0.151 C 
BRANCH  10  11
ATOM     11  C   UNL     1       1.168   3.496 -37.877  0.00  0.00    -0.028 A 
ATOM     12  C   UNL     1       1.361   2.106 -37.885  0.00  0.00    +0.005 A 
ATOM     13  C   UNL     1       0.148   4.038 -38.674  0.00  0.00    +0.005 A 
ATOM     14  C   UNL     1       0.537   1.280 -38.653  0.00  0.00    +0.000 A 
ATOM     15  C   UNL     1      -0.672   3.210 -39.440  0.00  0.00    +0.000 A 
ATOM     16  C   UNL     1      -0.479   1.831 -39.427  0.00  0.00    +0.000 A 
ENDBRANCH  10  11
ENDBRANCH   1  10
TORSDOF 2
ENDMDL
MODEL 7
REMARK VINA RESULT:    -3.985     20.537     21.676
REMARK INTER + INTRA:          -4.625
REMARK INTER:                  -4.467
REMARK INTRA:                  -0.158
REMARK UNBOUND:                -0.174
REMARK  Name = 1550473
REMARK  2 active torsions:
REMARK  status: ('A' for Active; 'I' for Inactive)
REMARK    1  A    between atoms: N_1  and  C_4
REMARK    2  A    between atoms: C_4  and  C_5
REMARK                            x       y       z     vdW  Elec       q    Type
REMARK                         _______ _______ _______ _____ _____    ______ ____
ROOT
ATOM      1  N   UNL     1      -9.484  -7.919 -59.893  0.00  0.00    -0.354 N 
ATOM      2  N   UNL     1      -8.527  -8.548 -57.880  0.00  0.00    -0.372 N 
ATOM      3  N   UNL     1      -7.240  -7.436 -59.421  0.00  0.00    -0.372 N 
ATOM      4  C   UNL     1      -8.421  -7.963 -59.079  0.00  0.00    +0.166 C 
ATOM      5  H   UNL     1     -10.342  -8.363 -59.587  0.00  0.00    +0.163 HD
ATOM      6  H   UNL     1      -7.743  -8.592 -57.243  0.00  0.00    +0.159 HD
ATOM      7  H   UNL     1      -9.399  -8.950 -57.558  0.00  0.00    +0.159 HD
ATOM      8  H   UNL     1      -7.093  -6.986 -60.314  0.00  0.00    +0.159 HD
ATOM      9  H   UNL     1      -6.440  -7.482 -58.802  0.00  0.00    +0.159 HD
ENDROOT
BRANCH   1  10
ATOM     10  C   UNL     1      -9.489  -7.259 -61.197  0.00  0.00    +0.151 C 
BRANCH  10  11
ATOM     11  C   UNL     1      -9.517  -8.305 -62.277  0.00  0.00    -0.028 A 
ATOM     12  C   UNL     1     -10.155  -9.535 -62.060  0.00  0.00    +0.005 A 
ATOM     13  C   UNL     1      -8.914  -8.069 -63.522  0.00  0.00    +0.005 A 
ATOM     14  C   UNL     1     -10.207 -10.495 -63.074  0.00  0.00    +0.000 A 
ATOM     15  C   UNL     1      -8.968  -9.030 -64.531  0.00  0.00    +0.000 A 
ATOM     16  C   UNL     1      -9.617 -10.242 -64.307  0.00  0.00    +0.000 A 
ENDBRANCH  10  11
ENDBRANCH   1  10
TORSDOF 2
ENDMDL
MODEL 8
REMARK VINA RESULT:    -3.835     60.009     62.199
REMARK INTER + INTRA:          -4.457
REMARK INTER:                  -4.317
REMARK INTRA:                  -0.140
REMARK UNBOUND:                -0.174
REMARK  Name = 1550473
REMARK  2 active torsions:
REMARK  status: ('A' for Active; 'I' for Inactive)
REMARK    1  A    between atoms: N_1  and  C_4
REMARK    2  A    between atoms: C_4  and  C_5
REMARK                            x       y       z     vdW  Elec       q    Type
REMARK                         _______ _______ _______ _____ _____    ______ ____
ROOT
ATOM      1  N   UNL     1      -8.326  14.937  15.125  0.00  0.00    -0.354 N 
ATOM      2  N   UNL     1      -7.480  14.457  13.023  0.00  0.00    -0.372 N 
ATOM      3  N   UNL     1      -6.115  14.209  14.850  0.00  0.00    -0.372 N 
ATOM      4  C   UNL     1      -7.310  14.537  14.348  0.00  0.00    +0.166 C 
ATOM      5  H   UNL     1      -9.197  15.201  14.680  0.00  0.00    +0.163 HD
ATOM      6  H   UNL     1      -6.734  14.155  12.412  0.00  0.00    +0.159 HD
ATOM      7  H   UNL     1      -8.367  14.677  12.585  0.00  0.00    +0.159 HD
ATOM      8  H   UNL     1      -5.920  14.254  15.842  0.00  0.00    +0.159 HD
ATOM      9  H   UNL     1      -5.352  13.916  14.254  0.00  0.00    +0.159 HD
ENDROOT
BRANCH   1  10
ATOM     10  C   UNL     1      -8.261  15.007  16.584  0.00  0.00    +0.151 C 
BRANCH  10  11
ATOM     11  C   UNL     1      -9.300  14.090  17.167  0.00  0.00    -0.028 A 
ATOM     12  C   UNL     1     -10.661  14.420  17.095  0.00  0.00    +0.005 A 
ATOM     13  C   UNL     1      -8.931  12.886  17.786  0.00  0.00    +0.005 A 
ATOM     14  C   UNL     1     -11.630  13.555  17.610  0.00  0.00    +0.000 A 
ATOM     15  C   UNL     1      -9.900  12.025  18.300  0.00  0.00    +0.000 A 
ATOM     16  C   UNL     1     -11.250  12.358  18.209  0.00  0.00    +0.000 A 
ENDBRANCH  10  11
ENDBRANCH   1  10
TORSDOF 2
ENDMDL
MODEL 9
REMARK VINA RESULT:    -3.814     56.203     57.636
REMARK INTER + INTRA:          -4.433
REMARK INTER:                  -4.314
REMARK INTRA:                  -0.120
REMARK UNBOUND:                -0.174
REMARK  Name = 1550473
REMARK  2 active torsions:
REMARK  status: ('A' for Active; 'I' for Inactive)
REMARK    1  A    between atoms: N_1  and  C_4
REMARK    2  A    between atoms: C_4  and  C_5
REMARK                            x       y       z     vdW  Elec       q    Type
REMARK                         _______ _______ _______ _____ _____    ______ ____
ROOT
ATOM      1  N   UNL     1      -9.198   3.452  14.186  0.00  0.00    -0.354 N 
ATOM      2  N   UNL     1      -7.212   2.543  14.957  0.00  0.00    -0.372 N 
ATOM      3  N   UNL     1      -7.337   3.248  12.777  0.00  0.00    -0.372 N 
ATOM      4  C   UNL     1      -7.928   3.087  13.965  0.00  0.00    +0.166 C 
ATOM      5  H   UNL     1      -9.597   3.276  15.101  0.00  0.00    +0.163 HD
ATOM      6  H   UNL     1      -6.250   2.262  14.821  0.00  0.00    +0.159 HD
ATOM      7  H   UNL     1      -7.599   2.411  15.883  0.00  0.00    +0.159 HD
ATOM      8  H   UNL     1      -7.825   3.646  11.986  0.00  0.00    +0.159 HD
ATOM      9  H   UNL     1      -6.379   2.961  12.618  0.00  0.00    +0.159 HD
ENDROOT
BRANCH   1  10
ATOM     10  C   UNL     1     -10.047   4.102  13.190  0.00  0.00    +0.151 C 
BRANCH  10  11
ATOM     11  C   UNL     1     -10.727   5.285  13.821  0.00  0.00    -0.028 A 
ATOM     12  C   UNL     1     -10.698   6.540  13.195  0.00  0.00    +0.005 A 
ATOM     13  C   UNL     1     -11.408   5.157  15.041  0.00  0.00    +0.005 A 
ATOM     14  C   UNL     1     -11.355   7.633  13.766  0.00  0.00    +0.000 A 
ATOM     15  C   UNL     1     -12.062   6.250  15.608  0.00  0.00    +0.000 A 
ATOM     16  C   UNL     1     -12.038   7.488  14.969  0.00  0.00    +0.000 A 
ENDBRANCH  10  11
ENDBRANCH   1  10
TORSDOF 2
ENDMDL
