MODEL 1
REMARK VINA RESULT:    -5.876      0.000      0.000
REMARK INTER + INTRA:          -6.712
REMARK INTER:                  -6.563
REMARK INTRA:                  -0.149
REMARK UNBOUND:                -0.149
REMARK  Name = 1550473
REMARK  2 active torsions:
REMARK  status: ('A' for Active; 'I' for Inactive)
REMARK    1  A    between atoms: N_1  and  C_4
REMARK    2  A    between atoms: C_4  and  C_5
REMARK                            x       y       z     vdW  Elec       q    Type
REMARK                         _______ _______ _______ _____ _____    ______ ____
ROOT
ATOM      1  N   UNL     1       1.654   4.962  -3.336  0.00  0.00    -0.354 N 
ATOM      2  N   UNL     1       2.794   6.226  -4.906  0.00  0.00    -0.372 N 
ATOM      3  N   UNL     1       3.177   3.965  -4.812  0.00  0.00    -0.372 N 
ATOM      4  C   UNL     1       2.536   5.040  -4.342  0.00  0.00    +0.166 C 
ATOM      5  H   UNL     1       1.223   5.817  -3.006  0.00  0.00    +0.163 HD
ATOM      6  H   UNL     1       3.452   6.316  -5.669  0.00  0.00    +0.159 HD
ATOM      7  H   UNL     1       2.328   7.073  -4.604  0.00  0.00    +0.159 HD
ATOM      8  H   UNL     1       3.031   3.043  -4.426  0.00  0.00    +0.159 HD
ATOM      9  H   UNL     1       3.848   4.037  -5.567  0.00  0.00    +0.159 HD
ENDROOT
BRANCH   1  10
ATOM     10  C   UNL     1       1.261   3.711  -2.689  0.00  0.00    +0.151 C 
BRANCH  10  11
ATOM     11  C   UNL     1       1.605   3.786  -1.227  0.00  0.00    -0.028 A 
ATOM     12  C   UNL     1       1.960   5.009  -0.641  0.00  0.00    +0.005 A 
ATOM     13  C   UNL     1       1.573   2.637  -0.421  0.00  0.00    +0.005 A 
ATOM     14  C   UNL     1       2.250   5.085   0.724  0.00  0.00    +0.000 A 
ATOM     15  C   UNL     1       1.864   2.716   0.940  0.00  0.00    +0.000 A 
ATOM     16  C   UNL     1       2.200   3.940   1.513  0.00  0.00    +0.000 A 
ENDBRANCH  10  11
ENDBRANCH   1  10
TORSDOF 2
ENDMDL
MODEL 2
REMARK VINA RESULT:    -5.761      1.361      2.245
REMARK INTER + INTRA:          -6.583
REMARK INTER:                  -6.427
REMARK INTRA:                  -0.156
REMARK UNBOUND:                -0.149
REMARK  Name = 1550473
REMARK  2 active torsions:
REMARK  status: ('A' for Active; 'I' for Inactive)
REMARK    1  A    between atoms: N_1  and  C_4
REMARK    2  A    between atoms: C_4  and  C_5
REMARK                            x       y       z     vdW  Elec       q    Type
REMARK                         _______ _______ _______ _____ _____    ______ ____
ROOT
ATOM      1  N   UNL     1       0.207   4.546  -3.153  0.00  0.00    -0.354 N 
ATOM      2  N   UNL     1      -0.974   6.256  -4.176  0.00  0.00    -0.372 N 
ATOM      3  N   UNL     1       1.315   6.239  -4.335  0.00  0.00    -0.372 N 
ATOM      4  C   UNL     1       0.193   5.670  -3.882  0.00  0.00    +0.166 C 
ATOM      5  H   UNL     1      -0.675   4.181  -2.814  0.00  0.00    +0.163 HD
ATOM      6  H   UNL     1      -1.016   7.103  -4.727  0.00  0.00    +0.159 HD
ATOM      7  H   UNL     1      -1.857   5.864  -3.874  0.00  0.00    +0.159 HD
ATOM      8  H   UNL     1       2.229   5.850  -4.143  0.00  0.00    +0.159 HD
ATOM      9  H   UNL     1       1.294   7.093  -4.878  0.00  0.00    +0.159 HD
ENDROOT
BRANCH   1  10
ATOM     10  C   UNL     1       1.421   3.800  -2.824  0.00  0.00    +0.151 C 
BRANCH  10  11
ATOM     11  C   UNL     1       1.665   3.889  -1.342  0.00  0.00    -0.028 A 
ATOM     12  C   UNL     1       1.556   2.748  -0.534  0.00  0.00    +0.005 A 
ATOM     13  C   UNL     1       2.010   5.110  -0.742  0.00  0.00    +0.005 A 
ATOM     14  C   UNL     1       1.812   2.824   0.838  0.00  0.00    +0.000 A 
ATOM     15  C   UNL     1       2.264   5.181   0.627  0.00  0.00    +0.000 A 
ATOM     16  C   UNL     1       2.167   4.038   1.416  0.00  0.00    +0.000 A 
ENDBRANCH  10  11
ENDBRANCH   1  10
TORSDOF 2
ENDMDL
MODEL 3
REMARK VINA RESULT:    -5.707      3.050      4.864
REMARK INTER + INTRA:          -6.523
REMARK INTER:                  -6.386
REMARK INTRA:                  -0.137
REMARK UNBOUND:                -0.149
REMARK  Name = 1550473
REMARK  2 active torsions:
REMARK  status: ('A' for Active; 'I' for Inactive)
REMARK    1  A    between atoms: N_1  and  C_4
REMARK    2  A    between atoms: C_4  and  C_5
REMARK                            x       y       z     vdW  Elec       q    Type
REMARK                         _______ _______ _______ _____ _____    ______ ____
ROOT
ATOM      1  N   UNL     1       1.039   4.833   0.631  0.00  0.00    -0.354 N 
ATOM      2  N   UNL     1       0.305   4.094   2.699  0.00  0.00    -0.372 N 
ATOM      3  N   UNL     1       2.432   3.562   2.023  0.00  0.00    -0.372 N 
ATOM      4  C   UNL     1       1.266   4.167   1.770  0.00  0.00    +0.166 C 
ATOM      5  H   UNL     1       0.123   5.243   0.487  0.00  0.00    +0.163 HD
ATOM      6  H   UNL     1       0.448   3.601   3.570  0.00  0.00    +0.159 HD
ATOM      7  H   UNL     1      -0.594   4.544   2.573  0.00  0.00    +0.159 HD
ATOM      8  H   UNL     1       3.196   3.575   1.360  0.00  0.00    +0.159 HD
ATOM      9  H   UNL     1       2.590   3.054   2.884  0.00  0.00    +0.159 HD
ENDROOT
BRANCH   1  10
ATOM     10  C   UNL     1       2.037   5.017  -0.421  0.00  0.00    +0.151 C 
BRANCH  10  11
ATOM     11  C   UNL     1       1.695   4.127  -1.584  0.00  0.00    -0.028 A 
ATOM     12  C   UNL     1       2.652   3.844  -2.570  0.00  0.00    +0.005 A 
ATOM     13  C   UNL     1       0.417   3.558  -1.703  0.00  0.00    +0.005 A 
ATOM     14  C   UNL     1       2.344   2.993  -3.634  0.00  0.00    +0.000 A 
ATOM     15  C   UNL     1       0.114   2.709  -2.767  0.00  0.00    +0.000 A 
ATOM     16  C   UNL     1       1.078   2.425  -3.731  0.00  0.00    +0.000 A 
ENDBRANCH  10  11
ENDBRANCH   1  10
TORSDOF 2
ENDMDL
MODEL 4
REMARK VINA RESULT:    -5.594      3.161      5.235
REMARK INTER + INTRA:          -6.397
REMARK INTER:                  -6.279
REMARK INTRA:                  -0.118
REMARK UNBOUND:                -0.149
REMARK  Name = 1550473
REMARK  2 active torsions:
REMARK  status: ('A' for Active; 'I' for Inactive)
REMARK    1  A    between atoms: N_1  and  C_4
REMARK    2  A    between atoms: C_4  and  C_5
REMARK                            x       y       z     vdW  Elec       q    Type
REMARK                         _______ _______ _______ _____ _____    ______ ____
ROOT
ATOM      1  N   UNL     1       0.311   3.600  -0.047  0.00  0.00    -0.354 N 
ATOM      2  N   UNL     1      -1.381   4.113   1.449  0.00  0.00    -0.372 N 
ATOM      3  N   UNL     1       0.515   3.082   2.229  0.00  0.00    -0.372 N 
ATOM      4  C   UNL     1      -0.172   3.594   1.202  0.00  0.00    +0.166 C 
ATOM      5  H   UNL     1      -0.271   3.975  -0.787  0.00  0.00    +0.163 HD
ATOM      6  H   UNL     1      -1.770   4.126   2.382  0.00  0.00    +0.159 HD
ATOM      7  H   UNL     1      -1.942   4.529   0.715  0.00  0.00    +0.159 HD
ATOM      8  H   UNL     1       1.430   2.670   2.109  0.00  0.00    +0.159 HD
ATOM      9  H   UNL     1       0.137   3.075   3.168  0.00  0.00    +0.159 HD
ENDROOT
BRANCH   1  10
ATOM     10  C   UNL     1       1.638   3.107  -0.413  0.00  0.00    +0.151 C 
BRANCH  10  11
ATOM     11  C   UNL     1       1.674   2.845  -1.893  0.00  0.00    -0.028 A 
ATOM     12  C   UNL     1       0.580   2.247  -2.537  0.00  0.00    +0.005 A 
ATOM     13  C   UNL     1       2.796   3.196  -2.659  0.00  0.00    +0.005 A 
ATOM     14  C   UNL     1       0.601   2.030  -3.917  0.00  0.00    +0.000 A 
ATOM     15  C   UNL     1       2.813   2.978  -4.037  0.00  0.00    +0.000 A 
ATOM     16  C   UNL     1       1.714   2.397  -4.665  0.00  0.00    +0.000 A 
ENDBRANCH  10  11
ENDBRANCH   1  10
TORSDOF 2
ENDMDL
MODEL 5
REMARK VINA RESULT:    -5.564      3.924      5.423
REMARK INTER + INTRA:          -6.363
REMARK INTER:                  -6.235
REMARK INTRA:                  -0.128
REMARK UNBOUND:                -0.149
REMARK  Name = 1550473
REMARK  2 active torsions:
REMARK  status: ('A' for Active; 'I' for Inactive)
REMARK    1  A    between atoms: N_1  and  C_4
REMARK    2  A    between atoms: C_4  and  C_5
REMARK                            x       y       z     vdW  Elec       q    Type
REMARK                         _______ _______ _______ _____ _____    ______ ____
ROOT
ATOM      1  N   UNL     1       2.082   1.461   1.291  0.00  0.00    -0.354 N 
ATOM      2  N   UNL     1       2.733   0.420   3.255  0.00  0.00    -0.372 N 
ATOM      3  N   UNL     1       0.529   0.316   2.622  0.00  0.00    -0.372 N 
ATOM      4  C   UNL     1       1.774   0.738   2.377  0.00  0.00    +0.166 C 
ATOM      5  H   UNL     1       3.038   1.776   1.178  0.00  0.00    +0.163 HD
ATOM      6  H   UNL     1       2.531  -0.127   4.082  0.00  0.00    +0.159 HD
ATOM      7  H   UNL     1       3.696   0.698   3.116  0.00  0.00    +0.159 HD
ATOM      8  H   UNL     1      -0.240   0.528   2.001  0.00  0.00    +0.159 HD
ATOM      9  H   UNL     1       0.306  -0.222   3.450  0.00  0.00    +0.159 HD
ENDROOT
BRANCH   1  10
ATOM     10  C   UNL     1       1.123   1.815   0.246  0.00  0.00    +0.151 C 
BRANCH  10  11
ATOM     11  C   UNL     1       1.471   3.172  -0.300  0.00  0.00    -0.028 A 
ATOM     12  C   UNL     1       1.402   3.424  -1.678  0.00  0.00    +0.005 A 
ATOM     13  C   UNL     1       1.866   4.212   0.556  0.00  0.00    +0.005 A 
ATOM     14  C   UNL     1       1.697   4.693  -2.183  0.00  0.00    +0.000 A 
ATOM     15  C   UNL     1       2.159   5.477   0.048  0.00  0.00    +0.000 A 
ATOM     16  C   UNL     1       2.073   5.718  -1.321  0.00  0.00    +0.000 A 
ENDBRANCH  10  11
ENDBRANCH   1  10
TORSDOF 2
ENDMDL
MODEL 6
REMARK VINA RESULT:    -5.343     15.752     17.184
REMARK INTER + INTRA:          -6.117
REMARK INTER:                  -5.949
REMARK INTRA:                  -0.168
REMARK UNBOUND:                -0.149
REMARK  Name = 1550473
REMARK  2 active torsions:
REMARK  status: ('A' for Active; 'I' for Inactive)
REMARK    1  A    between atoms: N_1  and  C_4
REMARK    2  A    between atoms: C_4  and  C_5
REMARK                            x       y       z     vdW  Elec       q    Type
REMARK                         _______ _______ _______ _____ _____    ______ ____
ROOT
ATOM      1  N   UNL     1       7.183   8.086  14.297  0.00  0.00    -0.354 N 
ATOM      2  N   UNL     1       8.142   8.173  16.403  0.00  0.00    -0.372 N 
ATOM      3  N   UNL     1       5.877   7.850  16.229  0.00  0.00    -0.372 N 
ATOM      4  C   UNL     1       7.058   8.035  15.630  0.00  0.00    +0.166 C 
ATOM      5  H   UNL     1       8.101   8.259  13.906  0.00  0.00    +0.163 HD
ATOM      6  H   UNL     1       8.080   8.136  17.412  0.00  0.00    +0.159 HD
ATOM      7  H   UNL     1       9.066   8.300  16.008  0.00  0.00    +0.159 HD
ATOM      8  H   UNL     1       5.020   7.745  15.702  0.00  0.00    +0.159 HD
ATOM      9  H   UNL     1       5.793   7.822  17.238  0.00  0.00    +0.159 HD
ENDROOT
BRANCH   1  10
ATOM     10  C   UNL     1       6.073   7.894  13.365  0.00  0.00    +0.151 C 
BRANCH  10  11
ATOM     11  C   UNL     1       5.757   9.206  12.701  0.00  0.00    -0.028 A 
ATOM     12  C   UNL     1       5.015  10.185  13.377  0.00  0.00    +0.005 A 
ATOM     13  C   UNL     1       6.201   9.477  11.398  0.00  0.00    +0.005 A 
ATOM     14  C   UNL     1       4.747  11.416  12.772  0.00  0.00    +0.000 A 
ATOM     15  C   UNL     1       5.931  10.707  10.797  0.00  0.00    +0.000 A 
ATOM     16  C   UNL     1       5.206  11.676  11.485  0.00  0.00    +0.000 A 
ENDBRANCH  10  11
ENDBRANCH   1  10
TORSDOF 2
ENDMDL
MODEL 7
REMARK VINA RESULT:    -5.253      1.515      2.470
REMARK INTER + INTRA:          -6.016
REMARK INTER:                  -5.889
REMARK INTRA:                  -0.127
REMARK UNBOUND:                -0.149
REMARK  Name = 1550473
REMARK  2 active torsions:
REMARK  status: ('A' for Active; 'I' for Inactive)
REMARK    1  A    between atoms: N_1  and  C_4
REMARK    2  A    between atoms: C_4  and  C_5
REMARK                            x       y       z     vdW  Elec       q    Type
REMARK                         _______ _______ _______ _____ _____    ______ ____
ROOT
ATOM      1  N   UNL     1       2.475   2.999  -3.936  0.00  0.00    -0.354 N 
ATOM      2  N   UNL     1       2.694   1.459  -5.652  0.00  0.00    -0.372 N 
ATOM      3  N   UNL     1       1.293   3.253  -5.943  0.00  0.00    -0.372 N 
ATOM      4  C   UNL     1       2.151   2.582  -5.167  0.00  0.00    +0.166 C 
ATOM      5  H   UNL     1       3.108   2.430  -3.386  0.00  0.00    +0.163 HD
ATOM      6  H   UNL     1       2.471   1.122  -6.578  0.00  0.00    +0.159 HD
ATOM      7  H   UNL     1       3.362   0.917  -5.118  0.00  0.00    +0.159 HD
ATOM      8  H   UNL     1       0.843   4.104  -5.634  0.00  0.00    +0.159 HD
ATOM      9  H   UNL     1       1.048   2.924  -6.869  0.00  0.00    +0.159 HD
ENDROOT
BRANCH   1  10
ATOM     10  C   UNL     1       1.980   4.237  -3.335  0.00  0.00    +0.151 C 
BRANCH  10  11
ATOM     11  C   UNL     1       1.961   4.083  -1.839  0.00  0.00    -0.028 A 
ATOM     12  C   UNL     1       1.718   2.831  -1.255  0.00  0.00    +0.005 A 
ATOM     13  C   UNL     1       2.190   5.184  -1.000  0.00  0.00    +0.005 A 
ATOM     14  C   UNL     1       1.730   2.681   0.134  0.00  0.00    +0.000 A 
ATOM     15  C   UNL     1       2.199   5.031   0.386  0.00  0.00    +0.000 A 
ATOM     16  C   UNL     1       1.972   3.779   0.953  0.00  0.00    +0.000 A 
ENDBRANCH  10  11
ENDBRANCH   1  10
TORSDOF 2
ENDMDL
MODEL 8
REMARK VINA RESULT:    -5.208     17.632     18.605
REMARK INTER + INTRA:          -5.965
REMARK INTER:                  -5.809
REMARK INTRA:                  -0.156
REMARK UNBOUND:                -0.149
REMARK  Name = 1550473
REMARK  2 active torsions:
REMARK  status: ('A' for Active; 'I' for Inactive)
REMARK    1  A    between atoms: N_1  and  C_4
REMARK    2  A    between atoms: C_4  and  C_5
REMARK                            x       y       z     vdW  Elec       q    Type
REMARK                         _______ _______ _______ _____ _____    ______ ____
ROOT
ATOM      1  N   UNL     1       0.554  12.223  15.342  0.00  0.00    -0.354 N 
ATOM      2  N   UNL     1       2.345  12.282  13.875  0.00  0.00    -0.372 N 
ATOM      3  N   UNL     1       0.224  12.059  13.028  0.00  0.00    -0.372 N 
ATOM      4  C   UNL     1       1.027  12.187  14.090  0.00  0.00    +0.166 C 
ATOM      5  H   UNL     1       1.217  12.292  16.106  0.00  0.00    +0.163 HD
ATOM      6  H   UNL     1       2.730  12.261  12.940  0.00  0.00    +0.159 HD
ATOM      7  H   UNL     1       3.002  12.396  14.637  0.00  0.00    +0.159 HD
ATOM      8  H   UNL     1      -0.780  11.976  13.123  0.00  0.00    +0.159 HD
ATOM      9  H   UNL     1       0.592  12.024  12.086  0.00  0.00    +0.159 HD
ENDROOT
BRANCH   1  10
ATOM     10  C   UNL     1      -0.868  12.182  15.681  0.00  0.00    +0.151 C 
BRANCH  10  11
ATOM     11  C   UNL     1      -1.279  10.752  15.898  0.00  0.00    -0.028 A 
ATOM     12  C   UNL     1      -0.586   9.941  16.808  0.00  0.00    +0.005 A 
ATOM     13  C   UNL     1      -2.366  10.203  15.200  0.00  0.00    +0.005 A 
ATOM     14  C   UNL     1      -0.987   8.622  17.032  0.00  0.00    +0.000 A 
ATOM     15  C   UNL     1      -2.763   8.885  15.425  0.00  0.00    +0.000 A 
ATOM     16  C   UNL     1      -2.074   8.096  16.343  0.00  0.00    +0.000 A 
ENDBRANCH  10  11
ENDBRANCH   1  10
TORSDOF 2
ENDMDL
MODEL 9
REMARK VINA RESULT:    -5.108     17.618     18.895
REMARK INTER + INTRA:          -5.854
REMARK INTER:                  -5.721
REMARK INTRA:                  -0.133
REMARK UNBOUND:                -0.149
REMARK  Name = 1550473
REMARK  2 active torsions:
REMARK  status: ('A' for Active; 'I' for Inactive)
REMARK    1  A    between atoms: N_1  and  C_4
REMARK    2  A    between atoms: C_4  and  C_5
REMARK                            x       y       z     vdW  Elec       q    Type
REMARK                         _______ _______ _______ _____ _____    ______ ____
ROOT
ATOM      1  N   UNL     1       9.015   7.969  16.490  0.00  0.00    -0.354 N 
ATOM      2  N   UNL     1      11.021   8.068  17.644  0.00  0.00    -0.372 N 
ATOM      3  N   UNL     1      10.473   6.135  16.535  0.00  0.00    -0.372 N 
ATOM      4  C   UNL     1      10.157   7.387  16.881  0.00  0.00    +0.166 C 
ATOM      5  H   UNL     1       8.820   8.910  16.811  0.00  0.00    +0.163 HD
ATOM      6  H   UNL     1      11.891   7.656  17.952  0.00  0.00    +0.159 HD
ATOM      7  H   UNL     1      10.844   9.024  17.926  0.00  0.00    +0.159 HD
ATOM      8  H   UNL     1       9.861   5.566  15.965  0.00  0.00    +0.159 HD
ATOM      9  H   UNL     1      11.335   5.702  16.843  0.00  0.00    +0.159 HD
ENDROOT
BRANCH   1  10
ATOM     10  C   UNL     1       8.032   7.334  15.614  0.00  0.00    +0.151 C 
BRANCH  10  11
ATOM     11  C   UNL     1       7.475   8.365  14.671  0.00  0.00    -0.028 A 
ATOM     12  C   UNL     1       8.277   9.424  14.221  0.00  0.00    +0.005 A 
ATOM     13  C   UNL     1       6.149   8.285  14.220  0.00  0.00    +0.005 A 
ATOM     14  C   UNL     1       7.770  10.365  13.321  0.00  0.00    +0.000 A 
ATOM     15  C   UNL     1       5.646   9.227  13.323  0.00  0.00    +0.000 A 
ATOM     16  C   UNL     1       6.457  10.266  12.872  0.00  0.00    +0.000 A 
ENDBRANCH  10  11
ENDBRANCH   1  10
TORSDOF 2
ENDMDL
