MODEL 1
REMARK VINA RESULT:    -6.142      0.000      0.000
REMARK INTER + INTRA:          -6.990
REMARK INTER:                  -6.860
REMARK INTRA:                  -0.131
REMARK UNBOUND:                -0.131
REMARK  Name = 1550473
REMARK  2 active torsions:
REMARK  status: ('A' for Active; 'I' for Inactive)
REMARK    1  A    between atoms: N_1  and  C_4
REMARK    2  A    between atoms: C_4  and  C_5
REMARK                            x       y       z     vdW  Elec       q    Type
REMARK                         _______ _______ _______ _____ _____    ______ ____
ROOT
ATOM      1  N   UNL     1      -3.324  -3.361  -7.978  0.00  0.00    -0.354 N 
ATOM      2  N   UNL     1      -1.464  -2.513  -6.890  0.00  0.00    -0.372 N 
ATOM      3  N   UNL     1      -1.174  -3.644  -8.865  0.00  0.00    -0.372 N 
ATOM      4  C   UNL     1      -1.998  -3.180  -7.920  0.00  0.00    +0.166 C 
ATOM      5  H   UNL     1      -3.892  -3.011  -7.215  0.00  0.00    +0.163 HD
ATOM      6  H   UNL     1      -0.468  -2.358  -6.820  0.00  0.00    +0.159 HD
ATOM      7  H   UNL     1      -2.038  -2.124  -6.152  0.00  0.00    +0.159 HD
ATOM      8  H   UNL     1      -1.513  -4.161  -9.665  0.00  0.00    +0.159 HD
ATOM      9  H   UNL     1      -0.172  -3.509  -8.807  0.00  0.00    +0.159 HD
ENDROOT
BRANCH   1  10
ATOM     10  C   UNL     1      -4.011  -4.026  -9.084  0.00  0.00    +0.151 C 
BRANCH  10  11
ATOM     11  C   UNL     1      -5.015  -4.997  -8.527  0.00  0.00    -0.028 A 
ATOM     12  C   UNL     1      -5.327  -6.175  -9.221  0.00  0.00    +0.005 A 
ATOM     13  C   UNL     1      -5.653  -4.748  -7.302  0.00  0.00    +0.005 A 
ATOM     14  C   UNL     1      -6.237  -7.092  -8.689  0.00  0.00    +0.000 A 
ATOM     15  C   UNL     1      -6.561  -5.665  -6.774  0.00  0.00    +0.000 A 
ATOM     16  C   UNL     1      -6.851  -6.839  -7.467  0.00  0.00    +0.000 A 
ENDBRANCH  10  11
ENDBRANCH   1  10
TORSDOF 2
ENDMDL
MODEL 2
REMARK VINA RESULT:    -6.114      3.389      4.843
REMARK INTER + INTRA:          -6.960
REMARK INTER:                  -6.853
REMARK INTRA:                  -0.107
REMARK UNBOUND:                -0.131
REMARK  Name = 1550473
REMARK  2 active torsions:
REMARK  status: ('A' for Active; 'I' for Inactive)
REMARK    1  A    between atoms: N_1  and  C_4
REMARK    2  A    between atoms: C_4  and  C_5
REMARK                            x       y       z     vdW  Elec       q    Type
REMARK                         _______ _______ _______ _____ _____    ______ ____
ROOT
ATOM      1  N   UNL     1      -2.597  -5.956  -9.125  0.00  0.00    -0.354 N 
ATOM      2  N   UNL     1      -1.779  -5.997  -6.958  0.00  0.00    -0.372 N 
ATOM      3  N   UNL     1      -3.425  -7.482  -7.551  0.00  0.00    -0.372 N 
ATOM      4  C   UNL     1      -2.608  -6.480  -7.892  0.00  0.00    +0.166 C 
ATOM      5  H   UNL     1      -1.975  -5.177  -9.312  0.00  0.00    +0.163 HD
ATOM      6  H   UNL     1      -1.762  -6.374  -6.021  0.00  0.00    +0.159 HD
ATOM      7  H   UNL     1      -1.126  -5.249  -7.161  0.00  0.00    +0.159 HD
ATOM      8  H   UNL     1      -4.079  -7.887  -8.208  0.00  0.00    +0.159 HD
ATOM      9  H   UNL     1      -3.431  -7.865  -6.614  0.00  0.00    +0.159 HD
ENDROOT
BRANCH   1  10
ATOM     10  C   UNL     1      -3.421  -6.445 -10.229  0.00  0.00    +0.151 C 
BRANCH  10  11
ATOM     11  C   UNL     1      -3.433  -5.417 -11.326  0.00  0.00    -0.028 A 
ATOM     12  C   UNL     1      -2.243  -4.795 -11.732  0.00  0.00    +0.005 A 
ATOM     13  C   UNL     1      -4.630  -5.065 -11.968  0.00  0.00    +0.005 A 
ATOM     14  C   UNL     1      -2.249  -3.862 -12.771  0.00  0.00    +0.000 A 
ATOM     15  C   UNL     1      -4.632  -4.132 -13.005  0.00  0.00    +0.000 A 
ATOM     16  C   UNL     1      -3.441  -3.533 -13.408  0.00  0.00    +0.000 A 
ENDBRANCH  10  11
ENDBRANCH   1  10
TORSDOF 2
ENDMDL
MODEL 3
REMARK VINA RESULT:    -6.041      3.467      5.238
REMARK INTER + INTRA:          -6.878
REMARK INTER:                  -6.755
REMARK INTRA:                  -0.123
REMARK UNBOUND:                -0.131
REMARK  Name = 1550473
REMARK  2 active torsions:
REMARK  status: ('A' for Active; 'I' for Inactive)
REMARK    1  A    between atoms: N_1  and  C_4
REMARK    2  A    between atoms: C_4  and  C_5
REMARK                            x       y       z     vdW  Elec       q    Type
REMARK                         _______ _______ _______ _____ _____    ______ ____
ROOT
ATOM      1  N   UNL     1      -4.071  -6.747  -9.214  0.00  0.00    -0.354 N 
ATOM      2  N   UNL     1      -3.679  -7.821  -7.200  0.00  0.00    -0.372 N 
ATOM      3  N   UNL     1      -5.844  -7.390  -7.824  0.00  0.00    -0.372 N 
ATOM      4  C   UNL     1      -4.537  -7.312  -8.092  0.00  0.00    +0.166 C 
ATOM      5  H   UNL     1      -3.067  -6.692  -9.344  0.00  0.00    +0.163 HD
ATOM      6  H   UNL     1      -4.001  -8.257  -6.346  0.00  0.00    +0.159 HD
ATOM      7  H   UNL     1      -2.678  -7.806  -7.354  0.00  0.00    +0.159 HD
ATOM      8  H   UNL     1      -6.543  -7.020  -8.454  0.00  0.00    +0.159 HD
ATOM      9  H   UNL     1      -6.186  -7.812  -6.970  0.00  0.00    +0.159 HD
ENDROOT
BRANCH   1  10
ATOM     10  C   UNL     1      -4.922  -6.211 -10.274  0.00  0.00    +0.151 C 
BRANCH  10  11
ATOM     11  C   UNL     1      -4.079  -5.401 -11.219  0.00  0.00    -0.028 A 
ATOM     12  C   UNL     1      -4.680  -4.576 -12.182  0.00  0.00    +0.005 A 
ATOM     13  C   UNL     1      -2.678  -5.449 -11.154  0.00  0.00    +0.005 A 
ATOM     14  C   UNL     1      -3.897  -3.800 -13.040  0.00  0.00    +0.000 A 
ATOM     15  C   UNL     1      -1.899  -4.673 -12.013  0.00  0.00    +0.000 A 
ATOM     16  C   UNL     1      -2.509  -3.847 -12.954  0.00  0.00    +0.000 A 
ENDBRANCH  10  11
ENDBRANCH   1  10
TORSDOF 2
ENDMDL
MODEL 4
REMARK VINA RESULT:    -5.944      2.998      4.443
REMARK INTER + INTRA:          -6.769
REMARK INTER:                  -6.632
REMARK INTRA:                  -0.138
REMARK UNBOUND:                -0.131
REMARK  Name = 1550473
REMARK  2 active torsions:
REMARK  status: ('A' for Active; 'I' for Inactive)
REMARK    1  A    between atoms: N_1  and  C_4
REMARK    2  A    between atoms: C_4  and  C_5
REMARK                            x       y       z     vdW  Elec       q    Type
REMARK                         _______ _______ _______ _____ _____    ______ ____
ROOT
ATOM      1  N   UNL     1      -3.159  -4.806  -8.893  0.00  0.00    -0.354 N 
ATOM      2  N   UNL     1      -2.806  -3.155  -7.308  0.00  0.00    -0.372 N 
ATOM      3  N   UNL     1      -1.104  -3.689  -8.752  0.00  0.00    -0.372 N 
ATOM      4  C   UNL     1      -2.356  -3.894  -8.329  0.00  0.00    +0.166 C 
ATOM      5  H   UNL     1      -4.088  -4.935  -8.506  0.00  0.00    +0.163 HD
ATOM      6  H   UNL     1      -2.224  -2.456  -6.865  0.00  0.00    +0.159 HD
ATOM      7  H   UNL     1      -3.749  -3.253  -6.954  0.00  0.00    +0.159 HD
ATOM      8  H   UNL     1      -0.703  -4.219  -9.514  0.00  0.00    +0.159 HD
ATOM      9  H   UNL     1      -0.502  -3.003  -8.313  0.00  0.00    +0.159 HD
ENDROOT
BRANCH   1  10
ATOM     10  C   UNL     1      -2.785  -5.626 -10.044  0.00  0.00    +0.151 C 
BRANCH  10  11
ATOM     11  C   UNL     1      -3.143  -4.891 -11.307  0.00  0.00    -0.028 A 
ATOM     12  C   UNL     1      -4.484  -4.749 -11.692  0.00  0.00    +0.005 A 
ATOM     13  C   UNL     1      -2.145  -4.330 -12.119  0.00  0.00    +0.005 A 
ATOM     14  C   UNL     1      -4.818  -4.041 -12.849  0.00  0.00    +0.000 A 
ATOM     15  C   UNL     1      -2.483  -3.625 -13.274  0.00  0.00    +0.000 A 
ATOM     16  C   UNL     1      -3.820  -3.478 -13.637  0.00  0.00    +0.000 A 
ENDBRANCH  10  11
ENDBRANCH   1  10
TORSDOF 2
ENDMDL
MODEL 5
REMARK VINA RESULT:    -5.889      3.029      4.342
REMARK INTER + INTRA:          -6.708
REMARK INTER:                  -6.549
REMARK INTRA:                  -0.159
REMARK UNBOUND:                -0.131
REMARK  Name = 1550473
REMARK  2 active torsions:
REMARK  status: ('A' for Active; 'I' for Inactive)
REMARK    1  A    between atoms: N_1  and  C_4
REMARK    2  A    between atoms: C_4  and  C_5
REMARK                            x       y       z     vdW  Elec       q    Type
REMARK                         _______ _______ _______ _____ _____    ______ ____
ROOT
ATOM      1  N   UNL     1      -3.150  -4.811  -8.978  0.00  0.00    -0.354 N 
ATOM      2  N   UNL     1      -2.807  -3.180  -7.371  0.00  0.00    -0.372 N 
ATOM      3  N   UNL     1      -1.154  -3.585  -8.909  0.00  0.00    -0.372 N 
ATOM      4  C   UNL     1      -2.370  -3.869  -8.431  0.00  0.00    +0.166 C 
ATOM      5  H   UNL     1      -4.049  -5.000  -8.550  0.00  0.00    +0.163 HD
ATOM      6  H   UNL     1      -2.243  -2.461  -6.939  0.00  0.00    +0.159 HD
ATOM      7  H   UNL     1      -3.725  -3.339  -6.973  0.00  0.00    +0.159 HD
ATOM      8  H   UNL     1      -0.763  -4.074  -9.704  0.00  0.00    +0.159 HD
ATOM      9  H   UNL     1      -0.569  -2.877  -8.483  0.00  0.00    +0.159 HD
ENDROOT
BRANCH   1  10
ATOM     10  C   UNL     1      -2.790  -5.582 -10.167  0.00  0.00    +0.151 C 
BRANCH  10  11
ATOM     11  C   UNL     1      -3.302  -4.869 -11.388  0.00  0.00    -0.028 A 
ATOM     12  C   UNL     1      -2.416  -4.214 -12.255  0.00  0.00    +0.005 A 
ATOM     13  C   UNL     1      -4.673  -4.850 -11.687  0.00  0.00    +0.005 A 
ATOM     14  C   UNL     1      -2.888  -3.577 -13.405  0.00  0.00    +0.000 A 
ATOM     15  C   UNL     1      -5.141  -4.212 -12.836  0.00  0.00    +0.000 A 
ATOM     16  C   UNL     1      -4.248  -3.578 -13.696  0.00  0.00    +0.000 A 
ENDBRANCH  10  11
ENDBRANCH   1  10
TORSDOF 2
ENDMDL
MODEL 6
REMARK VINA RESULT:    -5.837      1.579      1.867
REMARK INTER + INTRA:          -6.650
REMARK INTER:                  -6.535
REMARK INTRA:                  -0.115
REMARK UNBOUND:                -0.131
REMARK  Name = 1550473
REMARK  2 active torsions:
REMARK  status: ('A' for Active; 'I' for Inactive)
REMARK    1  A    between atoms: N_1  and  C_4
REMARK    2  A    between atoms: C_4  and  C_5
REMARK                            x       y       z     vdW  Elec       q    Type
REMARK                         _______ _______ _______ _____ _____    ______ ____
ROOT
ATOM      1  N   UNL     1      -3.346  -4.925 -10.238  0.00  0.00    -0.354 N 
ATOM      2  N   UNL     1      -1.374  -3.772  -9.853  0.00  0.00    -0.372 N 
ATOM      3  N   UNL     1      -3.326  -2.587 -10.079  0.00  0.00    -0.372 N 
ATOM      4  C   UNL     1      -2.697  -3.767 -10.060  0.00  0.00    +0.166 C 
ATOM      5  H   UNL     1      -2.806  -5.783 -10.243  0.00  0.00    +0.163 HD
ATOM      6  H   UNL     1      -0.858  -2.914  -9.712  0.00  0.00    +0.159 HD
ATOM      7  H   UNL     1      -0.845  -4.634  -9.812  0.00  0.00    +0.159 HD
ATOM      8  H   UNL     1      -4.322  -2.514 -10.236  0.00  0.00    +0.159 HD
ATOM      9  H   UNL     1      -2.825  -1.717  -9.952  0.00  0.00    +0.159 HD
ENDROOT
BRANCH   1  10
ATOM     10  C   UNL     1      -4.792  -5.033 -10.417  0.00  0.00    +0.151 C 
BRANCH  10  11
ATOM     11  C   UNL     1      -5.412  -5.510  -9.132  0.00  0.00    -0.028 A 
ATOM     12  C   UNL     1      -5.961  -6.797  -9.041  0.00  0.00    +0.005 A 
ATOM     13  C   UNL     1      -5.448  -4.681  -8.000  0.00  0.00    +0.005 A 
ATOM     14  C   UNL     1      -6.509  -7.251  -7.840  0.00  0.00    +0.000 A 
ATOM     15  C   UNL     1      -5.997  -5.138  -6.803  0.00  0.00    +0.000 A 
ATOM     16  C   UNL     1      -6.525  -6.424  -6.722  0.00  0.00    +0.000 A 
ENDBRANCH  10  11
ENDBRANCH   1  10
TORSDOF 2
ENDMDL
MODEL 7
REMARK VINA RESULT:    -5.752     12.008     13.525
REMARK INTER + INTRA:          -6.555
REMARK INTER:                  -6.424
REMARK INTRA:                  -0.131
REMARK UNBOUND:                -0.131
REMARK  Name = 1550473
REMARK  2 active torsions:
REMARK  status: ('A' for Active; 'I' for Inactive)
REMARK    1  A    between atoms: N_1  and  C_4
REMARK    2  A    between atoms: C_4  and  C_5
REMARK                            x       y       z     vdW  Elec       q    Type
REMARK                         _______ _______ _______ _____ _____    ______ ____
ROOT
ATOM      1  N   UNL     1      -9.598  -3.613   2.676  0.00  0.00    -0.354 N 
ATOM      2  N   UNL     1     -10.315  -5.805   2.894  0.00  0.00    -0.372 N 
ATOM      3  N   UNL     1     -10.845  -4.649   0.983  0.00  0.00    -0.372 N 
ATOM      4  C   UNL     1     -10.249  -4.674   2.180  0.00  0.00    +0.166 C 
ATOM      5  H   UNL     1      -9.194  -3.686   3.602  0.00  0.00    +0.163 HD
ATOM      6  H   UNL     1     -10.796  -6.622   2.544  0.00  0.00    +0.159 HD
ATOM      7  H   UNL     1      -9.870  -5.890   3.799  0.00  0.00    +0.159 HD
ATOM      8  H   UNL     1     -10.837  -3.824   0.398  0.00  0.00    +0.159 HD
ATOM      9  H   UNL     1     -11.341  -5.454   0.622  0.00  0.00    +0.159 HD
ENDROOT
BRANCH   1  10
ATOM     10  C   UNL     1      -9.423  -2.352   1.956  0.00  0.00    +0.151 C 
BRANCH  10  11
ATOM     11  C   UNL     1      -9.790  -1.213   2.866  0.00  0.00    -0.028 A 
ATOM     12  C   UNL     1      -9.503  -1.275   4.238  0.00  0.00    +0.005 A 
ATOM     13  C   UNL     1     -10.421  -0.065   2.362  0.00  0.00    +0.005 A 
ATOM     14  C   UNL     1      -9.818  -0.204   5.078  0.00  0.00    +0.000 A 
ATOM     15  C   UNL     1     -10.734   1.002   3.204  0.00  0.00    +0.000 A 
ATOM     16  C   UNL     1     -10.430   0.933   4.561  0.00  0.00    +0.000 A 
ENDBRANCH  10  11
ENDBRANCH   1  10
TORSDOF 2
ENDMDL
MODEL 8
REMARK VINA RESULT:    -5.702      2.704      3.670
REMARK INTER + INTRA:          -6.500
REMARK INTER:                  -6.355
REMARK INTRA:                  -0.145
REMARK UNBOUND:                -0.131
REMARK  Name = 1550473
REMARK  2 active torsions:
REMARK  status: ('A' for Active; 'I' for Inactive)
REMARK    1  A    between atoms: N_1  and  C_4
REMARK    2  A    between atoms: C_4  and  C_5
REMARK                            x       y       z     vdW  Elec       q    Type
REMARK                         _______ _______ _______ _____ _____    ______ ____
ROOT
ATOM      1  N   UNL     1      -3.096  -4.827 -10.041  0.00  0.00    -0.354 N 
ATOM      2  N   UNL     1      -1.120  -3.628  -9.885  0.00  0.00    -0.372 N 
ATOM      3  N   UNL     1      -2.937  -2.936  -8.666  0.00  0.00    -0.372 N 
ATOM      4  C   UNL     1      -2.399  -3.803  -9.530  0.00  0.00    +0.166 C 
ATOM      5  H   UNL     1      -2.639  -5.431 -10.715  0.00  0.00    +0.163 HD
ATOM      6  H   UNL     1      -0.568  -2.867  -9.513  0.00  0.00    +0.159 HD
ATOM      7  H   UNL     1      -0.653  -4.261 -10.523  0.00  0.00    +0.159 HD
ATOM      8  H   UNL     1      -3.899  -3.009  -8.363  0.00  0.00    +0.159 HD
ATOM      9  H   UNL     1      -2.404  -2.161  -8.292  0.00  0.00    +0.159 HD
ENDROOT
BRANCH   1  10
ATOM     10  C   UNL     1      -4.477  -5.137  -9.679  0.00  0.00    +0.151 C 
BRANCH  10  11
ATOM     11  C   UNL     1      -5.302  -5.245 -10.932  0.00  0.00    -0.028 A 
ATOM     12  C   UNL     1      -6.136  -6.353 -11.142  0.00  0.00    +0.005 A 
ATOM     13  C   UNL     1      -5.257  -4.240 -11.910  0.00  0.00    +0.005 A 
ATOM     14  C   UNL     1      -6.924  -6.439 -12.292  0.00  0.00    +0.000 A 
ATOM     15  C   UNL     1      -6.045  -4.330 -13.058  0.00  0.00    +0.000 A 
ATOM     16  C   UNL     1      -6.880  -5.428 -13.247  0.00  0.00    +0.000 A 
ENDBRANCH  10  11
ENDBRANCH   1  10
TORSDOF 2
ENDMDL
MODEL 9
REMARK VINA RESULT:    -5.611      1.498      1.878
REMARK INTER + INTRA:          -6.398
REMARK INTER:                  -6.237
REMARK INTRA:                  -0.161
REMARK UNBOUND:                -0.131
REMARK  Name = 1550473
REMARK  2 active torsions:
REMARK  status: ('A' for Active; 'I' for Inactive)
REMARK    1  A    between atoms: N_1  and  C_4
REMARK    2  A    between atoms: C_4  and  C_5
REMARK                            x       y       z     vdW  Elec       q    Type
REMARK                         _______ _______ _______ _____ _____    ______ ____
ROOT
ATOM      1  N   UNL     1      -1.965  -5.108  -7.950  0.00  0.00    -0.354 N 
ATOM      2  N   UNL     1      -1.169  -3.487  -9.401  0.00  0.00    -0.372 N 
ATOM      3  N   UNL     1      -2.068  -2.833  -7.394  0.00  0.00    -0.372 N 
ATOM      4  C   UNL     1      -1.740  -3.818  -8.237  0.00  0.00    +0.166 C 
ATOM      5  H   UNL     1      -1.721  -5.804  -8.644  0.00  0.00    +0.163 HD
ATOM      6  H   UNL     1      -0.984  -2.523  -9.643  0.00  0.00    +0.159 HD
ATOM      7  H   UNL     1      -0.884  -4.189 -10.073  0.00  0.00    +0.159 HD
ATOM      8  H   UNL     1      -2.508  -3.016  -6.501  0.00  0.00    +0.159 HD
ATOM      9  H   UNL     1      -1.902  -1.862  -7.623  0.00  0.00    +0.159 HD
ENDROOT
BRANCH   1  10
ATOM     10  C   UNL     1      -2.532  -5.578  -6.688  0.00  0.00    +0.151 C 
BRANCH  10  11
ATOM     11  C   UNL     1      -3.949  -6.026  -6.922  0.00  0.00    -0.028 A 
ATOM     12  C   UNL     1      -4.281  -6.766  -8.066  0.00  0.00    +0.005 A 
ATOM     13  C   UNL     1      -4.962  -5.718  -6.001  0.00  0.00    +0.005 A 
ATOM     14  C   UNL     1      -5.590  -7.208  -8.269  0.00  0.00    +0.000 A 
ATOM     15  C   UNL     1      -6.268  -6.160  -6.208  0.00  0.00    +0.000 A 
ATOM     16  C   UNL     1      -6.582  -6.908  -7.341  0.00  0.00    +0.000 A 
ENDBRANCH  10  11
ENDBRANCH   1  10
TORSDOF 2
ENDMDL
