MODEL 1
REMARK VINA RESULT:    -5.415      0.000      0.000
REMARK INTER + INTRA:          -6.188
REMARK INTER:                  -6.048
REMARK INTRA:                  -0.140
REMARK UNBOUND:                -0.140
REMARK  Name = 1550473
REMARK  2 active torsions:
REMARK  status: ('A' for Active; 'I' for Inactive)
REMARK    1  A    between atoms: N_1  and  C_4
REMARK    2  A    between atoms: C_4  and  C_5
REMARK                            x       y       z     vdW  Elec       q    Type
REMARK                         _______ _______ _______ _____ _____    ______ ____
ROOT
ATOM      1  N   UNL     1     -12.702   4.324  -2.275  0.00  0.00    -0.354 N 
ATOM      2  N   UNL     1     -13.706   3.309  -0.452  0.00  0.00    -0.372 N 
ATOM      3  N   UNL     1     -13.730   5.598  -0.599  0.00  0.00    -0.372 N 
ATOM      4  C   UNL     1     -13.373   4.420  -1.120  0.00  0.00    +0.166 C 
ATOM      5  H   UNL     1     -12.435   3.403  -2.602  0.00  0.00    +0.163 HD
ATOM      6  H   UNL     1     -14.215   3.349   0.421  0.00  0.00    +0.159 HD
ATOM      7  H   UNL     1     -13.477   2.387  -0.803  0.00  0.00    +0.159 HD
ATOM      8  H   UNL     1     -13.504   6.474  -1.051  0.00  0.00    +0.159 HD
ATOM      9  H   UNL     1     -14.230   5.660   0.280  0.00  0.00    +0.159 HD
ENDROOT
BRANCH   1  10
ATOM     10  C   UNL     1     -12.339   5.470  -3.107  0.00  0.00    +0.151 C 
BRANCH  10  11
ATOM     11  C   UNL     1     -10.897   5.345  -3.514  0.00  0.00    -0.028 A 
ATOM     12  C   UNL     1     -10.001   4.596  -2.737  0.00  0.00    +0.005 A 
ATOM     13  C   UNL     1     -10.422   5.968  -4.678  0.00  0.00    +0.005 A 
ATOM     14  C   UNL     1      -8.668   4.454  -3.131  0.00  0.00    +0.000 A 
ATOM     15  C   UNL     1      -9.090   5.824  -5.067  0.00  0.00    +0.000 A 
ATOM     16  C   UNL     1      -8.214   5.066  -4.294  0.00  0.00    +0.000 A 
ENDBRANCH  10  11
ENDBRANCH   1  10
TORSDOF 2
ENDMDL
MODEL 2
REMARK VINA RESULT:    -5.114     10.204     11.378
REMARK INTER + INTRA:          -5.852
REMARK INTER:                  -5.709
REMARK INTRA:                  -0.143
REMARK UNBOUND:                -0.140
REMARK  Name = 1550473
REMARK  2 active torsions:
REMARK  status: ('A' for Active; 'I' for Inactive)
REMARK    1  A    between atoms: N_1  and  C_4
REMARK    2  A    between atoms: C_4  and  C_5
REMARK                            x       y       z     vdW  Elec       q    Type
REMARK                         _______ _______ _______ _____ _____    ______ ____
ROOT
ATOM      1  N   UNL     1     -20.147  10.335  -6.622  0.00  0.00    -0.354 N 
ATOM      2  N   UNL     1     -19.215  11.665  -4.971  0.00  0.00    -0.372 N 
ATOM      3  N   UNL     1     -20.097  12.668  -6.837  0.00  0.00    -0.372 N 
ATOM      4  C   UNL     1     -19.826  11.549  -6.156  0.00  0.00    +0.166 C 
ATOM      5  H   UNL     1     -19.887   9.524  -6.072  0.00  0.00    +0.163 HD
ATOM      6  H   UNL     1     -18.964  12.568  -4.592  0.00  0.00    +0.159 HD
ATOM      7  H   UNL     1     -18.998  10.856  -4.402  0.00  0.00    +0.159 HD
ATOM      8  H   UNL     1     -20.552  12.649  -7.740  0.00  0.00    +0.159 HD
ATOM      9  H   UNL     1     -19.844  13.581  -6.479  0.00  0.00    +0.159 HD
ENDROOT
BRANCH   1  10
ATOM     10  C   UNL     1     -20.862  10.103  -7.876  0.00  0.00    +0.151 C 
BRANCH  10  11
ATOM     11  C   UNL     1     -19.957   9.374  -8.830  0.00  0.00    -0.028 A 
ATOM     12  C   UNL     1     -18.740   8.836  -8.387  0.00  0.00    +0.005 A 
ATOM     13  C   UNL     1     -20.313   9.212 -10.178  0.00  0.00    +0.005 A 
ATOM     14  C   UNL     1     -17.913   8.133  -9.266  0.00  0.00    +0.000 A 
ATOM     15  C   UNL     1     -19.484   8.510 -11.053  0.00  0.00    +0.000 A 
ATOM     16  C   UNL     1     -18.285   7.968 -10.596  0.00  0.00    +0.000 A 
ENDBRANCH  10  11
ENDBRANCH   1  10
TORSDOF 2
ENDMDL
MODEL 3
REMARK VINA RESULT:    -4.878     17.669     18.848
REMARK INTER + INTRA:          -5.588
REMARK INTER:                  -5.445
REMARK INTRA:                  -0.144
REMARK UNBOUND:                -0.140
REMARK  Name = 1550473
REMARK  2 active torsions:
REMARK  status: ('A' for Active; 'I' for Inactive)
REMARK    1  A    between atoms: N_1  and  C_4
REMARK    2  A    between atoms: C_4  and  C_5
REMARK                            x       y       z     vdW  Elec       q    Type
REMARK                         _______ _______ _______ _____ _____    ______ ____
ROOT
ATOM      1  N   UNL     1       4.532   8.350   4.529  0.00  0.00    -0.354 N 
ATOM      2  N   UNL     1       2.306   8.976   4.655  0.00  0.00    -0.372 N 
ATOM      3  N   UNL     1       3.035   7.840   2.800  0.00  0.00    -0.372 N 
ATOM      4  C   UNL     1       3.305   8.384   3.991  0.00  0.00    +0.166 C 
ATOM      5  H   UNL     1       4.678   8.807   5.422  0.00  0.00    +0.163 HD
ATOM      6  H   UNL     1       1.369   9.014   4.276  0.00  0.00    +0.159 HD
ATOM      7  H   UNL     1       2.445   9.392   5.568  0.00  0.00    +0.159 HD
ATOM      8  H   UNL     1       3.747   7.383   2.245  0.00  0.00    +0.159 HD
ATOM      9  H   UNL     1       2.107   7.878   2.398  0.00  0.00    +0.159 HD
ENDROOT
BRANCH   1  10
ATOM     10  C   UNL     1       5.677   7.683   3.913  0.00  0.00    +0.151 C 
BRANCH  10  11
ATOM     11  C   UNL     1       6.742   8.704   3.622  0.00  0.00    -0.028 A 
ATOM     12  C   UNL     1       7.446   9.317   4.669  0.00  0.00    +0.005 A 
ATOM     13  C   UNL     1       7.057   9.059   2.301  0.00  0.00    +0.005 A 
ATOM     14  C   UNL     1       8.456  10.244   4.399  0.00  0.00    +0.000 A 
ATOM     15  C   UNL     1       8.066   9.985   2.035  0.00  0.00    +0.000 A 
ATOM     16  C   UNL     1       8.767  10.575   3.084  0.00  0.00    +0.000 A 
ENDBRANCH  10  11
ENDBRANCH   1  10
TORSDOF 2
ENDMDL
MODEL 4
REMARK VINA RESULT:    -4.850      1.428      2.249
REMARK INTER + INTRA:          -5.558
REMARK INTER:                  -5.405
REMARK INTRA:                  -0.153
REMARK UNBOUND:                -0.140
REMARK  Name = 1550473
REMARK  2 active torsions:
REMARK  status: ('A' for Active; 'I' for Inactive)
REMARK    1  A    between atoms: N_1  and  C_4
REMARK    2  A    between atoms: C_4  and  C_5
REMARK                            x       y       z     vdW  Elec       q    Type
REMARK                         _______ _______ _______ _____ _____    ______ ____
ROOT
ATOM      1  N   UNL     1     -11.842   4.480  -3.749  0.00  0.00    -0.354 N 
ATOM      2  N   UNL     1     -12.942   3.720  -1.858  0.00  0.00    -0.372 N 
ATOM      3  N   UNL     1     -12.225   5.899  -1.924  0.00  0.00    -0.372 N 
ATOM      4  C   UNL     1     -12.328   4.707  -2.522  0.00  0.00    +0.166 C 
ATOM      5  H   UNL     1     -11.925   3.546  -4.135  0.00  0.00    +0.163 HD
ATOM      6  H   UNL     1     -13.322   3.863  -0.932  0.00  0.00    +0.159 HD
ATOM      7  H   UNL     1     -13.064   2.801  -2.264  0.00  0.00    +0.159 HD
ATOM      8  H   UNL     1     -11.768   6.684  -2.369  0.00  0.00    +0.159 HD
ATOM      9  H   UNL     1     -12.589   6.058  -0.993  0.00  0.00    +0.159 HD
ENDROOT
BRANCH   1  10
ATOM     10  C   UNL     1     -11.204   5.501  -4.578  0.00  0.00    +0.151 C 
BRANCH  10  11
ATOM     11  C   UNL     1      -9.812   5.051  -4.928  0.00  0.00    -0.028 A 
ATOM     12  C   UNL     1      -9.520   4.579  -6.216  0.00  0.00    +0.005 A 
ATOM     13  C   UNL     1      -8.781   5.100  -3.979  0.00  0.00    +0.005 A 
ATOM     14  C   UNL     1      -8.221   4.189  -6.551  0.00  0.00    +0.000 A 
ATOM     15  C   UNL     1      -7.485   4.710  -4.316  0.00  0.00    +0.000 A 
ATOM     16  C   UNL     1      -7.205   4.256  -5.603  0.00  0.00    +0.000 A 
ENDBRANCH  10  11
ENDBRANCH   1  10
TORSDOF 2
ENDMDL
MODEL 5
REMARK VINA RESULT:    -4.707      9.546     10.665
REMARK INTER + INTRA:          -5.398
REMARK INTER:                  -5.282
REMARK INTRA:                  -0.116
REMARK UNBOUND:                -0.140
REMARK  Name = 1550473
REMARK  2 active torsions:
REMARK  status: ('A' for Active; 'I' for Inactive)
REMARK    1  A    between atoms: N_1  and  C_4
REMARK    2  A    between atoms: C_4  and  C_5
REMARK                            x       y       z     vdW  Elec       q    Type
REMARK                         _______ _______ _______ _____ _____    ______ ____
ROOT
ATOM      1  N   UNL     1     -18.790  11.452  -6.752  0.00  0.00    -0.354 N 
ATOM      2  N   UNL     1     -17.617  12.132  -4.875  0.00  0.00    -0.372 N 
ATOM      3  N   UNL     1     -19.478  10.817  -4.604  0.00  0.00    -0.372 N 
ATOM      4  C   UNL     1     -18.638  11.461  -5.421  0.00  0.00    +0.166 C 
ATOM      5  H   UNL     1     -18.137  11.985  -7.315  0.00  0.00    +0.163 HD
ATOM      6  H   UNL     1     -17.475  12.154  -3.874  0.00  0.00    +0.159 HD
ATOM      7  H   UNL     1     -16.939  12.626  -5.442  0.00  0.00    +0.159 HD
ATOM      8  H   UNL     1     -20.272  10.297  -4.953  0.00  0.00    +0.159 HD
ATOM      9  H   UNL     1     -19.359  10.837  -3.599  0.00  0.00    +0.159 HD
ENDROOT
BRANCH   1  10
ATOM     10  C   UNL     1     -19.837  10.708  -7.451  0.00  0.00    +0.151 C 
BRANCH  10  11
ATOM     11  C   UNL     1     -19.198   9.673  -8.335  0.00  0.00    -0.028 A 
ATOM     12  C   UNL     1     -19.722   9.401  -9.607  0.00  0.00    +0.005 A 
ATOM     13  C   UNL     1     -18.063   8.965  -7.909  0.00  0.00    +0.005 A 
ATOM     14  C   UNL     1     -19.111   8.462 -10.441  0.00  0.00    +0.000 A 
ATOM     15  C   UNL     1     -17.456   8.027  -8.744  0.00  0.00    +0.000 A 
ATOM     16  C   UNL     1     -17.979   7.778 -10.011  0.00  0.00    +0.000 A 
ENDBRANCH  10  11
ENDBRANCH   1  10
TORSDOF 2
ENDMDL
MODEL 6
REMARK VINA RESULT:    -4.659     10.605     11.992
REMARK INTER + INTRA:          -5.345
REMARK INTER:                  -5.216
REMARK INTRA:                  -0.128
REMARK UNBOUND:                -0.140
REMARK  Name = 1550473
REMARK  2 active torsions:
REMARK  status: ('A' for Active; 'I' for Inactive)
REMARK    1  A    between atoms: N_1  and  C_4
REMARK    2  A    between atoms: C_4  and  C_5
REMARK                            x       y       z     vdW  Elec       q    Type
REMARK                         _______ _______ _______ _____ _____    ______ ____
ROOT
ATOM      1  N   UNL     1     -20.085  12.383  -8.627  0.00  0.00    -0.354 N 
ATOM      2  N   UNL     1     -19.112  13.493 -10.413  0.00  0.00    -0.372 N 
ATOM      3  N   UNL     1     -19.922  11.370 -10.734  0.00  0.00    -0.372 N 
ATOM      4  C   UNL     1     -19.713  12.405  -9.914  0.00  0.00    +0.166 C 
ATOM      5  H   UNL     1     -19.871  13.189  -8.051  0.00  0.00    +0.163 HD
ATOM      6  H   UNL     1     -18.824  13.540 -11.381  0.00  0.00    +0.159 HD
ATOM      7  H   UNL     1     -18.941  14.314  -9.845  0.00  0.00    +0.159 HD
ATOM      8  H   UNL     1     -20.366  10.518 -10.418  0.00  0.00    +0.159 HD
ATOM      9  H   UNL     1     -19.630  11.394 -11.703  0.00  0.00    +0.159 HD
ENDROOT
BRANCH   1  10
ATOM     10  C   UNL     1     -20.794  11.270  -8.000  0.00  0.00    +0.151 C 
BRANCH  10  11
ATOM     11  C   UNL     1     -19.842  10.518  -7.111  0.00  0.00    -0.028 A 
ATOM     12  C   UNL     1     -20.002  10.538  -5.718  0.00  0.00    +0.005 A 
ATOM     13  C   UNL     1     -18.780   9.781  -7.657  0.00  0.00    +0.005 A 
ATOM     14  C   UNL     1     -19.135   9.816  -4.894  0.00  0.00    +0.000 A 
ATOM     15  C   UNL     1     -17.916   9.062  -6.830  0.00  0.00    +0.000 A 
ATOM     16  C   UNL     1     -18.096   9.078  -5.449  0.00  0.00    +0.000 A 
ENDBRANCH  10  11
ENDBRANCH   1  10
TORSDOF 2
ENDMDL
MODEL 7
REMARK VINA RESULT:    -4.584     27.164     28.369
REMARK INTER + INTRA:          -5.260
REMARK INTER:                  -5.155
REMARK INTRA:                  -0.105
REMARK UNBOUND:                -0.140
REMARK  Name = 1550473
REMARK  2 active torsions:
REMARK  status: ('A' for Active; 'I' for Inactive)
REMARK    1  A    between atoms: N_1  and  C_4
REMARK    2  A    between atoms: C_4  and  C_5
REMARK                            x       y       z     vdW  Elec       q    Type
REMARK                         _______ _______ _______ _____ _____    ______ ____
ROOT
ATOM      1  N   UNL     1       1.291 -19.608  -4.369  0.00  0.00    -0.354 N 
ATOM      2  N   UNL     1       2.292 -17.520  -4.311  0.00  0.00    -0.372 N 
ATOM      3  N   UNL     1       2.368 -18.732  -6.257  0.00  0.00    -0.372 N 
ATOM      4  C   UNL     1       1.978 -18.635  -4.982  0.00  0.00    +0.166 C 
ATOM      5  H   UNL     1       1.051 -19.486  -3.392  0.00  0.00    +0.163 HD
ATOM      6  H   UNL     1       2.807 -16.767  -4.748  0.00  0.00    +0.159 HD
ATOM      7  H   UNL     1       2.012 -17.381  -3.348  0.00  0.00    +0.159 HD
ATOM      8  H   UNL     1       2.167 -19.550  -6.818  0.00  0.00    +0.159 HD
ATOM      9  H   UNL     1       2.894 -17.995  -6.709  0.00  0.00    +0.159 HD
ENDROOT
BRANCH   1  10
ATOM     10  C   UNL     1       0.852 -20.838  -5.026  0.00  0.00    +0.151 C 
BRANCH  10  11
ATOM     11  C   UNL     1      -0.356 -21.373  -4.309  0.00  0.00    -0.028 A 
ATOM     12  C   UNL     1      -1.505 -21.738  -5.026  0.00  0.00    +0.005 A 
ATOM     13  C   UNL     1      -0.356 -21.524  -2.914  0.00  0.00    +0.005 A 
ATOM     14  C   UNL     1      -2.617 -22.264  -4.363  0.00  0.00    +0.000 A 
ATOM     15  C   UNL     1      -1.469 -22.049  -2.256  0.00  0.00    +0.000 A 
ATOM     16  C   UNL     1      -2.598 -22.421  -2.982  0.00  0.00    +0.000 A 
ENDBRANCH  10  11
ENDBRANCH   1  10
TORSDOF 2
ENDMDL
MODEL 8
REMARK VINA RESULT:    -4.540     20.507     21.581
REMARK INTER + INTRA:          -5.212
REMARK INTER:                  -5.086
REMARK INTRA:                  -0.126
REMARK UNBOUND:                -0.140
REMARK  Name = 1550473
REMARK  2 active torsions:
REMARK  status: ('A' for Active; 'I' for Inactive)
REMARK    1  A    between atoms: N_1  and  C_4
REMARK    2  A    between atoms: C_4  and  C_5
REMARK                            x       y       z     vdW  Elec       q    Type
REMARK                         _______ _______ _______ _____ _____    ______ ____
ROOT
ATOM      1  N   UNL     1       3.962  18.069  -8.884  0.00  0.00    -0.354 N 
ATOM      2  N   UNL     1       3.017  18.970 -10.797  0.00  0.00    -0.372 N 
ATOM      3  N   UNL     1       1.859  19.102  -8.821  0.00  0.00    -0.372 N 
ATOM      4  C   UNL     1       2.950  18.708  -9.487  0.00  0.00    +0.166 C 
ATOM      5  H   UNL     1       4.747  17.770  -9.451  0.00  0.00    +0.163 HD
ATOM      6  H   UNL     1       2.270  19.454 -11.278  0.00  0.00    +0.159 HD
ATOM      7  H   UNL     1       3.823  18.711 -11.352  0.00  0.00    +0.159 HD
ATOM      8  H   UNL     1       1.745  18.930  -7.831  0.00  0.00    +0.159 HD
ATOM      9  H   UNL     1       1.096  19.577  -9.287  0.00  0.00    +0.159 HD
ENDROOT
BRANCH   1  10
ATOM     10  C   UNL     1       4.011  17.784  -7.452  0.00  0.00    +0.151 C 
BRANCH  10  11
ATOM     11  C   UNL     1       5.433  17.492  -7.058  0.00  0.00    -0.028 A 
ATOM     12  C   UNL     1       5.762  17.230  -5.720  0.00  0.00    +0.005 A 
ATOM     13  C   UNL     1       6.455  17.469  -8.019  0.00  0.00    +0.005 A 
ATOM     14  C   UNL     1       7.077  16.929  -5.358  0.00  0.00    +0.000 A 
ATOM     15  C   UNL     1       7.767  17.169  -7.654  0.00  0.00    +0.000 A 
ATOM     16  C   UNL     1       8.077  16.897  -6.324  0.00  0.00    +0.000 A 
ENDBRANCH  10  11
ENDBRANCH   1  10
TORSDOF 2
ENDMDL
MODEL 9
REMARK VINA RESULT:    -4.514     10.299     11.885
REMARK INTER + INTRA:          -5.182
REMARK INTER:                  -5.057
REMARK INTRA:                  -0.126
REMARK UNBOUND:                -0.140
REMARK  Name = 1550473
REMARK  2 active torsions:
REMARK  status: ('A' for Active; 'I' for Inactive)
REMARK    1  A    between atoms: N_1  and  C_4
REMARK    2  A    between atoms: C_4  and  C_5
REMARK                            x       y       z     vdW  Elec       q    Type
REMARK                         _______ _______ _______ _____ _____    ______ ____
ROOT
ATOM      1  N   UNL     1     -18.318   9.279  -6.937  0.00  0.00    -0.354 N 
ATOM      2  N   UNL     1     -16.185   8.455  -7.306  0.00  0.00    -0.372 N 
ATOM      3  N   UNL     1     -16.563  10.705  -7.552  0.00  0.00    -0.372 N 
ATOM      4  C   UNL     1     -17.036   9.488  -7.263  0.00  0.00    +0.166 C 
ATOM      5  H   UNL     1     -18.621   8.329  -6.759  0.00  0.00    +0.163 HD
ATOM      6  H   UNL     1     -15.211   8.583  -7.545  0.00  0.00    +0.159 HD
ATOM      7  H   UNL     1     -16.480   7.513  -7.083  0.00  0.00    +0.159 HD
ATOM      8  H   UNL     1     -17.155  11.525  -7.543  0.00  0.00    +0.159 HD
ATOM      9  H   UNL     1     -15.594  10.851  -7.805  0.00  0.00    +0.159 HD
ENDROOT
BRANCH   1  10
ATOM     10  C   UNL     1     -19.313  10.343  -6.810  0.00  0.00    +0.151 C 
BRANCH  10  11
ATOM     11  C   UNL     1     -20.438  10.081  -7.772  0.00  0.00    -0.028 A 
ATOM     12  C   UNL     1     -20.196   9.428  -8.990  0.00  0.00    +0.005 A 
ATOM     13  C   UNL     1     -21.750  10.477  -7.470  0.00  0.00    +0.005 A 
ATOM     14  C   UNL     1     -21.246   9.157  -9.871  0.00  0.00    +0.000 A 
ATOM     15  C   UNL     1     -22.795  10.206  -8.353  0.00  0.00    +0.000 A 
ATOM     16  C   UNL     1     -22.543   9.544  -9.552  0.00  0.00    +0.000 A 
ENDBRANCH  10  11
ENDBRANCH   1  10
TORSDOF 2
ENDMDL
