MODEL 1
REMARK VINA RESULT:    -4.730      0.000      0.000
REMARK INTER + INTRA:          -5.450
REMARK INTER:                  -5.283
REMARK INTRA:                  -0.167
REMARK UNBOUND:                -0.167
REMARK  Name = 1550473
REMARK  2 active torsions:
REMARK  status: ('A' for Active; 'I' for Inactive)
REMARK    1  A    between atoms: N_1  and  C_4
REMARK    2  A    between atoms: C_4  and  C_5
REMARK                            x       y       z     vdW  Elec       q    Type
REMARK                         _______ _______ _______ _____ _____    ______ ____
ROOT
ATOM      1  N   UNL     1       1.307  10.734  -6.282  0.00  0.00    -0.354 N 
ATOM      2  N   UNL     1      -0.520   9.494  -5.586  0.00  0.00    -0.372 N 
ATOM      3  N   UNL     1       0.152  11.285  -4.319  0.00  0.00    -0.372 N 
ATOM      4  C   UNL     1       0.325  10.514  -5.398  0.00  0.00    +0.166 C 
ATOM      5  H   UNL     1       1.404  10.096  -7.064  0.00  0.00    +0.163 HD
ATOM      6  H   UNL     1      -1.273   9.305  -4.938  0.00  0.00    +0.159 HD
ATOM      7  H   UNL     1      -0.450   8.885  -6.392  0.00  0.00    +0.159 HD
ATOM      8  H   UNL     1       0.759  12.067  -4.117  0.00  0.00    +0.159 HD
ATOM      9  H   UNL     1      -0.589  11.105  -3.653  0.00  0.00    +0.159 HD
ENDROOT
BRANCH   1  10
ATOM     10  C   UNL     1       2.248  11.850  -6.199  0.00  0.00    +0.151 C 
BRANCH  10  11
ATOM     11  C   UNL     1       3.607  11.321  -5.836  0.00  0.00    -0.028 A 
ATOM     12  C   UNL     1       4.351  10.573  -6.761  0.00  0.00    +0.005 A 
ATOM     13  C   UNL     1       4.161  11.567  -4.570  0.00  0.00    +0.005 A 
ATOM     14  C   UNL     1       5.626  10.107  -6.435  0.00  0.00    +0.000 A 
ATOM     15  C   UNL     1       5.434  11.099  -4.248  0.00  0.00    +0.000 A 
ATOM     16  C   UNL     1       6.168  10.371  -5.182  0.00  0.00    +0.000 A 
ENDBRANCH  10  11
ENDBRANCH   1  10
TORSDOF 2
ENDMDL
MODEL 2
REMARK VINA RESULT:    -4.546      5.834      8.657
REMARK INTER + INTRA:          -5.244
REMARK INTER:                  -5.119
REMARK INTRA:                  -0.125
REMARK UNBOUND:                -0.167
REMARK  Name = 1550473
REMARK  2 active torsions:
REMARK  status: ('A' for Active; 'I' for Inactive)
REMARK    1  A    between atoms: N_1  and  C_4
REMARK    2  A    between atoms: C_4  and  C_5
REMARK                            x       y       z     vdW  Elec       q    Type
REMARK                         _______ _______ _______ _____ _____    ______ ____
ROOT
ATOM      1  N   UNL     1      -3.020  10.109  -7.033  0.00  0.00    -0.354 N 
ATOM      2  N   UNL     1      -1.042   9.544  -5.969  0.00  0.00    -0.372 N 
ATOM      3  N   UNL     1      -2.813  10.272  -4.705  0.00  0.00    -0.372 N 
ATOM      4  C   UNL     1      -2.306   9.980  -5.907  0.00  0.00    +0.166 C 
ATOM      5  H   UNL     1      -2.568   9.899  -7.916  0.00  0.00    +0.163 HD
ATOM      6  H   UNL     1      -0.480   9.433  -5.135  0.00  0.00    +0.159 HD
ATOM      7  H   UNL     1      -0.608   9.291  -6.848  0.00  0.00    +0.159 HD
ATOM      8  H   UNL     1      -3.759  10.612  -4.591  0.00  0.00    +0.159 HD
ATOM      9  H   UNL     1      -2.263  10.179  -3.860  0.00  0.00    +0.159 HD
ENDROOT
BRANCH   1  10
ATOM     10  C   UNL     1      -4.421  10.524  -7.071  0.00  0.00    +0.151 C 
BRANCH  10  11
ATOM     11  C   UNL     1      -4.760  10.986  -8.461  0.00  0.00    -0.028 A 
ATOM     12  C   UNL     1      -6.097  11.138  -8.855  0.00  0.00    +0.005 A 
ATOM     13  C   UNL     1      -3.748  11.279  -9.388  0.00  0.00    +0.005 A 
ATOM     14  C   UNL     1      -6.412  11.595 -10.137  0.00  0.00    +0.000 A 
ATOM     15  C   UNL     1      -4.066  11.735 -10.667  0.00  0.00    +0.000 A 
ATOM     16  C   UNL     1      -5.398  11.895 -11.040  0.00  0.00    +0.000 A 
ENDBRANCH  10  11
ENDBRANCH   1  10
TORSDOF 2
ENDMDL
MODEL 3
REMARK VINA RESULT:    -4.485     19.136     20.943
REMARK INTER + INTRA:          -5.176
REMARK INTER:                  -5.049
REMARK INTRA:                  -0.126
REMARK UNBOUND:                -0.167
REMARK  Name = 1550473
REMARK  2 active torsions:
REMARK  status: ('A' for Active; 'I' for Inactive)
REMARK    1  A    between atoms: N_1  and  C_4
REMARK    2  A    between atoms: C_4  and  C_5
REMARK                            x       y       z     vdW  Elec       q    Type
REMARK                         _______ _______ _______ _____ _____    ______ ____
ROOT
ATOM      1  N   UNL     1     -13.690  -3.209  -1.783  0.00  0.00    -0.354 N 
ATOM      2  N   UNL     1     -13.444  -5.298  -0.814  0.00  0.00    -0.372 N 
ATOM      3  N   UNL     1     -14.415  -5.145  -2.887  0.00  0.00    -0.372 N 
ATOM      4  C   UNL     1     -13.853  -4.537  -1.837  0.00  0.00    +0.166 C 
ATOM      5  H   UNL     1     -13.285  -2.807  -0.946  0.00  0.00    +0.163 HD
ATOM      6  H   UNL     1     -13.550  -6.303  -0.828  0.00  0.00    +0.159 HD
ATOM      7  H   UNL     1     -12.997  -4.898   0.002  0.00  0.00    +0.159 HD
ATOM      8  H   UNL     1     -14.750  -4.627  -3.689  0.00  0.00    +0.159 HD
ATOM      9  H   UNL     1     -14.541  -6.149  -2.915  0.00  0.00    +0.159 HD
ENDROOT
BRANCH   1  10
ATOM     10  C   UNL     1     -14.052  -2.296  -2.867  0.00  0.00    +0.151 C 
BRANCH  10  11
ATOM     11  C   UNL     1     -13.263  -1.024  -2.722  0.00  0.00    -0.028 A 
ATOM     12  C   UNL     1     -12.053  -1.014  -2.012  0.00  0.00    +0.005 A 
ATOM     13  C   UNL     1     -13.717   0.173  -3.296  0.00  0.00    +0.005 A 
ATOM     14  C   UNL     1     -11.305   0.161  -1.902  0.00  0.00    +0.000 A 
ATOM     15  C   UNL     1     -12.968   1.344  -3.184  0.00  0.00    +0.000 A 
ATOM     16  C   UNL     1     -11.761   1.337  -2.489  0.00  0.00    +0.000 A 
ENDBRANCH  10  11
ENDBRANCH   1  10
TORSDOF 2
ENDMDL
MODEL 4
REMARK VINA RESULT:    -4.432      9.696     11.081
REMARK INTER + INTRA:          -5.117
REMARK INTER:                  -4.982
REMARK INTRA:                  -0.136
REMARK UNBOUND:                -0.167
REMARK  Name = 1550473
REMARK  2 active torsions:
REMARK  status: ('A' for Active; 'I' for Inactive)
REMARK    1  A    between atoms: N_1  and  C_4
REMARK    2  A    between atoms: C_4  and  C_5
REMARK                            x       y       z     vdW  Elec       q    Type
REMARK                         _______ _______ _______ _____ _____    ______ ____
ROOT
ATOM      1  N   UNL     1       5.064  13.167   2.790  0.00  0.00    -0.354 N 
ATOM      2  N   UNL     1       6.405  12.935   0.916  0.00  0.00    -0.372 N 
ATOM      3  N   UNL     1       4.459  14.138   0.745  0.00  0.00    -0.372 N 
ATOM      4  C   UNL     1       5.298  13.416   1.494  0.00  0.00    +0.166 C 
ATOM      5  H   UNL     1       5.725  12.588   3.296  0.00  0.00    +0.163 HD
ATOM      6  H   UNL     1       6.610  13.109  -0.059  0.00  0.00    +0.159 HD
ATOM      7  H   UNL     1       7.086  12.395   1.435  0.00  0.00    +0.159 HD
ATOM      8  H   UNL     1       3.603  14.524   1.120  0.00  0.00    +0.159 HD
ATOM      9  H   UNL     1       4.640  14.313  -0.236  0.00  0.00    +0.159 HD
ENDROOT
BRANCH   1  10
ATOM     10  C   UNL     1       3.916  13.690   3.528  0.00  0.00    +0.151 C 
BRANCH  10  11
ATOM     11  C   UNL     1       4.408  14.421   4.747  0.00  0.00    -0.028 A 
ATOM     12  C   UNL     1       3.707  14.337   5.959  0.00  0.00    +0.005 A 
ATOM     13  C   UNL     1       5.578  15.195   4.698  0.00  0.00    +0.005 A 
ATOM     14  C   UNL     1       4.179  14.992   7.099  0.00  0.00    +0.000 A 
ATOM     15  C   UNL     1       6.046  15.848   5.838  0.00  0.00    +0.000 A 
ATOM     16  C   UNL     1       5.348  15.744   7.039  0.00  0.00    +0.000 A 
ENDBRANCH  10  11
ENDBRANCH   1  10
TORSDOF 2
ENDMDL
MODEL 5
REMARK VINA RESULT:    -4.304      5.349      8.059
REMARK INTER + INTRA:          -4.974
REMARK INTER:                  -4.792
REMARK INTRA:                  -0.182
REMARK UNBOUND:                -0.167
REMARK  Name = 1550473
REMARK  2 active torsions:
REMARK  status: ('A' for Active; 'I' for Inactive)
REMARK    1  A    between atoms: N_1  and  C_4
REMARK    2  A    between atoms: C_4  and  C_5
REMARK                            x       y       z     vdW  Elec       q    Type
REMARK                         _______ _______ _______ _____ _____    ______ ____
ROOT
ATOM      1  N   UNL     1      -1.826  11.314  -6.682  0.00  0.00    -0.354 N 
ATOM      2  N   UNL     1      -0.785   9.410  -5.874  0.00  0.00    -0.372 N 
ATOM      3  N   UNL     1      -2.619  10.227  -4.763  0.00  0.00    -0.372 N 
ATOM      4  C   UNL     1      -1.752  10.330  -5.776  0.00  0.00    +0.166 C 
ATOM      5  H   UNL     1      -1.121  11.354  -7.408  0.00  0.00    +0.163 HD
ATOM      6  H   UNL     1      -0.706   8.654  -5.207  0.00  0.00    +0.159 HD
ATOM      7  H   UNL     1      -0.109   9.426  -6.627  0.00  0.00    +0.159 HD
ATOM      8  H   UNL     1      -3.369  10.893  -4.630  0.00  0.00    +0.159 HD
ATOM      9  H   UNL     1      -2.549   9.484  -4.079  0.00  0.00    +0.159 HD
ENDROOT
BRANCH   1  10
ATOM     10  C   UNL     1      -2.873  12.335  -6.697  0.00  0.00    +0.151 C 
BRANCH  10  11
ATOM     11  C   UNL     1      -3.945  11.925  -7.669  0.00  0.00    -0.028 A 
ATOM     12  C   UNL     1      -3.735  12.042  -9.051  0.00  0.00    +0.005 A 
ATOM     13  C   UNL     1      -5.170  11.415  -7.214  0.00  0.00    +0.005 A 
ATOM     14  C   UNL     1      -4.718  11.633  -9.955  0.00  0.00    +0.000 A 
ATOM     15  C   UNL     1      -6.150  11.009  -8.120  0.00  0.00    +0.000 A 
ATOM     16  C   UNL     1      -5.923  11.116  -9.490  0.00  0.00    +0.000 A 
ENDBRANCH  10  11
ENDBRANCH   1  10
TORSDOF 2
ENDMDL
MODEL 6
REMARK VINA RESULT:    -4.190     16.820     19.141
REMARK INTER + INTRA:          -4.846
REMARK INTER:                  -4.719
REMARK INTRA:                  -0.127
REMARK UNBOUND:                -0.167
REMARK  Name = 1550473
REMARK  2 active torsions:
REMARK  status: ('A' for Active; 'I' for Inactive)
REMARK    1  A    between atoms: N_1  and  C_4
REMARK    2  A    between atoms: C_4  and  C_5
REMARK                            x       y       z     vdW  Elec       q    Type
REMARK                         _______ _______ _______ _____ _____    ______ ____
ROOT
ATOM      1  N   UNL     1     -12.320   8.299   1.848  0.00  0.00    -0.354 N 
ATOM      2  N   UNL     1     -11.386  10.407   1.626  0.00  0.00    -0.372 N 
ATOM      3  N   UNL     1     -11.561   9.486   3.720  0.00  0.00    -0.372 N 
ATOM      4  C   UNL     1     -11.762   9.383   2.402  0.00  0.00    +0.166 C 
ATOM      5  H   UNL     1     -12.473   8.296   0.846  0.00  0.00    +0.163 HD
ATOM      6  H   UNL     1     -10.959  11.237   2.016  0.00  0.00    +0.159 HD
ATOM      7  H   UNL     1     -11.498  10.382   0.620  0.00  0.00    +0.159 HD
ATOM      8  H   UNL     1     -11.828   8.751   4.362  0.00  0.00    +0.159 HD
ATOM      9  H   UNL     1     -11.146  10.313   4.131  0.00  0.00    +0.159 HD
ENDROOT
BRANCH   1  10
ATOM     10  C   UNL     1     -12.716   7.109   2.598  0.00  0.00    +0.151 C 
BRANCH  10  11
ATOM     11  C   UNL     1     -13.943   6.514   1.964  0.00  0.00    -0.028 A 
ATOM     12  C   UNL     1     -14.783   5.664   2.699  0.00  0.00    +0.005 A 
ATOM     13  C   UNL     1     -14.274   6.800   0.631  0.00  0.00    +0.005 A 
ATOM     14  C   UNL     1     -15.939   5.135   2.120  0.00  0.00    +0.000 A 
ATOM     15  C   UNL     1     -15.429   6.269   0.056  0.00  0.00    +0.000 A 
ATOM     16  C   UNL     1     -16.262   5.439   0.802  0.00  0.00    +0.000 A 
ENDBRANCH  10  11
ENDBRANCH   1  10
TORSDOF 2
ENDMDL
MODEL 7
REMARK VINA RESULT:    -4.170     15.204     16.131
REMARK INTER + INTRA:          -4.824
REMARK INTER:                  -4.702
REMARK INTRA:                  -0.122
REMARK UNBOUND:                -0.167
REMARK  Name = 1550473
REMARK  2 active torsions:
REMARK  status: ('A' for Active; 'I' for Inactive)
REMARK    1  A    between atoms: N_1  and  C_4
REMARK    2  A    between atoms: C_4  and  C_5
REMARK                            x       y       z     vdW  Elec       q    Type
REMARK                         _______ _______ _______ _____ _____    ______ ____
ROOT
ATOM      1  N   UNL     1       1.211  -1.898 -13.441  0.00  0.00    -0.354 N 
ATOM      2  N   UNL     1      -0.246  -0.794 -14.863  0.00  0.00    -0.372 N 
ATOM      3  N   UNL     1       1.710   0.242 -14.256  0.00  0.00    -0.372 N 
ATOM      4  C   UNL     1       0.903  -0.822 -14.177  0.00  0.00    +0.166 C 
ATOM      5  H   UNL     1       0.543  -2.659 -13.398  0.00  0.00    +0.163 HD
ATOM      6  H   UNL     1      -0.503   0.003 -15.429  0.00  0.00    +0.159 HD
ATOM      7  H   UNL     1      -0.890  -1.575 -14.855  0.00  0.00    +0.159 HD
ATOM      8  H   UNL     1       2.589   0.285 -13.758  0.00  0.00    +0.159 HD
ATOM      9  H   UNL     1       1.464   1.054 -14.808  0.00  0.00    +0.159 HD
ENDROOT
BRANCH   1  10
ATOM     10  C   UNL     1       2.462  -2.051 -12.699  0.00  0.00    +0.151 C 
BRANCH  10  11
ATOM     11  C   UNL     1       2.680  -3.509 -12.399  0.00  0.00    -0.028 A 
ATOM     12  C   UNL     1       3.351  -3.903 -11.233  0.00  0.00    +0.005 A 
ATOM     13  C   UNL     1       2.213  -4.500 -13.275  0.00  0.00    +0.005 A 
ATOM     14  C   UNL     1       3.527  -5.257 -10.939  0.00  0.00    +0.000 A 
ATOM     15  C   UNL     1       2.392  -5.851 -12.979  0.00  0.00    +0.000 A 
ATOM     16  C   UNL     1       3.046  -6.229 -11.809  0.00  0.00    +0.000 A 
ENDBRANCH  10  11
ENDBRANCH   1  10
TORSDOF 2
ENDMDL
MODEL 8
REMARK VINA RESULT:    -4.015      4.832      8.254
REMARK INTER + INTRA:          -4.651
REMARK INTER:                  -4.561
REMARK INTRA:                  -0.090
REMARK UNBOUND:                -0.167
REMARK  Name = 1550473
REMARK  2 active torsions:
REMARK  status: ('A' for Active; 'I' for Inactive)
REMARK    1  A    between atoms: N_1  and  C_4
REMARK    2  A    between atoms: C_4  and  C_5
REMARK                            x       y       z     vdW  Elec       q    Type
REMARK                         _______ _______ _______ _____ _____    ______ ____
ROOT
ATOM      1  N   UNL     1      -2.026  11.156  -5.810  0.00  0.00    -0.354 N 
ATOM      2  N   UNL     1       0.235  11.572  -6.088  0.00  0.00    -0.372 N 
ATOM      3  N   UNL     1      -0.447   9.437  -5.594  0.00  0.00    -0.372 N 
ATOM      4  C   UNL     1      -0.761  10.716  -5.828  0.00  0.00    +0.166 C 
ATOM      5  H   UNL     1      -2.195  12.143  -5.966  0.00  0.00    +0.163 HD
ATOM      6  H   UNL     1       1.200  11.268  -6.112  0.00  0.00    +0.159 HD
ATOM      7  H   UNL     1       0.060  12.549  -6.289  0.00  0.00    +0.159 HD
ATOM      8  H   UNL     1      -1.152   8.743  -5.385  0.00  0.00    +0.159 HD
ATOM      9  H   UNL     1       0.513   9.117  -5.602  0.00  0.00    +0.159 HD
ENDROOT
BRANCH   1  10
ATOM     10  C   UNL     1      -3.187  10.295  -5.590  0.00  0.00    +0.151 C 
BRANCH  10  11
ATOM     11  C   UNL     1      -4.438  11.124  -5.689  0.00  0.00    -0.028 A 
ATOM     12  C   UNL     1      -5.142  11.209  -6.900  0.00  0.00    +0.005 A 
ATOM     13  C   UNL     1      -4.928  11.822  -4.575  0.00  0.00    +0.005 A 
ATOM     14  C   UNL     1      -6.320  11.955  -6.984  0.00  0.00    +0.000 A 
ATOM     15  C   UNL     1      -6.105  12.566  -4.664  0.00  0.00    +0.000 A 
ATOM     16  C   UNL     1      -6.802  12.630  -5.868  0.00  0.00    +0.000 A 
ENDBRANCH  10  11
ENDBRANCH   1  10
TORSDOF 2
ENDMDL
MODEL 9
REMARK VINA RESULT:    -3.925     24.348     25.434
REMARK INTER + INTRA:          -4.551
REMARK INTER:                  -4.428
REMARK INTRA:                  -0.123
REMARK UNBOUND:                -0.167
REMARK  Name = 1550473
REMARK  2 active torsions:
REMARK  status: ('A' for Active; 'I' for Inactive)
REMARK    1  A    between atoms: N_1  and  C_4
REMARK    2  A    between atoms: C_4  and  C_5
REMARK                            x       y       z     vdW  Elec       q    Type
REMARK                         _______ _______ _______ _____ _____    ______ ____
ROOT
ATOM      1  N   UNL     1      12.672 -11.052   5.329  0.00  0.00    -0.354 N 
ATOM      2  N   UNL     1      11.054 -10.728   6.954  0.00  0.00    -0.372 N 
ATOM      3  N   UNL     1      10.409 -11.460   4.877  0.00  0.00    -0.372 N 
ATOM      4  C   UNL     1      11.387 -11.083   5.707  0.00  0.00    +0.166 C 
ATOM      5  H   UNL     1      13.363 -10.728   5.997  0.00  0.00    +0.163 HD
ATOM      6  H   UNL     1      10.093 -10.745   7.269  0.00  0.00    +0.159 HD
ATOM      7  H   UNL     1      11.751 -10.449   7.633  0.00  0.00    +0.159 HD
ATOM      8  H   UNL     1      10.594 -11.733   3.921  0.00  0.00    +0.159 HD
ATOM      9  H   UNL     1       9.440 -11.472   5.170  0.00  0.00    +0.159 HD
ENDROOT
BRANCH   1  10
ATOM     10  C   UNL     1      13.147 -11.469   4.011  0.00  0.00    +0.151 C 
BRANCH  10  11
ATOM     11  C   UNL     1      14.002 -10.377   3.429  0.00  0.00    -0.028 A 
ATOM     12  C   UNL     1      15.145  -9.930   4.107  0.00  0.00    +0.005 A 
ATOM     13  C   UNL     1      13.677  -9.790   2.196  0.00  0.00    +0.005 A 
ATOM     14  C   UNL     1      15.956  -8.937   3.552  0.00  0.00    +0.000 A 
ATOM     15  C   UNL     1      14.488  -8.798   1.646  0.00  0.00    +0.000 A 
ATOM     16  C   UNL     1      15.629  -8.373   2.323  0.00  0.00    +0.000 A 
ENDBRANCH  10  11
ENDBRANCH   1  10
TORSDOF 2
ENDMDL
