MODEL 1
REMARK VINA RESULT:    -6.136      0.000      0.000
REMARK INTER + INTRA:          -6.996
REMARK INTER:                  -6.854
REMARK INTRA:                  -0.143
REMARK UNBOUND:                -0.143
REMARK  Name = 1550473
REMARK  2 active torsions:
REMARK  status: ('A' for Active; 'I' for Inactive)
REMARK    1  A    between atoms: N_1  and  C_4
REMARK    2  A    between atoms: C_4  and  C_5
REMARK                            x       y       z     vdW  Elec       q    Type
REMARK                         _______ _______ _______ _____ _____    ______ ____
ROOT
ATOM      1  N   UNL     1      -8.513  -0.343 -18.827  0.00  0.00    -0.354 N 
ATOM      2  N   UNL     1     -10.044   1.293 -18.238  0.00  0.00    -0.372 N 
ATOM      3  N   UNL     1      -7.817   1.841 -18.336  0.00  0.00    -0.372 N 
ATOM      4  C   UNL     1      -8.779   0.921 -18.471  0.00  0.00    +0.166 C 
ATOM      5  H   UNL     1      -9.283  -0.999 -18.882  0.00  0.00    +0.163 HD
ATOM      6  H   UNL     1     -10.275   2.240 -17.971  0.00  0.00    +0.159 HD
ATOM      7  H   UNL     1     -10.816   0.646 -18.339  0.00  0.00    +0.159 HD
ATOM      8  H   UNL     1      -6.842   1.622 -18.492  0.00  0.00    +0.159 HD
ATOM      9  H   UNL     1      -8.028   2.791 -18.059  0.00  0.00    +0.159 HD
ENDROOT
BRANCH   1  10
ATOM     10  C   UNL     1      -7.177  -0.836 -19.155  0.00  0.00    +0.151 C 
BRANCH  10  11
ATOM     11  C   UNL     1      -6.664  -1.665 -18.010  0.00  0.00    -0.028 A 
ATOM     12  C   UNL     1      -6.206  -1.051 -16.835  0.00  0.00    +0.005 A 
ATOM     13  C   UNL     1      -6.641  -3.066 -18.090  0.00  0.00    +0.005 A 
ATOM     14  C   UNL     1      -5.758  -1.821 -15.760  0.00  0.00    +0.000 A 
ATOM     15  C   UNL     1      -6.192  -3.832 -17.015  0.00  0.00    +0.000 A 
ATOM     16  C   UNL     1      -5.753  -3.209 -15.849  0.00  0.00    +0.000 A 
ENDBRANCH  10  11
ENDBRANCH   1  10
TORSDOF 2
ENDMDL
MODEL 2
REMARK VINA RESULT:    -5.036     24.313     25.677
REMARK INTER + INTRA:          -5.768
REMARK INTER:                  -5.676
REMARK INTRA:                  -0.091
REMARK UNBOUND:                -0.143
REMARK  Name = 1550473
REMARK  2 active torsions:
REMARK  status: ('A' for Active; 'I' for Inactive)
REMARK    1  A    between atoms: N_1  and  C_4
REMARK    2  A    between atoms: C_4  and  C_5
REMARK                            x       y       z     vdW  Elec       q    Type
REMARK                         _______ _______ _______ _____ _____    ______ ____
ROOT
ATOM      1  N   UNL     1       8.392  -8.367   2.687  0.00  0.00    -0.354 N 
ATOM      2  N   UNL     1       9.407  -8.968   4.680  0.00  0.00    -0.372 N 
ATOM      3  N   UNL     1       7.156  -9.331   4.429  0.00  0.00    -0.372 N 
ATOM      4  C   UNL     1       8.309  -8.885   3.920  0.00  0.00    +0.166 C 
ATOM      5  H   UNL     1       9.289  -8.019   2.371  0.00  0.00    +0.163 HD
ATOM      6  H   UNL     1       9.376  -9.357   5.613  0.00  0.00    +0.159 HD
ATOM      7  H   UNL     1      10.312  -8.662   4.344  0.00  0.00    +0.159 HD
ATOM      8  H   UNL     1       6.289  -9.291   3.909  0.00  0.00    +0.159 HD
ATOM      9  H   UNL     1       7.102  -9.713   5.365  0.00  0.00    +0.159 HD
ENDROOT
BRANCH   1  10
ATOM     10  C   UNL     1       7.266  -8.282   1.759  0.00  0.00    +0.151 C 
BRANCH  10  11
ATOM     11  C   UNL     1       7.751  -7.727   0.448  0.00  0.00    -0.028 A 
ATOM     12  C   UNL     1       7.661  -6.353   0.179  0.00  0.00    +0.005 A 
ATOM     13  C   UNL     1       8.307  -8.569  -0.527  0.00  0.00    +0.005 A 
ATOM     14  C   UNL     1       8.139  -5.833  -1.026  0.00  0.00    +0.000 A 
ATOM     15  C   UNL     1       8.782  -8.046  -1.730  0.00  0.00    +0.000 A 
ATOM     16  C   UNL     1       8.700  -6.678  -1.978  0.00  0.00    +0.000 A 
ENDBRANCH  10  11
ENDBRANCH   1  10
TORSDOF 2
ENDMDL
MODEL 3
REMARK VINA RESULT:    -5.003     13.029     14.160
REMARK INTER + INTRA:          -5.731
REMARK INTER:                  -5.636
REMARK INTRA:                  -0.096
REMARK UNBOUND:                -0.143
REMARK  Name = 1550473
REMARK  2 active torsions:
REMARK  status: ('A' for Active; 'I' for Inactive)
REMARK    1  A    between atoms: N_1  and  C_4
REMARK    2  A    between atoms: C_4  and  C_5
REMARK                            x       y       z     vdW  Elec       q    Type
REMARK                         _______ _______ _______ _____ _____    ______ ____
ROOT
ATOM      1  N   UNL     1      -3.201   9.266 -11.080  0.00  0.00    -0.354 N 
ATOM      2  N   UNL     1      -4.844   7.666 -10.757  0.00  0.00    -0.372 N 
ATOM      3  N   UNL     1      -5.219   9.806 -10.018  0.00  0.00    -0.372 N 
ATOM      4  C   UNL     1      -4.412   8.925 -10.619  0.00  0.00    +0.166 C 
ATOM      5  H   UNL     1      -2.625   8.545 -11.499  0.00  0.00    +0.163 HD
ATOM      6  H   UNL     1      -5.754   7.380 -10.422  0.00  0.00    +0.159 HD
ATOM      7  H   UNL     1      -4.285   6.958 -11.217  0.00  0.00    +0.159 HD
ATOM      8  H   UNL     1      -4.950  10.770  -9.878  0.00  0.00    +0.159 HD
ATOM      9  H   UNL     1      -6.129   9.536  -9.666  0.00  0.00    +0.159 HD
ENDROOT
BRANCH   1  10
ATOM     10  C   UNL     1      -2.659  10.622 -11.029  0.00  0.00    +0.151 C 
BRANCH  10  11
ATOM     11  C   UNL     1      -1.335  10.650 -11.743  0.00  0.00    -0.028 A 
ATOM     12  C   UNL     1      -0.227   9.972 -11.214  0.00  0.00    +0.005 A 
ATOM     13  C   UNL     1      -1.185  11.346 -12.952  0.00  0.00    +0.005 A 
ATOM     14  C   UNL     1       0.994   9.972 -11.892  0.00  0.00    +0.000 A 
ATOM     15  C   UNL     1       0.036  11.345 -13.625  0.00  0.00    +0.000 A 
ATOM     16  C   UNL     1       1.125  10.655 -13.097  0.00  0.00    +0.000 A 
ENDBRANCH  10  11
ENDBRANCH   1  10
TORSDOF 2
ENDMDL
MODEL 4
REMARK VINA RESULT:    -4.997     20.384     21.588
REMARK INTER + INTRA:          -5.724
REMARK INTER:                  -5.551
REMARK INTRA:                  -0.173
REMARK UNBOUND:                -0.143
REMARK  Name = 1550473
REMARK  2 active torsions:
REMARK  status: ('A' for Active; 'I' for Inactive)
REMARK    1  A    between atoms: N_1  and  C_4
REMARK    2  A    between atoms: C_4  and  C_5
REMARK                            x       y       z     vdW  Elec       q    Type
REMARK                         _______ _______ _______ _____ _____    ______ ____
ROOT
ATOM      1  N   UNL     1      -7.059  10.050  -1.654  0.00  0.00    -0.354 N 
ATOM      2  N   UNL     1      -6.586  10.768  -3.804  0.00  0.00    -0.372 N 
ATOM      3  N   UNL     1      -4.853  10.144  -2.437  0.00  0.00    -0.372 N 
ATOM      4  C   UNL     1      -6.166  10.316  -2.617  0.00  0.00    +0.166 C 
ATOM      5  H   UNL     1      -8.039  10.229  -1.843  0.00  0.00    +0.163 HD
ATOM      6  H   UNL     1      -5.936  10.975  -4.551  0.00  0.00    +0.159 HD
ATOM      7  H   UNL     1      -7.570  10.904  -4.006  0.00  0.00    +0.159 HD
ATOM      8  H   UNL     1      -4.471   9.811  -1.562  0.00  0.00    +0.159 HD
ATOM      9  H   UNL     1      -4.185  10.356  -3.169  0.00  0.00    +0.159 HD
ENDROOT
BRANCH   1  10
ATOM     10  C   UNL     1      -6.711   9.502  -0.344  0.00  0.00    +0.151 C 
BRANCH  10  11
ATOM     11  C   UNL     1      -6.648  10.623   0.656  0.00  0.00    -0.028 A 
ATOM     12  C   UNL     1      -5.416  11.190   1.014  0.00  0.00    +0.005 A 
ATOM     13  C   UNL     1      -7.818  11.127   1.245  0.00  0.00    +0.005 A 
ATOM     14  C   UNL     1      -5.360  12.252   1.920  0.00  0.00    +0.000 A 
ATOM     15  C   UNL     1      -7.758  12.187   2.150  0.00  0.00    +0.000 A 
ATOM     16  C   UNL     1      -6.529  12.750   2.486  0.00  0.00    +0.000 A 
ENDBRANCH  10  11
ENDBRANCH   1  10
TORSDOF 2
ENDMDL
MODEL 5
REMARK VINA RESULT:    -4.993     21.826     22.796
REMARK INTER + INTRA:          -5.720
REMARK INTER:                  -5.581
REMARK INTRA:                  -0.139
REMARK UNBOUND:                -0.143
REMARK  Name = 1550473
REMARK  2 active torsions:
REMARK  status: ('A' for Active; 'I' for Inactive)
REMARK    1  A    between atoms: N_1  and  C_4
REMARK    2  A    between atoms: C_4  and  C_5
REMARK                            x       y       z     vdW  Elec       q    Type
REMARK                         _______ _______ _______ _____ _____    ______ ____
ROOT
ATOM      1  N   UNL     1     -10.723   1.612   4.734  0.00  0.00    -0.354 N 
ATOM      2  N   UNL     1     -11.532   3.188   3.242  0.00  0.00    -0.372 N 
ATOM      3  N   UNL     1     -12.778   1.306   3.652  0.00  0.00    -0.372 N 
ATOM      4  C   UNL     1     -11.674   2.023   3.885  0.00  0.00    +0.166 C 
ATOM      5  H   UNL     1      -9.896   2.188   4.845  0.00  0.00    +0.163 HD
ATOM      6  H   UNL     1     -12.235   3.526   2.599  0.00  0.00    +0.159 HD
ATOM      7  H   UNL     1     -10.726   3.783   3.389  0.00  0.00    +0.159 HD
ATOM      8  H   UNL     1     -12.943   0.415   4.101  0.00  0.00    +0.159 HD
ATOM      9  H   UNL     1     -13.488   1.621   3.002  0.00  0.00    +0.159 HD
ENDROOT
BRANCH   1  10
ATOM     10  C   UNL     1     -10.806   0.386   5.525  0.00  0.00    +0.151 C 
BRANCH  10  11
ATOM     11  C   UNL     1      -9.484  -0.329   5.463  0.00  0.00    -0.028 A 
ATOM     12  C   UNL     1      -9.033  -1.087   6.554  0.00  0.00    +0.005 A 
ATOM     13  C   UNL     1      -8.681  -0.257   4.315  0.00  0.00    +0.005 A 
ATOM     14  C   UNL     1      -7.820  -1.775   6.486  0.00  0.00    +0.000 A 
ATOM     15  C   UNL     1      -7.470  -0.945   4.251  0.00  0.00    +0.000 A 
ATOM     16  C   UNL     1      -7.040  -1.706   5.336  0.00  0.00    +0.000 A 
ENDBRANCH  10  11
ENDBRANCH   1  10
TORSDOF 2
ENDMDL
MODEL 6
REMARK VINA RESULT:    -4.855      3.685      4.953
REMARK INTER + INTRA:          -5.565
REMARK INTER:                  -5.388
REMARK INTRA:                  -0.178
REMARK UNBOUND:                -0.143
REMARK  Name = 1550473
REMARK  2 active torsions:
REMARK  status: ('A' for Active; 'I' for Inactive)
REMARK    1  A    between atoms: N_1  and  C_4
REMARK    2  A    between atoms: C_4  and  C_5
REMARK                            x       y       z     vdW  Elec       q    Type
REMARK                         _______ _______ _______ _____ _____    ______ ____
ROOT
ATOM      1  N   UNL     1      -8.370  -0.556 -22.379  0.00  0.00    -0.354 N 
ATOM      2  N   UNL     1      -9.262  -2.542 -23.168  0.00  0.00    -0.372 N 
ATOM      3  N   UNL     1      -7.362  -2.613 -21.884  0.00  0.00    -0.372 N 
ATOM      4  C   UNL     1      -8.323  -1.892 -22.471  0.00  0.00    +0.166 C 
ATOM      5  H   UNL     1      -9.107  -0.065 -22.871  0.00  0.00    +0.163 HD
ATOM      6  H   UNL     1      -9.254  -3.550 -23.253  0.00  0.00    +0.159 HD
ATOM      7  H   UNL     1     -10.024  -2.052 -23.622  0.00  0.00    +0.159 HD
ATOM      8  H   UNL     1      -6.621  -2.182 -21.348  0.00  0.00    +0.159 HD
ATOM      9  H   UNL     1      -7.331  -3.621 -21.967  0.00  0.00    +0.159 HD
ENDROOT
BRANCH   1  10
ATOM     10  C   UNL     1      -7.427   0.244 -21.599  0.00  0.00    +0.151 C 
BRANCH  10  11
ATOM     11  C   UNL     1      -8.070   0.628 -20.295  0.00  0.00    -0.028 A 
ATOM     12  C   UNL     1      -7.469   0.281 -19.075  0.00  0.00    +0.005 A 
ATOM     13  C   UNL     1      -9.276   1.344 -20.271  0.00  0.00    +0.005 A 
ATOM     14  C   UNL     1      -8.051   0.663 -17.864  0.00  0.00    +0.000 A 
ATOM     15  C   UNL     1      -9.854   1.723 -19.060  0.00  0.00    +0.000 A 
ATOM     16  C   UNL     1      -9.240   1.385 -17.856  0.00  0.00    +0.000 A 
ENDBRANCH  10  11
ENDBRANCH   1  10
TORSDOF 2
ENDMDL
MODEL 7
REMARK VINA RESULT:    -4.841     12.180     13.383
REMARK INTER + INTRA:          -5.550
REMARK INTER:                  -5.386
REMARK INTRA:                  -0.164
REMARK UNBOUND:                -0.143
REMARK  Name = 1550473
REMARK  2 active torsions:
REMARK  status: ('A' for Active; 'I' for Inactive)
REMARK    1  A    between atoms: N_1  and  C_4
REMARK    2  A    between atoms: C_4  and  C_5
REMARK                            x       y       z     vdW  Elec       q    Type
REMARK                         _______ _______ _______ _____ _____    ______ ____
ROOT
ATOM      1  N   UNL     1     -10.930 -12.397 -10.022  0.00  0.00    -0.354 N 
ATOM      2  N   UNL     1     -11.016 -10.846  -8.303  0.00  0.00    -0.372 N 
ATOM      3  N   UNL     1     -12.069 -10.366 -10.285  0.00  0.00    -0.372 N 
ATOM      4  C   UNL     1     -11.339 -11.212  -9.550  0.00  0.00    +0.166 C 
ATOM      5  H   UNL     1     -10.353 -12.979  -9.425  0.00  0.00    +0.163 HD
ATOM      6  H   UNL     1     -11.314  -9.960  -7.919  0.00  0.00    +0.159 HD
ATOM      7  H   UNL     1     -10.479 -11.450  -7.693  0.00  0.00    +0.159 HD
ATOM      8  H   UNL     1     -12.341 -10.580 -11.235  0.00  0.00    +0.159 HD
ATOM      9  H   UNL     1     -12.366  -9.469  -9.922  0.00  0.00    +0.159 HD
ENDROOT
BRANCH   1  10
ATOM     10  C   UNL     1     -11.272 -12.913 -11.346  0.00  0.00    +0.151 C 
BRANCH  10  11
ATOM     11  C   UNL     1     -10.055 -12.853 -12.226  0.00  0.00    -0.028 A 
ATOM     12  C   UNL     1      -8.857 -13.463 -11.828  0.00  0.00    +0.005 A 
ATOM     13  C   UNL     1     -10.094 -12.191 -13.464  0.00  0.00    +0.005 A 
ATOM     14  C   UNL     1      -7.734 -13.434 -12.659  0.00  0.00    +0.000 A 
ATOM     15  C   UNL     1      -8.971 -12.163 -14.290  0.00  0.00    +0.000 A 
ATOM     16  C   UNL     1      -7.792 -12.787 -13.888  0.00  0.00    +0.000 A 
ENDBRANCH  10  11
ENDBRANCH   1  10
TORSDOF 2
ENDMDL
MODEL 8
REMARK VINA RESULT:    -4.817      2.804      3.588
REMARK INTER + INTRA:          -5.523
REMARK INTER:                  -5.387
REMARK INTRA:                  -0.136
REMARK UNBOUND:                -0.143
REMARK  Name = 1550473
REMARK  2 active torsions:
REMARK  status: ('A' for Active; 'I' for Inactive)
REMARK    1  A    between atoms: N_1  and  C_4
REMARK    2  A    between atoms: C_4  and  C_5
REMARK                            x       y       z     vdW  Elec       q    Type
REMARK                         _______ _______ _______ _____ _____    ______ ____
ROOT
ATOM      1  N   UNL     1      -9.033   0.162 -20.186  0.00  0.00    -0.354 N 
ATOM      2  N   UNL     1     -10.166   1.515 -18.686  0.00  0.00    -0.372 N 
ATOM      3  N   UNL     1      -7.877   1.645 -18.788  0.00  0.00    -0.372 N 
ATOM      4  C   UNL     1      -9.015   1.099 -19.229  0.00  0.00    +0.166 C 
ATOM      5  H   UNL     1      -9.927  -0.234 -20.456  0.00  0.00    +0.163 HD
ATOM      6  H   UNL     1     -10.184   2.223 -17.964  0.00  0.00    +0.159 HD
ATOM      7  H   UNL     1     -11.061   1.150 -18.989  0.00  0.00    +0.159 HD
ATOM      8  H   UNL     1      -6.975   1.371 -19.153  0.00  0.00    +0.159 HD
ATOM      9  H   UNL     1      -7.874   2.347 -18.058  0.00  0.00    +0.159 HD
ENDROOT
BRANCH   1  10
ATOM     10  C   UNL     1      -7.841  -0.321 -20.881  0.00  0.00    +0.151 C 
BRANCH  10  11
ATOM     11  C   UNL     1      -7.887  -1.822 -20.950  0.00  0.00    -0.028 A 
ATOM     12  C   UNL     1      -8.005  -2.586 -19.779  0.00  0.00    +0.005 A 
ATOM     13  C   UNL     1      -7.819  -2.487 -22.184  0.00  0.00    +0.005 A 
ATOM     14  C   UNL     1      -8.078  -3.979 -19.845  0.00  0.00    +0.000 A 
ATOM     15  C   UNL     1      -7.891  -3.879 -22.245  0.00  0.00    +0.000 A 
ATOM     16  C   UNL     1      -8.024  -4.624 -21.076  0.00  0.00    +0.000 A 
ENDBRANCH  10  11
ENDBRANCH   1  10
TORSDOF 2
ENDMDL
MODEL 9
REMARK VINA RESULT:    -4.784     21.802     22.871
REMARK INTER + INTRA:          -5.486
REMARK INTER:                  -5.313
REMARK INTRA:                  -0.173
REMARK UNBOUND:                -0.143
REMARK  Name = 1550473
REMARK  2 active torsions:
REMARK  status: ('A' for Active; 'I' for Inactive)
REMARK    1  A    between atoms: N_1  and  C_4
REMARK    2  A    between atoms: C_4  and  C_5
REMARK                            x       y       z     vdW  Elec       q    Type
REMARK                         _______ _______ _______ _____ _____    ______ ____
ROOT
ATOM      1  N   UNL     1     -11.865  -0.507   5.128  0.00  0.00    -0.354 N 
ATOM      2  N   UNL     1     -13.456  -1.298   3.643  0.00  0.00    -0.372 N 
ATOM      3  N   UNL     1     -12.290   0.605   3.110  0.00  0.00    -0.372 N 
ATOM      4  C   UNL     1     -12.526  -0.392   3.969  0.00  0.00    +0.166 C 
ATOM      5  H   UNL     1     -12.111  -1.269   5.749  0.00  0.00    +0.163 HD
ATOM      6  H   UNL     1     -13.969  -1.239   2.773  0.00  0.00    +0.159 HD
ATOM      7  H   UNL     1     -13.668  -2.084   4.245  0.00  0.00    +0.159 HD
ATOM      8  H   UNL     1     -11.605   1.324   3.300  0.00  0.00    +0.159 HD
ATOM      9  H   UNL     1     -12.801   0.688   2.240  0.00  0.00    +0.159 HD
ENDROOT
BRANCH   1  10
ATOM     10  C   UNL     1     -10.796   0.395   5.553  0.00  0.00    +0.151 C 
BRANCH  10  11
ATOM     11  C   UNL     1      -9.481  -0.333   5.481  0.00  0.00    -0.028 A 
ATOM     12  C   UNL     1      -9.013  -1.067   6.580  0.00  0.00    +0.005 A 
ATOM     13  C   UNL     1      -8.703  -0.296   4.314  0.00  0.00    +0.005 A 
ATOM     14  C   UNL     1      -7.807  -1.767   6.503  0.00  0.00    +0.000 A 
ATOM     15  C   UNL     1      -7.498  -0.996   4.242  0.00  0.00    +0.000 A 
ATOM     16  C   UNL     1      -7.052  -1.733   5.336  0.00  0.00    +0.000 A 
ENDBRANCH  10  11
ENDBRANCH   1  10
TORSDOF 2
ENDMDL
