MODEL 1
REMARK VINA RESULT:    -5.518      0.000      0.000
REMARK INTER + INTRA:          -6.272
REMARK INTER:                  -6.163
REMARK INTRA:                  -0.109
REMARK UNBOUND:                -0.109
REMARK  Name = 1550473
REMARK  2 active torsions:
REMARK  status: ('A' for Active; 'I' for Inactive)
REMARK    1  A    between atoms: N_1  and  C_4
REMARK    2  A    between atoms: C_4  and  C_5
REMARK                            x       y       z     vdW  Elec       q    Type
REMARK                         _______ _______ _______ _____ _____    ______ ____
ROOT
ATOM      1  N   UNL     1      -1.817  12.632   4.088  0.00  0.00    -0.354 N 
ATOM      2  N   UNL     1      -3.220  11.197   2.930  0.00  0.00    -0.372 N 
ATOM      3  N   UNL     1      -3.392  11.312   5.215  0.00  0.00    -0.372 N 
ATOM      4  C   UNL     1      -2.801  11.722   4.088  0.00  0.00    +0.166 C 
ATOM      5  H   UNL     1      -1.390  12.878   3.203  0.00  0.00    +0.163 HD
ATOM      6  H   UNL     1      -3.963  10.512   2.898  0.00  0.00    +0.159 HD
ATOM      7  H   UNL     1      -2.822  11.480   2.043  0.00  0.00    +0.159 HD
ATOM      8  H   UNL     1      -3.118  11.665   6.123  0.00  0.00    +0.159 HD
ATOM      9  H   UNL     1      -4.129  10.618   5.205  0.00  0.00    +0.159 HD
ENDROOT
BRANCH   1  10
ATOM     10  C   UNL     1      -1.325  13.304   5.289  0.00  0.00    +0.151 C 
BRANCH  10  11
ATOM     11  C   UNL     1       0.060  12.806   5.598  0.00  0.00    -0.028 A 
ATOM     12  C   UNL     1       0.768  13.308   6.700  0.00  0.00    +0.005 A 
ATOM     13  C   UNL     1       0.668  11.828   4.796  0.00  0.00    +0.005 A 
ATOM     14  C   UNL     1       2.042  12.824   7.005  0.00  0.00    +0.000 A 
ATOM     15  C   UNL     1       1.941  11.348   5.103  0.00  0.00    +0.000 A 
ATOM     16  C   UNL     1       2.627  11.845   6.209  0.00  0.00    +0.000 A 
ENDBRANCH  10  11
ENDBRANCH   1  10
TORSDOF 2
ENDMDL
MODEL 2
REMARK VINA RESULT:    -5.387     16.566     17.965
REMARK INTER + INTRA:          -6.126
REMARK INTER:                  -5.974
REMARK INTRA:                  -0.152
REMARK UNBOUND:                -0.109
REMARK  Name = 1550473
REMARK  2 active torsions:
REMARK  status: ('A' for Active; 'I' for Inactive)
REMARK    1  A    between atoms: N_1  and  C_4
REMARK    2  A    between atoms: C_4  and  C_5
REMARK                            x       y       z     vdW  Elec       q    Type
REMARK                         _______ _______ _______ _____ _____    ______ ____
ROOT
ATOM      1  N   UNL     1       1.313  -2.609  -5.982  0.00  0.00    -0.354 N 
ATOM      2  N   UNL     1       1.336  -4.921  -5.840  0.00  0.00    -0.372 N 
ATOM      3  N   UNL     1      -0.199  -3.909  -7.214  0.00  0.00    -0.372 N 
ATOM      4  C   UNL     1       0.814  -3.797  -6.348  0.00  0.00    +0.166 C 
ATOM      5  H   UNL     1       2.061  -2.591  -5.298  0.00  0.00    +0.163 HD
ATOM      6  H   UNL     1       0.982  -5.832  -6.100  0.00  0.00    +0.159 HD
ATOM      7  H   UNL     1       2.114  -4.902  -5.192  0.00  0.00    +0.159 HD
ATOM      8  H   UNL     1      -0.640  -3.099  -7.628  0.00  0.00    +0.159 HD
ATOM      9  H   UNL     1      -0.574  -4.811  -7.477  0.00  0.00    +0.159 HD
ENDROOT
BRANCH   1  10
ATOM     10  C   UNL     1       0.853  -1.329  -6.517  0.00  0.00    +0.151 C 
BRANCH  10  11
ATOM     11  C   UNL     1      -0.253  -0.801  -5.644  0.00  0.00    -0.028 A 
ATOM     12  C   UNL     1      -1.550  -0.644  -6.155  0.00  0.00    +0.005 A 
ATOM     13  C   UNL     1      -0.011  -0.462  -4.304  0.00  0.00    +0.005 A 
ATOM     14  C   UNL     1      -2.583  -0.182  -5.337  0.00  0.00    +0.000 A 
ATOM     15  C   UNL     1      -1.046  -0.000  -3.491  0.00  0.00    +0.000 A 
ATOM     16  C   UNL     1      -2.332   0.137  -4.007  0.00  0.00    +0.000 A 
ENDBRANCH  10  11
ENDBRANCH   1  10
TORSDOF 2
ENDMDL
MODEL 3
REMARK VINA RESULT:    -5.329     24.799     26.286
REMARK INTER + INTRA:          -6.062
REMARK INTER:                  -5.921
REMARK INTRA:                  -0.140
REMARK UNBOUND:                -0.109
REMARK  Name = 1550473
REMARK  2 active torsions:
REMARK  status: ('A' for Active; 'I' for Inactive)
REMARK    1  A    between atoms: N_1  and  C_4
REMARK    2  A    between atoms: C_4  and  C_5
REMARK                            x       y       z     vdW  Elec       q    Type
REMARK                         _______ _______ _______ _____ _____    ______ ____
ROOT
ATOM      1  N   UNL     1      19.070  -5.719  12.123  0.00  0.00    -0.354 N 
ATOM      2  N   UNL     1      20.487  -7.513  12.494  0.00  0.00    -0.372 N 
ATOM      3  N   UNL     1      20.736  -6.282  10.573  0.00  0.00    -0.372 N 
ATOM      4  C   UNL     1      20.089  -6.492  11.725  0.00  0.00    +0.166 C 
ATOM      5  H   UNL     1      18.602  -5.949  12.992  0.00  0.00    +0.163 HD
ATOM      6  H   UNL     1      21.255  -8.111  12.221  0.00  0.00    +0.159 HD
ATOM      7  H   UNL     1      20.047  -7.712  13.384  0.00  0.00    +0.159 HD
ATOM      8  H   UNL     1      20.481  -5.532   9.945  0.00  0.00    +0.159 HD
ATOM      9  H   UNL     1      21.500  -6.877  10.278  0.00  0.00    +0.159 HD
ENDROOT
BRANCH   1  10
ATOM     10  C   UNL     1      18.595  -4.550  11.385  0.00  0.00    +0.151 C 
BRANCH  10  11
ATOM     11  C   UNL     1      17.096  -4.616  11.273  0.00  0.00    -0.028 A 
ATOM     12  C   UNL     1      16.410  -3.764  10.395  0.00  0.00    +0.005 A 
ATOM     13  C   UNL     1      16.358  -5.532  12.038  0.00  0.00    +0.005 A 
ATOM     14  C   UNL     1      15.021  -3.846  10.269  0.00  0.00    +0.000 A 
ATOM     15  C   UNL     1      14.971  -5.609  11.910  0.00  0.00    +0.000 A 
ATOM     16  C   UNL     1      14.304  -4.768  11.024  0.00  0.00    +0.000 A 
ENDBRANCH  10  11
ENDBRANCH   1  10
TORSDOF 2
ENDMDL
MODEL 4
REMARK VINA RESULT:    -5.269     26.121     27.113
REMARK INTER + INTRA:          -5.994
REMARK INTER:                  -5.861
REMARK INTRA:                  -0.133
REMARK UNBOUND:                -0.109
REMARK  Name = 1550473
REMARK  2 active torsions:
REMARK  status: ('A' for Active; 'I' for Inactive)
REMARK    1  A    between atoms: N_1  and  C_4
REMARK    2  A    between atoms: C_4  and  C_5
REMARK                            x       y       z     vdW  Elec       q    Type
REMARK                         _______ _______ _______ _____ _____    ______ ____
ROOT
ATOM      1  N   UNL     1     -20.593  -6.274  -0.274  0.00  0.00    -0.354 N 
ATOM      2  N   UNL     1     -18.628  -6.590  -1.457  0.00  0.00    -0.372 N 
ATOM      3  N   UNL     1     -20.110  -4.992  -2.176  0.00  0.00    -0.372 N 
ATOM      4  C   UNL     1     -19.791  -5.948  -1.297  0.00  0.00    +0.166 C 
ATOM      5  H   UNL     1     -20.309  -7.028   0.340  0.00  0.00    +0.163 HD
ATOM      6  H   UNL     1     -18.000  -6.363  -2.217  0.00  0.00    +0.159 HD
ATOM      7  H   UNL     1     -18.324  -7.312  -0.815  0.00  0.00    +0.159 HD
ATOM      8  H   UNL     1     -20.976  -4.474  -2.113  0.00  0.00    +0.159 HD
ATOM      9  H   UNL     1     -19.500  -4.759  -2.950  0.00  0.00    +0.159 HD
ENDROOT
BRANCH   1  10
ATOM     10  C   UNL     1     -21.856  -5.599   0.021  0.00  0.00    +0.151 C 
BRANCH  10  11
ATOM     11  C   UNL     1     -21.627  -4.576   1.099  0.00  0.00    -0.028 A 
ATOM     12  C   UNL     1     -22.479  -3.470   1.224  0.00  0.00    +0.005 A 
ATOM     13  C   UNL     1     -20.561  -4.711   2.002  0.00  0.00    +0.005 A 
ATOM     14  C   UNL     1     -22.284  -2.535   2.243  0.00  0.00    +0.000 A 
ATOM     15  C   UNL     1     -20.369  -3.775   3.019  0.00  0.00    +0.000 A 
ATOM     16  C   UNL     1     -21.232  -2.689   3.140  0.00  0.00    +0.000 A 
ENDBRANCH  10  11
ENDBRANCH   1  10
TORSDOF 2
ENDMDL
MODEL 5
REMARK VINA RESULT:    -5.162     16.857     18.457
REMARK INTER + INTRA:          -5.874
REMARK INTER:                  -5.722
REMARK INTRA:                  -0.152
REMARK UNBOUND:                -0.109
REMARK  Name = 1550473
REMARK  2 active torsions:
REMARK  status: ('A' for Active; 'I' for Inactive)
REMARK    1  A    between atoms: N_1  and  C_4
REMARK    2  A    between atoms: C_4  and  C_5
REMARK                            x       y       z     vdW  Elec       q    Type
REMARK                         _______ _______ _______ _____ _____    ______ ____
ROOT
ATOM      1  N   UNL     1      -6.109   4.171 -12.372  0.00  0.00    -0.354 N 
ATOM      2  N   UNL     1      -6.817   2.057 -13.000  0.00  0.00    -0.372 N 
ATOM      3  N   UNL     1      -7.932   3.144 -11.315  0.00  0.00    -0.372 N 
ATOM      4  C   UNL     1      -6.950   3.138 -12.223  0.00  0.00    +0.166 C 
ATOM      5  H   UNL     1      -5.367   4.093 -13.057  0.00  0.00    +0.163 HD
ATOM      6  H   UNL     1      -7.438   1.264 -12.914  0.00  0.00    +0.159 HD
ATOM      7  H   UNL     1      -6.103   2.000 -13.716  0.00  0.00    +0.159 HD
ATOM      8  H   UNL     1      -8.082   3.927 -10.693  0.00  0.00    +0.159 HD
ATOM      9  H   UNL     1      -8.556   2.355 -11.205  0.00  0.00    +0.159 HD
ENDROOT
BRANCH   1  10
ATOM     10  C   UNL     1      -6.202   5.417 -11.612  0.00  0.00    +0.151 C 
BRANCH  10  11
ATOM     11  C   UNL     1      -5.003   5.533 -10.711  0.00  0.00    -0.028 A 
ATOM     12  C   UNL     1      -3.734   5.139 -11.160  0.00  0.00    +0.005 A 
ATOM     13  C   UNL     1      -5.129   6.041  -9.409  0.00  0.00    +0.005 A 
ATOM     14  C   UNL     1      -2.616   5.275 -10.335  0.00  0.00    +0.000 A 
ATOM     15  C   UNL     1      -4.010   6.175  -8.588  0.00  0.00    +0.000 A 
ATOM     16  C   UNL     1      -2.753   5.794  -9.052  0.00  0.00    +0.000 A 
ENDBRANCH  10  11
ENDBRANCH   1  10
TORSDOF 2
ENDMDL
MODEL 6
REMARK VINA RESULT:    -5.160     16.702     18.077
REMARK INTER + INTRA:          -5.872
REMARK INTER:                  -5.737
REMARK INTRA:                  -0.135
REMARK UNBOUND:                -0.109
REMARK  Name = 1550473
REMARK  2 active torsions:
REMARK  status: ('A' for Active; 'I' for Inactive)
REMARK    1  A    between atoms: N_1  and  C_4
REMARK    2  A    between atoms: C_4  and  C_5
REMARK                            x       y       z     vdW  Elec       q    Type
REMARK                         _______ _______ _______ _____ _____    ______ ____
ROOT
ATOM      1  N   UNL     1       1.800  -2.540  -6.146  0.00  0.00    -0.354 N 
ATOM      2  N   UNL     1       3.114  -4.424  -6.449  0.00  0.00    -0.372 N 
ATOM      3  N   UNL     1       3.934  -2.690  -5.189  0.00  0.00    -0.372 N 
ATOM      4  C   UNL     1       2.943  -3.204  -5.925  0.00  0.00    +0.166 C 
ATOM      5  H   UNL     1       1.100  -2.972  -6.737  0.00  0.00    +0.163 HD
ATOM      6  H   UNL     1       3.964  -4.950  -6.296  0.00  0.00    +0.159 HD
ATOM      7  H   UNL     1       2.393  -4.872  -7.002  0.00  0.00    +0.159 HD
ATOM      8  H   UNL     1       3.870  -1.772  -4.771  0.00  0.00    +0.159 HD
ATOM      9  H   UNL     1       4.797  -3.196  -5.035  0.00  0.00    +0.159 HD
ENDROOT
BRANCH   1  10
ATOM     10  C   UNL     1       1.493  -1.230  -5.577  0.00  0.00    +0.151 C 
BRANCH  10  11
ATOM     11  C   UNL     1       0.086  -1.243  -5.045  0.00  0.00    -0.028 A 
ATOM     12  C   UNL     1      -0.329  -0.289  -4.104  0.00  0.00    +0.005 A 
ATOM     13  C   UNL     1      -0.839  -2.203  -5.484  0.00  0.00    +0.005 A 
ATOM     14  C   UNL     1      -1.644  -0.283  -3.633  0.00  0.00    +0.000 A 
ATOM     15  C   UNL     1      -2.151  -2.194  -5.010  0.00  0.00    +0.000 A 
ATOM     16  C   UNL     1      -2.554  -1.232  -4.087  0.00  0.00    +0.000 A 
ENDBRANCH  10  11
ENDBRANCH   1  10
TORSDOF 2
ENDMDL
MODEL 7
REMARK VINA RESULT:    -5.145     21.580     23.003
REMARK INTER + INTRA:          -5.855
REMARK INTER:                  -5.712
REMARK INTRA:                  -0.143
REMARK UNBOUND:                -0.109
REMARK  Name = 1550473
REMARK  2 active torsions:
REMARK  status: ('A' for Active; 'I' for Inactive)
REMARK    1  A    between atoms: N_1  and  C_4
REMARK    2  A    between atoms: C_4  and  C_5
REMARK                            x       y       z     vdW  Elec       q    Type
REMARK                         _______ _______ _______ _____ _____    ______ ____
ROOT
ATOM      1  N   UNL     1      15.461  -2.643   9.329  0.00  0.00    -0.354 N 
ATOM      2  N   UNL     1      15.345  -2.833   7.024  0.00  0.00    -0.372 N 
ATOM      3  N   UNL     1      13.493  -2.112   8.172  0.00  0.00    -0.372 N 
ATOM      4  C   UNL     1      14.764  -2.527   8.191  0.00  0.00    +0.166 C 
ATOM      5  H   UNL     1      16.411  -2.992   9.278  0.00  0.00    +0.163 HD
ATOM      6  H   UNL     1      14.845  -2.752   6.148  0.00  0.00    +0.159 HD
ATOM      7  H   UNL     1      16.309  -3.138   6.972  0.00  0.00    +0.159 HD
ATOM      8  H   UNL     1      12.996  -1.872   9.019  0.00  0.00    +0.159 HD
ATOM      9  H   UNL     1      12.973  -2.036   7.307  0.00  0.00    +0.159 HD
ENDROOT
BRANCH   1  10
ATOM     10  C   UNL     1      14.939  -2.285  10.647  0.00  0.00    +0.151 C 
BRANCH  10  11
ATOM     11  C   UNL     1      15.130  -3.446  11.583  0.00  0.00    -0.028 A 
ATOM     12  C   UNL     1      14.838  -4.753  11.164  0.00  0.00    +0.005 A 
ATOM     13  C   UNL     1      15.607  -3.248  12.887  0.00  0.00    +0.005 A 
ATOM     14  C   UNL     1      15.043  -5.835  12.023  0.00  0.00    +0.000 A 
ATOM     15  C   UNL     1      15.809  -4.331  13.742  0.00  0.00    +0.000 A 
ATOM     16  C   UNL     1      15.530  -5.625  13.309  0.00  0.00    +0.000 A 
ENDBRANCH  10  11
ENDBRANCH   1  10
TORSDOF 2
ENDMDL
MODEL 8
REMARK VINA RESULT:    -5.139     18.463     19.475
REMARK INTER + INTRA:          -5.849
REMARK INTER:                  -5.732
REMARK INTRA:                  -0.117
REMARK UNBOUND:                -0.109
REMARK  Name = 1550473
REMARK  2 active torsions:
REMARK  status: ('A' for Active; 'I' for Inactive)
REMARK    1  A    between atoms: N_1  and  C_4
REMARK    2  A    between atoms: C_4  and  C_5
REMARK                            x       y       z     vdW  Elec       q    Type
REMARK                         _______ _______ _______ _____ _____    ______ ____
ROOT
ATOM      1  N   UNL     1       4.339  -3.402  12.226  0.00  0.00    -0.354 N 
ATOM      2  N   UNL     1       3.833  -2.523  10.144  0.00  0.00    -0.372 N 
ATOM      3  N   UNL     1       4.111  -1.090  11.914  0.00  0.00    -0.372 N 
ATOM      4  C   UNL     1       4.097  -2.342  11.443  0.00  0.00    +0.166 C 
ATOM      5  H   UNL     1       4.284  -4.327  11.814  0.00  0.00    +0.163 HD
ATOM      6  H   UNL     1       3.650  -1.742   9.528  0.00  0.00    +0.159 HD
ATOM      7  H   UNL     1       3.824  -3.446   9.725  0.00  0.00    +0.159 HD
ATOM      8  H   UNL     1       4.298  -0.886  12.887  0.00  0.00    +0.159 HD
ATOM      9  H   UNL     1       3.918  -0.297  11.316  0.00  0.00    +0.159 HD
ENDROOT
BRANCH   1  10
ATOM     10  C   UNL     1       4.690  -3.309  13.642  0.00  0.00    +0.151 C 
BRANCH  10  11
ATOM     11  C   UNL     1       5.099  -4.670  14.136  0.00  0.00    -0.028 A 
ATOM     12  C   UNL     1       5.766  -5.565  13.287  0.00  0.00    +0.005 A 
ATOM     13  C   UNL     1       4.827  -5.067  15.454  0.00  0.00    +0.005 A 
ATOM     14  C   UNL     1       6.173  -6.817  13.755  0.00  0.00    +0.000 A 
ATOM     15  C   UNL     1       5.234  -6.318  15.917  0.00  0.00    +0.000 A 
ATOM     16  C   UNL     1       5.909  -7.192  15.068  0.00  0.00    +0.000 A 
ENDBRANCH  10  11
ENDBRANCH   1  10
TORSDOF 2
ENDMDL
MODEL 9
REMARK VINA RESULT:    -5.115      9.225     11.080
REMARK INTER + INTRA:          -5.822
REMARK INTER:                  -5.701
REMARK INTRA:                  -0.121
REMARK UNBOUND:                -0.109
REMARK  Name = 1550473
REMARK  2 active torsions:
REMARK  status: ('A' for Active; 'I' for Inactive)
REMARK    1  A    between atoms: N_1  and  C_4
REMARK    2  A    between atoms: C_4  and  C_5
REMARK                            x       y       z     vdW  Elec       q    Type
REMARK                         _______ _______ _______ _____ _____    ______ ____
ROOT
ATOM      1  N   UNL     1       9.984  16.041   7.873  0.00  0.00    -0.354 N 
ATOM      2  N   UNL     1      12.091  16.610   7.098  0.00  0.00    -0.372 N 
ATOM      3  N   UNL     1      11.842  16.019   9.301  0.00  0.00    -0.372 N 
ATOM      4  C   UNL     1      11.293  16.219   8.099  0.00  0.00    +0.166 C 
ATOM      5  H   UNL     1       9.624  16.238   6.947  0.00  0.00    +0.163 HD
ATOM      6  H   UNL     1      13.083  16.749   7.237  0.00  0.00    +0.159 HD
ATOM      7  H   UNL     1      11.737  16.762   6.162  0.00  0.00    +0.159 HD
ATOM      8  H   UNL     1      11.293  15.729  10.099  0.00  0.00    +0.159 HD
ATOM      9  H   UNL     1      12.831  16.164   9.463  0.00  0.00    +0.159 HD
ENDROOT
BRANCH   1  10
ATOM     10  C   UNL     1       9.038  15.565   8.881  0.00  0.00    +0.151 C 
BRANCH  10  11
ATOM     11  C   UNL     1       7.658  15.536   8.284  0.00  0.00    -0.028 A 
ATOM     12  C   UNL     1       7.484  15.565   6.893  0.00  0.00    +0.005 A 
ATOM     13  C   UNL     1       6.522  15.473   9.104  0.00  0.00    +0.005 A 
ATOM     14  C   UNL     1       6.203  15.508   6.337  0.00  0.00    +0.000 A 
ATOM     15  C   UNL     1       5.245  15.416   8.546  0.00  0.00    +0.000 A 
ATOM     16  C   UNL     1       5.086  15.431   7.162  0.00  0.00    +0.000 A 
ENDBRANCH  10  11
ENDBRANCH   1  10
TORSDOF 2
ENDMDL
