MODEL 1
REMARK VINA RESULT:    -5.720      0.000      0.000
REMARK INTER + INTRA:          -6.492
REMARK INTER:                  -6.389
REMARK INTRA:                  -0.103
REMARK UNBOUND:                -0.103
REMARK  Name = 1550473
REMARK  2 active torsions:
REMARK  status: ('A' for Active; 'I' for Inactive)
REMARK    1  A    between atoms: N_1  and  C_4
REMARK    2  A    between atoms: C_4  and  C_5
REMARK                            x       y       z     vdW  Elec       q    Type
REMARK                         _______ _______ _______ _____ _____    ______ ____
ROOT
ATOM      1  N   UNL     1      11.651  15.772  20.913  0.00  0.00    -0.354 N 
ATOM      2  N   UNL     1      10.738  13.645  20.849  0.00  0.00    -0.372 N 
ATOM      3  N   UNL     1       9.366  15.452  20.507  0.00  0.00    -0.372 N 
ATOM      4  C   UNL     1      10.589  14.972  20.757  0.00  0.00    +0.166 C 
ATOM      5  H   UNL     1      12.546  15.348  21.131  0.00  0.00    +0.163 HD
ATOM      6  H   UNL     1       9.955  13.016  20.732  0.00  0.00    +0.159 HD
ATOM      7  H   UNL     1      11.641  13.221  21.021  0.00  0.00    +0.159 HD
ATOM      8  H   UNL     1       9.185  16.445  20.431  0.00  0.00    +0.159 HD
ATOM      9  H   UNL     1       8.567  14.839  20.398  0.00  0.00    +0.159 HD
ENDROOT
BRANCH   1  10
ATOM     10  C   UNL     1      11.607  17.227  20.779  0.00  0.00    +0.151 C 
BRANCH  10  11
ATOM     11  C   UNL     1      11.909  17.853  22.112  0.00  0.00    -0.028 A 
ATOM     12  C   UNL     1      12.343  19.185  22.192  0.00  0.00    +0.005 A 
ATOM     13  C   UNL     1      11.758  17.122  23.301  0.00  0.00    +0.005 A 
ATOM     14  C   UNL     1      12.595  19.776  23.432  0.00  0.00    +0.000 A 
ATOM     15  C   UNL     1      12.012  17.716  24.537  0.00  0.00    +0.000 A 
ATOM     16  C   UNL     1      12.427  19.043  24.602  0.00  0.00    +0.000 A 
ENDBRANCH  10  11
ENDBRANCH   1  10
TORSDOF 2
ENDMDL
MODEL 2
REMARK VINA RESULT:    -4.930      2.995      4.567
REMARK INTER + INTRA:          -5.609
REMARK INTER:                  -5.516
REMARK INTRA:                  -0.093
REMARK UNBOUND:                -0.103
REMARK  Name = 1550473
REMARK  2 active torsions:
REMARK  status: ('A' for Active; 'I' for Inactive)
REMARK    1  A    between atoms: N_1  and  C_4
REMARK    2  A    between atoms: C_4  and  C_5
REMARK                            x       y       z     vdW  Elec       q    Type
REMARK                         _______ _______ _______ _____ _____    ______ ____
ROOT
ATOM      1  N   UNL     1      11.546  16.868  18.298  0.00  0.00    -0.354 N 
ATOM      2  N   UNL     1      11.218  17.995  16.301  0.00  0.00    -0.372 N 
ATOM      3  N   UNL     1      13.027  16.597  16.502  0.00  0.00    -0.372 N 
ATOM      4  C   UNL     1      11.935  17.144  17.046  0.00  0.00    +0.166 C 
ATOM      5  H   UNL     1      10.726  17.339  18.662  0.00  0.00    +0.163 HD
ATOM      6  H   UNL     1      11.486  18.220  15.352  0.00  0.00    +0.159 HD
ATOM      7  H   UNL     1      10.374  18.429  16.652  0.00  0.00    +0.159 HD
ATOM      8  H   UNL     1      13.614  15.952  17.014  0.00  0.00    +0.159 HD
ATOM      9  H   UNL     1      13.317  16.819  15.558  0.00  0.00    +0.159 HD
ENDROOT
BRANCH   1  10
ATOM     10  C   UNL     1      12.225  15.915  19.174  0.00  0.00    +0.151 C 
BRANCH  10  11
ATOM     11  C   UNL     1      11.318  15.571  20.323  0.00  0.00    -0.028 A 
ATOM     12  C   UNL     1      10.421  14.497  20.225  0.00  0.00    +0.005 A 
ATOM     13  C   UNL     1      11.354  16.311  21.514  0.00  0.00    +0.005 A 
ATOM     14  C   UNL     1       9.600  14.158  21.303  0.00  0.00    +0.000 A 
ATOM     15  C   UNL     1      10.532  15.970  22.588  0.00  0.00    +0.000 A 
ATOM     16  C   UNL     1       9.657  14.892  22.483  0.00  0.00    +0.000 A 
ENDBRANCH  10  11
ENDBRANCH   1  10
TORSDOF 2
ENDMDL
MODEL 3
REMARK VINA RESULT:    -4.916     74.814     75.910
REMARK INTER + INTRA:          -5.593
REMARK INTER:                  -5.487
REMARK INTRA:                  -0.106
REMARK UNBOUND:                -0.103
REMARK  Name = 1550473
REMARK  2 active torsions:
REMARK  status: ('A' for Active; 'I' for Inactive)
REMARK    1  A    between atoms: N_1  and  C_4
REMARK    2  A    between atoms: C_4  and  C_5
REMARK                            x       y       z     vdW  Elec       q    Type
REMARK                         _______ _______ _______ _____ _____    ______ ____
ROOT
ATOM      1  N   UNL     1      -0.593 -22.747 -41.735  0.00  0.00    -0.354 N 
ATOM      2  N   UNL     1      -2.451 -22.948 -40.367  0.00  0.00    -0.372 N 
ATOM      3  N   UNL     1      -0.759 -24.486 -40.172  0.00  0.00    -0.372 N 
ATOM      4  C   UNL     1      -1.254 -23.395 -40.766  0.00  0.00    +0.166 C 
ATOM      5  H   UNL     1      -1.036 -21.944 -42.166  0.00  0.00    +0.163 HD
ATOM      6  H   UNL     1      -2.972 -23.415 -39.637  0.00  0.00    +0.159 HD
ATOM      7  H   UNL     1      -2.871 -22.119 -40.768  0.00  0.00    +0.159 HD
ATOM      8  H   UNL     1       0.136 -24.877 -40.432  0.00  0.00    +0.159 HD
ATOM      9  H   UNL     1      -1.271 -24.973 -39.447  0.00  0.00    +0.159 HD
ENDROOT
BRANCH   1  10
ATOM     10  C   UNL     1       0.740 -23.120 -42.204  0.00  0.00    +0.151 C 
BRANCH  10  11
ATOM     11  C   UNL     1       1.521 -21.871 -42.509  0.00  0.00    -0.028 A 
ATOM     12  C   UNL     1       2.343 -21.289 -41.532  0.00  0.00    +0.005 A 
ATOM     13  C   UNL     1       1.447 -21.267 -43.773  0.00  0.00    +0.005 A 
ATOM     14  C   UNL     1       3.091 -20.146 -41.824  0.00  0.00    +0.000 A 
ATOM     15  C   UNL     1       2.195 -20.125 -44.060  0.00  0.00    +0.000 A 
ATOM     16  C   UNL     1       3.019 -19.567 -43.086  0.00  0.00    +0.000 A 
ENDBRANCH  10  11
ENDBRANCH   1  10
TORSDOF 2
ENDMDL
MODEL 4
REMARK VINA RESULT:    -4.410     34.206     35.242
REMARK INTER + INTRA:          -5.028
REMARK INTER:                  -4.853
REMARK INTRA:                  -0.175
REMARK UNBOUND:                -0.103
REMARK  Name = 1550473
REMARK  2 active torsions:
REMARK  status: ('A' for Active; 'I' for Inactive)
REMARK    1  A    between atoms: N_1  and  C_4
REMARK    2  A    between atoms: C_4  and  C_5
REMARK                            x       y       z     vdW  Elec       q    Type
REMARK                         _______ _______ _______ _____ _____    ______ ____
ROOT
ATOM      1  N   UNL     1      -8.330  -7.384   9.819  0.00  0.00    -0.354 N 
ATOM      2  N   UNL     1      -7.536  -7.464   7.645  0.00  0.00    -0.372 N 
ATOM      3  N   UNL     1      -8.351  -9.385   8.599  0.00  0.00    -0.372 N 
ATOM      4  C   UNL     1      -8.078  -8.080   8.702  0.00  0.00    +0.166 C 
ATOM      5  H   UNL     1      -8.072  -6.404   9.844  0.00  0.00    +0.163 HD
ATOM      6  H   UNL     1      -7.338  -7.962   6.787  0.00  0.00    +0.159 HD
ATOM      7  H   UNL     1      -7.322  -6.474   7.656  0.00  0.00    +0.159 HD
ATOM      8  H   UNL     1      -8.755  -9.910   9.364  0.00  0.00    +0.159 HD
ATOM      9  H   UNL     1      -8.149  -9.904   7.754  0.00  0.00    +0.159 HD
ENDROOT
BRANCH   1  10
ATOM     10  C   UNL     1      -8.967  -7.948  11.008  0.00  0.00    +0.151 C 
BRANCH  10  11
ATOM     11  C   UNL     1     -10.440  -7.650  10.963  0.00  0.00    -0.028 A 
ATOM     12  C   UNL     1     -10.922  -6.386  11.333  0.00  0.00    +0.005 A 
ATOM     13  C   UNL     1     -11.359  -8.626  10.547  0.00  0.00    +0.005 A 
ATOM     14  C   UNL     1     -12.288  -6.099  11.263  0.00  0.00    +0.000 A 
ATOM     15  C   UNL     1     -12.722  -8.335  10.479  0.00  0.00    +0.000 A 
ATOM     16  C   UNL     1     -13.185  -7.071  10.835  0.00  0.00    +0.000 A 
ENDBRANCH  10  11
ENDBRANCH   1  10
TORSDOF 2
ENDMDL
MODEL 5
REMARK VINA RESULT:    -4.228     14.701     16.554
REMARK INTER + INTRA:          -4.825
REMARK INTER:                  -4.686
REMARK INTRA:                  -0.139
REMARK UNBOUND:                -0.103
REMARK  Name = 1550473
REMARK  2 active torsions:
REMARK  status: ('A' for Active; 'I' for Inactive)
REMARK    1  A    between atoms: N_1  and  C_4
REMARK    2  A    between atoms: C_4  and  C_5
REMARK                            x       y       z     vdW  Elec       q    Type
REMARK                         _______ _______ _______ _____ _____    ______ ____
ROOT
ATOM      1  N   UNL     1      -2.642  10.956  24.387  0.00  0.00    -0.354 N 
ATOM      2  N   UNL     1      -1.226  10.744  26.208  0.00  0.00    -0.372 N 
ATOM      3  N   UNL     1      -1.167  12.680  24.977  0.00  0.00    -0.372 N 
ATOM      4  C   UNL     1      -1.687  11.464  25.178  0.00  0.00    +0.166 C 
ATOM      5  H   UNL     1      -2.972  10.017  24.575  0.00  0.00    +0.163 HD
ATOM      6  H   UNL     1      -0.508  11.102  26.824  0.00  0.00    +0.159 HD
ATOM      7  H   UNL     1      -1.591   9.824  26.421  0.00  0.00    +0.159 HD
ATOM      8  H   UNL     1      -1.467  13.271  24.213  0.00  0.00    +0.159 HD
ATOM      9  H   UNL     1      -0.440  13.051  25.575  0.00  0.00    +0.159 HD
ENDROOT
BRANCH   1  10
ATOM     10  C   UNL     1      -3.249  11.679  23.272  0.00  0.00    +0.151 C 
BRANCH  10  11
ATOM     11  C   UNL     1      -3.430  10.736  22.115  0.00  0.00    -0.028 A 
ATOM     12  C   UNL     1      -2.909   9.435  22.169  0.00  0.00    +0.005 A 
ATOM     13  C   UNL     1      -4.127  11.134  20.964  0.00  0.00    +0.005 A 
ATOM     14  C   UNL     1      -3.103   8.548  21.108  0.00  0.00    +0.000 A 
ATOM     15  C   UNL     1      -4.318  10.246  19.906  0.00  0.00    +0.000 A 
ATOM     16  C   UNL     1      -3.808   8.952  19.979  0.00  0.00    +0.000 A 
ENDBRANCH  10  11
ENDBRANCH   1  10
TORSDOF 2
ENDMDL
MODEL 6
REMARK VINA RESULT:    -4.200     32.147     33.588
REMARK INTER + INTRA:          -4.794
REMARK INTER:                  -4.637
REMARK INTRA:                  -0.158
REMARK UNBOUND:                -0.103
REMARK  Name = 1550473
REMARK  2 active torsions:
REMARK  status: ('A' for Active; 'I' for Inactive)
REMARK    1  A    between atoms: N_1  and  C_4
REMARK    2  A    between atoms: C_4  and  C_5
REMARK                            x       y       z     vdW  Elec       q    Type
REMARK                         _______ _______ _______ _____ _____    ______ ____
ROOT
ATOM      1  N   UNL     1      -8.514  -7.263   9.929  0.00  0.00    -0.354 N 
ATOM      2  N   UNL     1      -7.477  -7.491   7.871  0.00  0.00    -0.372 N 
ATOM      3  N   UNL     1      -8.630  -9.277   8.736  0.00  0.00    -0.372 N 
ATOM      4  C   UNL     1      -8.215  -8.012   8.859  0.00  0.00    +0.166 C 
ATOM      5  H   UNL     1      -8.144  -6.321   9.976  0.00  0.00    +0.163 HD
ATOM      6  H   UNL     1      -7.238  -8.031   7.049  0.00  0.00    +0.159 HD
ATOM      7  H   UNL     1      -7.147  -6.534   7.899  0.00  0.00    +0.159 HD
ATOM      8  H   UNL     1      -9.185  -9.730   9.449  0.00  0.00    +0.159 HD
ATOM      9  H   UNL     1      -8.392  -9.837   7.927  0.00  0.00    +0.159 HD
ENDROOT
BRANCH   1  10
ATOM     10  C   UNL     1      -9.356  -7.717  11.035  0.00  0.00    +0.151 C 
BRANCH  10  11
ATOM     11  C   UNL     1      -8.515  -7.832  12.276  0.00  0.00    -0.028 A 
ATOM     12  C   UNL     1      -8.038  -6.682  12.922  0.00  0.00    +0.005 A 
ATOM     13  C   UNL     1      -8.198  -9.088  12.816  0.00  0.00    +0.005 A 
ATOM     14  C   UNL     1      -7.282  -6.787  14.092  0.00  0.00    +0.000 A 
ATOM     15  C   UNL     1      -7.443  -9.189  13.984  0.00  0.00    +0.000 A 
ATOM     16  C   UNL     1      -6.987  -8.038  14.623  0.00  0.00    +0.000 A 
ENDBRANCH  10  11
ENDBRANCH   1  10
TORSDOF 2
ENDMDL
MODEL 7
REMARK VINA RESULT:    -4.098     42.687     44.269
REMARK INTER + INTRA:          -4.679
REMARK INTER:                  -4.545
REMARK INTRA:                  -0.134
REMARK UNBOUND:                -0.103
REMARK  Name = 1550473
REMARK  2 active torsions:
REMARK  status: ('A' for Active; 'I' for Inactive)
REMARK    1  A    between atoms: N_1  and  C_4
REMARK    2  A    between atoms: C_4  and  C_5
REMARK                            x       y       z     vdW  Elec       q    Type
REMARK                         _______ _______ _______ _____ _____    ______ ____
ROOT
ATOM      1  N   UNL     1      -9.595   4.282 -14.847  0.00  0.00    -0.354 N 
ATOM      2  N   UNL     1      -8.115   4.980 -16.486  0.00  0.00    -0.372 N 
ATOM      3  N   UNL     1      -9.826   3.566 -17.066  0.00  0.00    -0.372 N 
ATOM      4  C   UNL     1      -9.190   4.269 -16.124  0.00  0.00    +0.166 C 
ATOM      5  H   UNL     1      -9.052   4.811 -14.175  0.00  0.00    +0.163 HD
ATOM      6  H   UNL     1      -7.787   4.992 -17.442  0.00  0.00    +0.159 HD
ATOM      7  H   UNL     1      -7.601   5.545 -15.820  0.00  0.00    +0.159 HD
ATOM      8  H   UNL     1     -10.640   3.004 -16.857  0.00  0.00    +0.159 HD
ATOM      9  H   UNL     1      -9.506   3.557 -18.027  0.00  0.00    +0.159 HD
ENDROOT
BRANCH   1  10
ATOM     10  C   UNL     1     -10.785   3.586 -14.360  0.00  0.00    +0.151 C 
BRANCH  10  11
ATOM     11  C   UNL     1     -10.402   2.713 -13.197  0.00  0.00    -0.028 A 
ATOM     12  C   UNL     1      -9.478   3.164 -12.243  0.00  0.00    +0.005 A 
ATOM     13  C   UNL     1     -10.964   1.437 -13.040  0.00  0.00    +0.005 A 
ATOM     14  C   UNL     1      -9.144   2.365 -11.146  0.00  0.00    +0.000 A 
ATOM     15  C   UNL     1     -10.628   0.642 -11.945  0.00  0.00    +0.000 A 
ATOM     16  C   UNL     1      -9.720   1.108 -10.996  0.00  0.00    +0.000 A 
ENDBRANCH  10  11
ENDBRANCH   1  10
TORSDOF 2
ENDMDL
MODEL 8
REMARK VINA RESULT:    -4.046     11.143     11.433
REMARK INTER + INTRA:          -4.621
REMARK INTER:                  -4.498
REMARK INTRA:                  -0.124
REMARK UNBOUND:                -0.103
REMARK  Name = 1550473
REMARK  2 active torsions:
REMARK  status: ('A' for Active; 'I' for Inactive)
REMARK    1  A    between atoms: N_1  and  C_4
REMARK    2  A    between atoms: C_4  and  C_5
REMARK                            x       y       z     vdW  Elec       q    Type
REMARK                         _______ _______ _______ _____ _____    ______ ____
ROOT
ATOM      1  N   UNL     1      20.318  11.151  22.607  0.00  0.00    -0.354 N 
ATOM      2  N   UNL     1      18.814   9.597  23.436  0.00  0.00    -0.372 N 
ATOM      3  N   UNL     1      18.155  10.973  21.723  0.00  0.00    -0.372 N 
ATOM      4  C   UNL     1      19.104  10.585  22.581  0.00  0.00    +0.166 C 
ATOM      5  H   UNL     1      20.983  10.832  23.302  0.00  0.00    +0.163 HD
ATOM      6  H   UNL     1      17.908   9.149  23.438  0.00  0.00    +0.159 HD
ATOM      7  H   UNL     1      19.496   9.249  24.099  0.00  0.00    +0.159 HD
ATOM      8  H   UNL     1      18.309  11.718  21.056  0.00  0.00    +0.159 HD
ATOM      9  H   UNL     1      17.238  10.545  21.717  0.00  0.00    +0.159 HD
ENDROOT
BRANCH   1  10
ATOM     10  C   UNL     1      20.752  12.197  21.683  0.00  0.00    +0.151 C 
BRANCH  10  11
ATOM     11  C   UNL     1      22.089  12.722  22.129  0.00  0.00    -0.028 A 
ATOM     12  C   UNL     1      22.764  12.129  23.205  0.00  0.00    +0.005 A 
ATOM     13  C   UNL     1      22.689  13.809  21.474  0.00  0.00    +0.005 A 
ATOM     14  C   UNL     1      24.020  12.597  23.601  0.00  0.00    +0.000 A 
ATOM     15  C   UNL     1      23.942  14.274  21.873  0.00  0.00    +0.000 A 
ATOM     16  C   UNL     1      24.608  13.667  22.934  0.00  0.00    +0.000 A 
ENDBRANCH  10  11
ENDBRANCH   1  10
TORSDOF 2
ENDMDL
MODEL 9
REMARK VINA RESULT:    -3.869     74.540     75.635
REMARK INTER + INTRA:          -4.424
REMARK INTER:                  -4.320
REMARK INTRA:                  -0.104
REMARK UNBOUND:                -0.103
REMARK  Name = 1550473
REMARK  2 active torsions:
REMARK  status: ('A' for Active; 'I' for Inactive)
REMARK    1  A    between atoms: N_1  and  C_4
REMARK    2  A    between atoms: C_4  and  C_5
REMARK                            x       y       z     vdW  Elec       q    Type
REMARK                         _______ _______ _______ _____ _____    ______ ____
ROOT
ATOM      1  N   UNL     1       0.647 -22.378 -42.202  0.00  0.00    -0.354 N 
ATOM      2  N   UNL     1      -1.166 -23.167 -40.995  0.00  0.00    -0.372 N 
ATOM      3  N   UNL     1       0.412 -24.662 -41.732  0.00  0.00    -0.372 N 
ATOM      4  C   UNL     1      -0.022 -23.400 -41.652  0.00  0.00    +0.166 C 
ATOM      5  H   UNL     1       0.249 -21.448 -42.132  0.00  0.00    +0.163 HD
ATOM      6  H   UNL     1      -1.691 -23.917 -40.567  0.00  0.00    +0.159 HD
ATOM      7  H   UNL     1      -1.537 -22.231 -40.887  0.00  0.00    +0.159 HD
ATOM      8  H   UNL     1       1.264 -24.905 -42.219  0.00  0.00    +0.159 HD
ATOM      9  H   UNL     1      -0.106 -25.428 -41.320  0.00  0.00    +0.159 HD
ENDROOT
BRANCH   1  10
ATOM     10  C   UNL     1       1.928 -22.517 -42.892  0.00  0.00    +0.151 C 
BRANCH  10  11
ATOM     11  C   UNL     1       2.780 -21.314 -42.593  0.00  0.00    -0.028 A 
ATOM     12  C   UNL     1       2.445 -20.057 -43.118  0.00  0.00    +0.005 A 
ATOM     13  C   UNL     1       3.920 -21.423 -41.782  0.00  0.00    +0.005 A 
ATOM     14  C   UNL     1       3.219 -18.933 -42.817  0.00  0.00    +0.000 A 
ATOM     15  C   UNL     1       4.690 -20.299 -41.484  0.00  0.00    +0.000 A 
ATOM     16  C   UNL     1       4.338 -19.054 -42.000  0.00  0.00    +0.000 A 
ENDBRANCH  10  11
ENDBRANCH   1  10
TORSDOF 2
ENDMDL
