MODEL 1
REMARK VINA RESULT:    -5.600      0.000      0.000
REMARK INTER + INTRA:          -6.362
REMARK INTER:                  -6.254
REMARK INTRA:                  -0.108
REMARK UNBOUND:                -0.108
REMARK  Name = 1550473
REMARK  2 active torsions:
REMARK  status: ('A' for Active; 'I' for Inactive)
REMARK    1  A    between atoms: N_1  and  C_4
REMARK    2  A    between atoms: C_4  and  C_5
REMARK                            x       y       z     vdW  Elec       q    Type
REMARK                         _______ _______ _______ _____ _____    ______ ____
ROOT
ATOM      1  N   UNL     1      -1.161   0.940  19.091  0.00  0.00    -0.354 N 
ATOM      2  N   UNL     1      -3.391   0.369  19.343  0.00  0.00    -0.372 N 
ATOM      3  N   UNL     1      -2.625   0.959  17.262  0.00  0.00    -0.372 N 
ATOM      4  C   UNL     1      -2.378   0.760  18.561  0.00  0.00    +0.166 C 
ATOM      5  H   UNL     1      -1.045   0.802  20.088  0.00  0.00    +0.163 HD
ATOM      6  H   UNL     1      -4.320   0.222  18.970  0.00  0.00    +0.159 HD
ATOM      7  H   UNL     1      -3.262   0.187  20.331  0.00  0.00    +0.159 HD
ATOM      8  H   UNL     1      -1.905   1.260  16.619  0.00  0.00    +0.159 HD
ATOM      9  H   UNL     1      -3.551   0.828  16.872  0.00  0.00    +0.159 HD
ENDROOT
BRANCH   1  10
ATOM     10  C   UNL     1       0.022   1.312  18.316  0.00  0.00    +0.151 C 
BRANCH  10  11
ATOM     11  C   UNL     1       1.255   0.956  19.100  0.00  0.00    -0.028 A 
ATOM     12  C   UNL     1       2.173   1.949  19.472  0.00  0.00    +0.005 A 
ATOM     13  C   UNL     1       1.508  -0.371  19.477  0.00  0.00    +0.005 A 
ATOM     14  C   UNL     1       3.303   1.623  20.226  0.00  0.00    +0.000 A 
ATOM     15  C   UNL     1       2.638  -0.693  20.229  0.00  0.00    +0.000 A 
ATOM     16  C   UNL     1       3.534   0.305  20.605  0.00  0.00    +0.000 A 
ENDBRANCH  10  11
ENDBRANCH   1  10
TORSDOF 2
ENDMDL
MODEL 2
REMARK VINA RESULT:    -5.503     28.951     29.686
REMARK INTER + INTRA:          -6.255
REMARK INTER:                  -6.127
REMARK INTRA:                  -0.127
REMARK UNBOUND:                -0.108
REMARK  Name = 1550473
REMARK  2 active torsions:
REMARK  status: ('A' for Active; 'I' for Inactive)
REMARK    1  A    between atoms: N_1  and  C_4
REMARK    2  A    between atoms: C_4  and  C_5
REMARK                            x       y       z     vdW  Elec       q    Type
REMARK                         _______ _______ _______ _____ _____    ______ ____
ROOT
ATOM      1  N   UNL     1       5.704 -21.278   0.894  0.00  0.00    -0.354 N 
ATOM      2  N   UNL     1       4.637 -21.322   2.948  0.00  0.00    -0.372 N 
ATOM      3  N   UNL     1       3.462 -21.933   1.074  0.00  0.00    -0.372 N 
ATOM      4  C   UNL     1       4.606 -21.512   1.624  0.00  0.00    +0.166 C 
ATOM      5  H   UNL     1       6.531 -20.931   1.366  0.00  0.00    +0.163 HD
ATOM      6  H   UNL     1       3.824 -21.493   3.525  0.00  0.00    +0.159 HD
ATOM      7  H   UNL     1       5.478 -21.019   3.424  0.00  0.00    +0.159 HD
ATOM      8  H   UNL     1       3.371 -22.089   0.079  0.00  0.00    +0.159 HD
ATOM      9  H   UNL     1       2.634 -22.098   1.634  0.00  0.00    +0.159 HD
ENDROOT
BRANCH   1  10
ATOM     10  C   UNL     1       5.792 -21.505  -0.548  0.00  0.00    +0.151 C 
BRANCH  10  11
ATOM     11  C   UNL     1       6.817 -20.571  -1.131  0.00  0.00    -0.028 A 
ATOM     12  C   UNL     1       6.928 -20.414  -2.520  0.00  0.00    +0.005 A 
ATOM     13  C   UNL     1       7.676 -19.837  -0.299  0.00  0.00    +0.005 A 
ATOM     14  C   UNL     1       7.860 -19.525  -3.061  0.00  0.00    +0.000 A 
ATOM     15  C   UNL     1       8.605 -18.951  -0.843  0.00  0.00    +0.000 A 
ATOM     16  C   UNL     1       8.695 -18.793  -2.223  0.00  0.00    +0.000 A 
ENDBRANCH  10  11
ENDBRANCH   1  10
TORSDOF 2
ENDMDL
MODEL 3
REMARK VINA RESULT:    -5.127     11.593     12.263
REMARK INTER + INTRA:          -5.834
REMARK INTER:                  -5.675
REMARK INTRA:                  -0.159
REMARK UNBOUND:                -0.108
REMARK  Name = 1550473
REMARK  2 active torsions:
REMARK  status: ('A' for Active; 'I' for Inactive)
REMARK    1  A    between atoms: N_1  and  C_4
REMARK    2  A    between atoms: C_4  and  C_5
REMARK                            x       y       z     vdW  Elec       q    Type
REMARK                         _______ _______ _______ _____ _____    ______ ____
ROOT
ATOM      1  N   UNL     1       9.289   5.239  24.959  0.00  0.00    -0.354 N 
ATOM      2  N   UNL     1       7.228   6.127  25.534  0.00  0.00    -0.372 N 
ATOM      3  N   UNL     1       9.121   7.354  25.954  0.00  0.00    -0.372 N 
ATOM      4  C   UNL     1       8.561   6.236  25.480  0.00  0.00    +0.166 C 
ATOM      5  H   UNL     1       8.807   4.405  24.644  0.00  0.00    +0.163 HD
ATOM      6  H   UNL     1       6.653   6.864  25.918  0.00  0.00    +0.159 HD
ATOM      7  H   UNL     1       6.745   5.311  25.176  0.00  0.00    +0.159 HD
ATOM      8  H   UNL     1      10.122   7.496  25.948  0.00  0.00    +0.159 HD
ATOM      9  H   UNL     1       8.562   8.098  26.353  0.00  0.00    +0.159 HD
ENDROOT
BRANCH   1  10
ATOM     10  C   UNL     1      10.742   5.281  24.805  0.00  0.00    +0.151 C 
BRANCH  10  11
ATOM     11  C   UNL     1      11.076   5.471  23.351  0.00  0.00    -0.028 A 
ATOM     12  C   UNL     1      10.973   6.737  22.756  0.00  0.00    +0.005 A 
ATOM     13  C   UNL     1      11.501   4.389  22.564  0.00  0.00    +0.005 A 
ATOM     14  C   UNL     1      11.312   6.919  21.413  0.00  0.00    +0.000 A 
ATOM     15  C   UNL     1      11.838   4.575  21.223  0.00  0.00    +0.000 A 
ATOM     16  C   UNL     1      11.745   5.841  20.649  0.00  0.00    +0.000 A 
ENDBRANCH  10  11
ENDBRANCH   1  10
TORSDOF 2
ENDMDL
MODEL 4
REMARK VINA RESULT:    -5.094     26.448     27.111
REMARK INTER + INTRA:          -5.798
REMARK INTER:                  -5.673
REMARK INTRA:                  -0.125
REMARK UNBOUND:                -0.108
REMARK  Name = 1550473
REMARK  2 active torsions:
REMARK  status: ('A' for Active; 'I' for Inactive)
REMARK    1  A    between atoms: N_1  and  C_4
REMARK    2  A    between atoms: C_4  and  C_5
REMARK                            x       y       z     vdW  Elec       q    Type
REMARK                         _______ _______ _______ _____ _____    ______ ____
ROOT
ATOM      1  N   UNL     1      13.454 -17.312   4.047  0.00  0.00    -0.354 N 
ATOM      2  N   UNL     1      12.853 -17.920   1.894  0.00  0.00    -0.372 N 
ATOM      3  N   UNL     1      11.728 -18.849   3.665  0.00  0.00    -0.372 N 
ATOM      4  C   UNL     1      12.681 -18.025   3.217  0.00  0.00    +0.166 C 
ATOM      5  H   UNL     1      14.179 -16.728   3.646  0.00  0.00    +0.163 HD
ATOM      6  H   UNL     1      12.282 -18.442   1.244  0.00  0.00    +0.159 HD
ATOM      7  H   UNL     1      13.547 -17.300   1.495  0.00  0.00    +0.159 HD
ATOM      8  H   UNL     1      11.551 -18.978   4.652  0.00  0.00    +0.159 HD
ATOM      9  H   UNL     1      11.153 -19.390   3.030  0.00  0.00    +0.159 HD
ENDROOT
BRANCH   1  10
ATOM     10  C   UNL     1      13.312 -17.314   5.501  0.00  0.00    +0.151 C 
BRANCH  10  11
ATOM     11  C   UNL     1      14.678 -17.381   6.128  0.00  0.00    -0.028 A 
ATOM     12  C   UNL     1      14.891 -18.138   7.289  0.00  0.00    +0.005 A 
ATOM     13  C   UNL     1      15.763 -16.695   5.562  0.00  0.00    +0.005 A 
ATOM     14  C   UNL     1      16.166 -18.226   7.855  0.00  0.00    +0.000 A 
ATOM     15  C   UNL     1      17.034 -16.784   6.131  0.00  0.00    +0.000 A 
ATOM     16  C   UNL     1      17.235 -17.552   7.275  0.00  0.00    +0.000 A 
ENDBRANCH  10  11
ENDBRANCH   1  10
TORSDOF 2
ENDMDL
MODEL 5
REMARK VINA RESULT:    -5.067     32.254     34.530
REMARK INTER + INTRA:          -5.768
REMARK INTER:                  -5.585
REMARK INTRA:                  -0.183
REMARK UNBOUND:                -0.108
REMARK  Name = 1550473
REMARK  2 active torsions:
REMARK  status: ('A' for Active; 'I' for Inactive)
REMARK    1  A    between atoms: N_1  and  C_4
REMARK    2  A    between atoms: C_4  and  C_5
REMARK                            x       y       z     vdW  Elec       q    Type
REMARK                         _______ _______ _______ _____ _____    ______ ____
ROOT
ATOM      1  N   UNL     1     -13.273  -3.042  -9.885  0.00  0.00    -0.354 N 
ATOM      2  N   UNL     1     -11.808  -1.599  -8.820  0.00  0.00    -0.372 N 
ATOM      3  N   UNL     1     -11.118  -2.669 -10.729  0.00  0.00    -0.372 N 
ATOM      4  C   UNL     1     -12.074  -2.447  -9.820  0.00  0.00    +0.166 C 
ATOM      5  H   UNL     1     -13.943  -2.855  -9.149  0.00  0.00    +0.163 HD
ATOM      6  H   UNL     1     -10.913  -1.133  -8.746  0.00  0.00    +0.159 HD
ATOM      7  H   UNL     1     -12.496  -1.379  -8.110  0.00  0.00    +0.159 HD
ATOM      8  H   UNL     1     -11.254  -3.303 -11.505  0.00  0.00    +0.159 HD
ATOM      9  H   UNL     1     -10.213  -2.221 -10.666  0.00  0.00    +0.159 HD
ENDROOT
BRANCH   1  10
ATOM     10  C   UNL     1     -13.682  -3.940 -10.964  0.00  0.00    +0.151 C 
BRANCH  10  11
ATOM     11  C   UNL     1     -14.477  -3.162 -11.976  0.00  0.00    -0.028 A 
ATOM     12  C   UNL     1     -15.682  -2.545 -11.613  0.00  0.00    +0.005 A 
ATOM     13  C   UNL     1     -14.026  -3.034 -13.299  0.00  0.00    +0.005 A 
ATOM     14  C   UNL     1     -16.405  -1.797 -12.546  0.00  0.00    +0.000 A 
ATOM     15  C   UNL     1     -14.751  -2.287 -14.227  0.00  0.00    +0.000 A 
ATOM     16  C   UNL     1     -15.939  -1.667 -13.850  0.00  0.00    +0.000 A 
ENDBRANCH  10  11
ENDBRANCH   1  10
TORSDOF 2
ENDMDL
MODEL 6
REMARK VINA RESULT:    -4.940     19.634     20.728
REMARK INTER + INTRA:          -5.626
REMARK INTER:                  -5.489
REMARK INTRA:                  -0.137
REMARK UNBOUND:                -0.108
REMARK  Name = 1550473
REMARK  2 active torsions:
REMARK  status: ('A' for Active; 'I' for Inactive)
REMARK    1  A    between atoms: N_1  and  C_4
REMARK    2  A    between atoms: C_4  and  C_5
REMARK                            x       y       z     vdW  Elec       q    Type
REMARK                         _______ _______ _______ _____ _____    ______ ____
ROOT
ATOM      1  N   UNL     1       4.763   2.109  -2.430  0.00  0.00    -0.354 N 
ATOM      2  N   UNL     1       3.925   2.378  -4.572  0.00  0.00    -0.372 N 
ATOM      3  N   UNL     1       4.048   0.265  -3.686  0.00  0.00    -0.372 N 
ATOM      4  C   UNL     1       4.251   1.579  -3.549  0.00  0.00    +0.166 C 
ATOM      5  H   UNL     1       4.921   3.110  -2.399  0.00  0.00    +0.163 HD
ATOM      6  H   UNL     1       3.534   2.008  -5.428  0.00  0.00    +0.159 HD
ATOM      7  H   UNL     1       4.041   3.383  -4.522  0.00  0.00    +0.159 HD
ATOM      8  H   UNL     1       4.278  -0.392  -2.953  0.00  0.00    +0.159 HD
ATOM      9  H   UNL     1       3.668  -0.126  -4.539  0.00  0.00    +0.159 HD
ENDROOT
BRANCH   1  10
ATOM     10  C   UNL     1       5.101   1.333  -1.238  0.00  0.00    +0.151 C 
BRANCH  10  11
ATOM     11  C   UNL     1       4.418   1.943  -0.045  0.00  0.00    -0.028 A 
ATOM     12  C   UNL     1       3.100   2.413  -0.142  0.00  0.00    +0.005 A 
ATOM     13  C   UNL     1       5.082   2.048   1.187  0.00  0.00    +0.005 A 
ATOM     14  C   UNL     1       2.456   2.953   0.974  0.00  0.00    +0.000 A 
ATOM     15  C   UNL     1       4.435   2.588   2.299  0.00  0.00    +0.000 A 
ATOM     16  C   UNL     1       3.121   3.038   2.192  0.00  0.00    +0.000 A 
ENDBRANCH  10  11
ENDBRANCH   1  10
TORSDOF 2
ENDMDL
MODEL 7
REMARK VINA RESULT:    -4.913     25.810     26.779
REMARK INTER + INTRA:          -5.595
REMARK INTER:                  -5.459
REMARK INTRA:                  -0.136
REMARK UNBOUND:                -0.108
REMARK  Name = 1550473
REMARK  2 active torsions:
REMARK  status: ('A' for Active; 'I' for Inactive)
REMARK    1  A    between atoms: N_1  and  C_4
REMARK    2  A    between atoms: C_4  and  C_5
REMARK                            x       y       z     vdW  Elec       q    Type
REMARK                         _______ _______ _______ _____ _____    ______ ____
ROOT
ATOM      1  N   UNL     1      12.101 -18.907   3.752  0.00  0.00    -0.354 N 
ATOM      2  N   UNL     1      11.139 -18.187   1.771  0.00  0.00    -0.372 N 
ATOM      3  N   UNL     1      13.378 -17.820   2.114  0.00  0.00    -0.372 N 
ATOM      4  C   UNL     1      12.215 -18.308   2.558  0.00  0.00    +0.166 C 
ATOM      5  H   UNL     1      11.185 -19.229   4.043  0.00  0.00    +0.163 HD
ATOM      6  H   UNL     1      11.195 -17.744   0.864  0.00  0.00    +0.159 HD
ATOM      7  H   UNL     1      10.235 -18.551   2.046  0.00  0.00    +0.159 HD
ATOM      8  H   UNL     1      14.226 -17.874   2.663  0.00  0.00    +0.159 HD
ATOM      9  H   UNL     1      13.452 -17.362   1.214  0.00  0.00    +0.159 HD
ENDROOT
BRANCH   1  10
ATOM     10  C   UNL     1      13.222 -19.137   4.661  0.00  0.00    +0.151 C 
BRANCH  10  11
ATOM     11  C   UNL     1      12.776 -18.862   6.070  0.00  0.00    -0.028 A 
ATOM     12  C   UNL     1      13.415 -19.483   7.154  0.00  0.00    +0.005 A 
ATOM     13  C   UNL     1      11.719 -17.976   6.330  0.00  0.00    +0.005 A 
ATOM     14  C   UNL     1      13.020 -19.204   8.465  0.00  0.00    +0.000 A 
ATOM     15  C   UNL     1      11.327 -17.701   7.640  0.00  0.00    +0.000 A 
ATOM     16  C   UNL     1      11.980 -18.314   8.707  0.00  0.00    +0.000 A 
ENDBRANCH  10  11
ENDBRANCH   1  10
TORSDOF 2
ENDMDL
MODEL 8
REMARK VINA RESULT:    -4.852     21.355     22.261
REMARK INTER + INTRA:          -5.527
REMARK INTER:                  -5.350
REMARK INTRA:                  -0.177
REMARK UNBOUND:                -0.108
REMARK  Name = 1550473
REMARK  2 active torsions:
REMARK  status: ('A' for Active; 'I' for Inactive)
REMARK    1  A    between atoms: N_1  and  C_4
REMARK    2  A    between atoms: C_4  and  C_5
REMARK                            x       y       z     vdW  Elec       q    Type
REMARK                         _______ _______ _______ _____ _____    ______ ____
ROOT
ATOM      1  N   UNL     1     -14.726  11.251   9.299  0.00  0.00    -0.354 N 
ATOM      2  N   UNL     1     -13.345  13.057   9.743  0.00  0.00    -0.372 N 
ATOM      3  N   UNL     1     -15.409  13.441   8.817  0.00  0.00    -0.372 N 
ATOM      4  C   UNL     1     -14.504  12.573   9.282  0.00  0.00    +0.166 C 
ATOM      5  H   UNL     1     -13.988  10.644   9.637  0.00  0.00    +0.163 HD
ATOM      6  H   UNL     1     -13.151  14.049   9.746  0.00  0.00    +0.159 HD
ATOM      7  H   UNL     1     -12.627  12.451  10.123  0.00  0.00    +0.159 HD
ATOM      8  H   UNL     1     -16.301  13.139   8.449  0.00  0.00    +0.159 HD
ATOM      9  H   UNL     1     -15.228  14.437   8.801  0.00  0.00    +0.159 HD
ENDROOT
BRANCH   1  10
ATOM     10  C   UNL     1     -15.976  10.626   8.870  0.00  0.00    +0.151 C 
BRANCH  10  11
ATOM     11  C   UNL     1     -15.766   9.978   7.530  0.00  0.00    -0.028 A 
ATOM     12  C   UNL     1     -15.972  10.704   6.348  0.00  0.00    +0.005 A 
ATOM     13  C   UNL     1     -15.355   8.640   7.435  0.00  0.00    +0.005 A 
ATOM     14  C   UNL     1     -15.749  10.112   5.103  0.00  0.00    +0.000 A 
ATOM     15  C   UNL     1     -15.134   8.051   6.190  0.00  0.00    +0.000 A 
ATOM     16  C   UNL     1     -15.328   8.788   5.024  0.00  0.00    +0.000 A 
ENDBRANCH  10  11
ENDBRANCH   1  10
TORSDOF 2
ENDMDL
MODEL 9
REMARK VINA RESULT:    -4.761     11.990     13.092
REMARK INTER + INTRA:          -5.425
REMARK INTER:                  -5.274
REMARK INTRA:                  -0.152
REMARK UNBOUND:                -0.108
REMARK  Name = 1550473
REMARK  2 active torsions:
REMARK  status: ('A' for Active; 'I' for Inactive)
REMARK    1  A    between atoms: N_1  and  C_4
REMARK    2  A    between atoms: C_4  and  C_5
REMARK                            x       y       z     vdW  Elec       q    Type
REMARK                         _______ _______ _______ _____ _____    ______ ____
ROOT
ATOM      1  N   UNL     1      10.412   5.266  26.524  0.00  0.00    -0.354 N 
ATOM      2  N   UNL     1       9.522   3.168  26.936  0.00  0.00    -0.372 N 
ATOM      3  N   UNL     1       8.210   4.748  25.913  0.00  0.00    -0.372 N 
ATOM      4  C   UNL     1       9.385   4.409  26.454  0.00  0.00    +0.166 C 
ATOM      5  H   UNL     1      11.266   4.957  26.973  0.00  0.00    +0.163 HD
ATOM      6  H   UNL     1       8.765   2.498  26.894  0.00  0.00    +0.159 HD
ATOM      7  H   UNL     1      10.392   2.847  27.343  0.00  0.00    +0.159 HD
ATOM      8  H   UNL     1       8.040   5.671  25.537  0.00  0.00    +0.159 HD
ATOM      9  H   UNL     1       7.437   4.096  25.872  0.00  0.00    +0.159 HD
ENDROOT
BRANCH   1  10
ATOM     10  C   UNL     1      10.384   6.623  25.980  0.00  0.00    +0.151 C 
BRANCH  10  11
ATOM     11  C   UNL     1      11.062   6.628  24.638  0.00  0.00    -0.028 A 
ATOM     12  C   UNL     1      10.674   7.543  23.648  0.00  0.00    +0.005 A 
ATOM     13  C   UNL     1      12.097   5.725  24.352  0.00  0.00    +0.005 A 
ATOM     14  C   UNL     1      11.324   7.569  22.412  0.00  0.00    +0.000 A 
ATOM     15  C   UNL     1      12.743   5.753  23.116  0.00  0.00    +0.000 A 
ATOM     16  C   UNL     1      12.358   6.676  22.147  0.00  0.00    +0.000 A 
ENDBRANCH  10  11
ENDBRANCH   1  10
TORSDOF 2
ENDMDL
