MODEL 1
REMARK VINA RESULT:    -4.838      0.000      0.000
REMARK INTER + INTRA:          -5.562
REMARK INTER:                  -5.404
REMARK INTRA:                  -0.158
REMARK UNBOUND:                -0.158
REMARK  Name = 1550473
REMARK  2 active torsions:
REMARK  status: ('A' for Active; 'I' for Inactive)
REMARK    1  A    between atoms: N_1  and  C_4
REMARK    2  A    between atoms: C_4  and  C_5
REMARK                            x       y       z     vdW  Elec       q    Type
REMARK                         _______ _______ _______ _____ _____    ______ ____
ROOT
ATOM      1  N   UNL     1     -11.757   1.131 -12.929  0.00  0.00    -0.354 N 
ATOM      2  N   UNL     1     -11.175   3.050 -14.087  0.00  0.00    -0.372 N 
ATOM      3  N   UNL     1     -11.984   3.248 -11.949  0.00  0.00    -0.372 N 
ATOM      4  C   UNL     1     -11.643   2.465 -12.979  0.00  0.00    +0.166 C 
ATOM      5  H   UNL     1     -11.510   0.596 -13.753  0.00  0.00    +0.163 HD
ATOM      6  H   UNL     1     -11.075   4.054 -14.153  0.00  0.00    +0.159 HD
ATOM      7  H   UNL     1     -10.886   2.510 -14.894  0.00  0.00    +0.159 HD
ATOM      8  H   UNL     1     -12.350   2.869 -11.086  0.00  0.00    +0.159 HD
ATOM      9  H   UNL     1     -11.902   4.256 -12.000  0.00  0.00    +0.159 HD
ENDROOT
BRANCH   1  10
ATOM     10  C   UNL     1     -12.205   0.392 -11.750  0.00  0.00    +0.151 C 
BRANCH  10  11
ATOM     11  C   UNL     1     -13.439  -0.393 -12.102  0.00  0.00    -0.028 A 
ATOM     12  C   UNL     1     -14.643   0.265 -12.392  0.00  0.00    +0.005 A 
ATOM     13  C   UNL     1     -13.408  -1.795 -12.154  0.00  0.00    +0.005 A 
ATOM     14  C   UNL     1     -15.781  -0.462 -12.748  0.00  0.00    +0.000 A 
ATOM     15  C   UNL     1     -14.547  -2.518 -12.509  0.00  0.00    +0.000 A 
ATOM     16  C   UNL     1     -15.733  -1.851 -12.809  0.00  0.00    +0.000 A 
ENDBRANCH  10  11
ENDBRANCH   1  10
TORSDOF 2
ENDMDL
MODEL 2
REMARK VINA RESULT:    -4.331     24.488     25.843
REMARK INTER + INTRA:          -4.995
REMARK INTER:                  -4.823
REMARK INTRA:                  -0.172
REMARK UNBOUND:                -0.158
REMARK  Name = 1550473
REMARK  2 active torsions:
REMARK  status: ('A' for Active; 'I' for Inactive)
REMARK    1  A    between atoms: N_1  and  C_4
REMARK    2  A    between atoms: C_4  and  C_5
REMARK                            x       y       z     vdW  Elec       q    Type
REMARK                         _______ _______ _______ _____ _____    ______ ____
ROOT
ATOM      1  N   UNL     1       2.103 -17.182  -8.053  0.00  0.00    -0.354 N 
ATOM      2  N   UNL     1       0.984 -16.327  -9.892  0.00  0.00    -0.372 N 
ATOM      3  N   UNL     1       0.975 -18.595  -9.544  0.00  0.00    -0.372 N 
ATOM      4  C   UNL     1       1.361 -17.376  -9.151  0.00  0.00    +0.166 C 
ATOM      5  H   UNL     1       2.388 -16.236  -7.826  0.00  0.00    +0.163 HD
ATOM      6  H   UNL     1       0.421 -16.443 -10.724  0.00  0.00    +0.159 HD
ATOM      7  H   UNL     1       1.232 -15.379  -9.638  0.00  0.00    +0.159 HD
ATOM      8  H   UNL     1       1.231 -19.429  -9.032  0.00  0.00    +0.159 HD
ATOM      9  H   UNL     1       0.421 -18.732 -10.380  0.00  0.00    +0.159 HD
ENDROOT
BRANCH   1  10
ATOM     10  C   UNL     1       2.520 -18.251  -7.148  0.00  0.00    +0.151 C 
BRANCH  10  11
ATOM     11  C   UNL     1       3.965 -18.577  -7.407  0.00  0.00    -0.028 A 
ATOM     12  C   UNL     1       4.318 -19.532  -8.372  0.00  0.00    +0.005 A 
ATOM     13  C   UNL     1       4.987 -17.931  -6.695  0.00  0.00    +0.005 A 
ATOM     14  C   UNL     1       5.661 -19.814  -8.634  0.00  0.00    +0.000 A 
ATOM     15  C   UNL     1       6.327 -18.215  -6.959  0.00  0.00    +0.000 A 
ATOM     16  C   UNL     1       6.663 -19.155  -7.930  0.00  0.00    +0.000 A 
ENDBRANCH  10  11
ENDBRANCH   1  10
TORSDOF 2
ENDMDL
MODEL 3
REMARK VINA RESULT:    -4.256     22.310     23.599
REMARK INTER + INTRA:          -4.912
REMARK INTER:                  -4.789
REMARK INTRA:                  -0.123
REMARK UNBOUND:                -0.158
REMARK  Name = 1550473
REMARK  2 active torsions:
REMARK  status: ('A' for Active; 'I' for Inactive)
REMARK    1  A    between atoms: N_1  and  C_4
REMARK    2  A    between atoms: C_4  and  C_5
REMARK                            x       y       z     vdW  Elec       q    Type
REMARK                         _______ _______ _______ _____ _____    ______ ____
ROOT
ATOM      1  N   UNL     1      -6.194   3.459  11.025  0.00  0.00    -0.354 N 
ATOM      2  N   UNL     1      -4.771   3.681  12.839  0.00  0.00    -0.372 N 
ATOM      3  N   UNL     1      -6.297   5.342  12.417  0.00  0.00    -0.372 N 
ATOM      4  C   UNL     1      -5.764   4.162  12.082  0.00  0.00    +0.166 C 
ATOM      5  H   UNL     1      -5.729   2.586  10.807  0.00  0.00    +0.163 HD
ATOM      6  H   UNL     1      -4.428   4.188  13.644  0.00  0.00    +0.159 HD
ATOM      7  H   UNL     1      -4.338   2.786  12.645  0.00  0.00    +0.159 HD
ATOM      8  H   UNL     1      -7.046   5.763  11.883  0.00  0.00    +0.159 HD
ATOM      9  H   UNL     1      -5.959   5.869  13.212  0.00  0.00    +0.159 HD
ENDROOT
BRANCH   1  10
ATOM     10  C   UNL     1      -7.306   3.868  10.168  0.00  0.00    +0.151 C 
BRANCH  10  11
ATOM     11  C   UNL     1      -6.856   3.839   8.734  0.00  0.00    -0.028 A 
ATOM     12  C   UNL     1      -6.597   2.618   8.094  0.00  0.00    +0.005 A 
ATOM     13  C   UNL     1      -6.693   5.028   8.007  0.00  0.00    +0.005 A 
ATOM     14  C   UNL     1      -6.208   2.589   6.752  0.00  0.00    +0.000 A 
ATOM     15  C   UNL     1      -6.305   4.995   6.668  0.00  0.00    +0.000 A 
ATOM     16  C   UNL     1      -6.065   3.775   6.040  0.00  0.00    +0.000 A 
ENDBRANCH  10  11
ENDBRANCH   1  10
TORSDOF 2
ENDMDL
MODEL 4
REMARK VINA RESULT:    -4.231     11.494     13.479
REMARK INTER + INTRA:          -4.883
REMARK INTER:                  -4.755
REMARK INTRA:                  -0.129
REMARK UNBOUND:                -0.158
REMARK  Name = 1550473
REMARK  2 active torsions:
REMARK  status: ('A' for Active; 'I' for Inactive)
REMARK    1  A    between atoms: N_1  and  C_4
REMARK    2  A    between atoms: C_4  and  C_5
REMARK                            x       y       z     vdW  Elec       q    Type
REMARK                         _______ _______ _______ _____ _____    ______ ____
ROOT
ATOM      1  N   UNL     1     -10.969  12.790  -5.267  0.00  0.00    -0.354 N 
ATOM      2  N   UNL     1     -12.039  14.104  -3.688  0.00  0.00    -0.372 N 
ATOM      3  N   UNL     1      -9.751  13.939  -3.627  0.00  0.00    -0.372 N 
ATOM      4  C   UNL     1     -10.910  13.603  -4.203  0.00  0.00    +0.166 C 
ATOM      5  H   UNL     1     -11.880  12.549  -5.639  0.00  0.00    +0.163 HD
ATOM      6  H   UNL     1     -12.025  14.723  -2.888  0.00  0.00    +0.159 HD
ATOM      7  H   UNL     1     -12.945  13.899  -4.090  0.00  0.00    +0.159 HD
ATOM      8  H   UNL     1      -8.864  13.590  -3.964  0.00  0.00    +0.159 HD
ATOM      9  H   UNL     1      -9.718  14.547  -2.819  0.00  0.00    +0.159 HD
ENDROOT
BRANCH   1  10
ATOM     10  C   UNL     1      -9.794  12.234  -5.937  0.00  0.00    +0.151 C 
BRANCH  10  11
ATOM     11  C   UNL     1     -10.092  10.821  -6.357  0.00  0.00    -0.028 A 
ATOM     12  C   UNL     1      -9.050   9.903  -6.554  0.00  0.00    +0.005 A 
ATOM     13  C   UNL     1     -11.414  10.392  -6.553  0.00  0.00    +0.005 A 
ATOM     14  C   UNL     1      -9.327   8.582  -6.915  0.00  0.00    +0.000 A 
ATOM     15  C   UNL     1     -11.686   9.073  -6.913  0.00  0.00    +0.000 A 
ATOM     16  C   UNL     1     -10.643   8.167  -7.092  0.00  0.00    +0.000 A 
ENDBRANCH  10  11
ENDBRANCH   1  10
TORSDOF 2
ENDMDL
MODEL 5
REMARK VINA RESULT:    -4.211      7.914      8.878
REMARK INTER + INTRA:          -4.862
REMARK INTER:                  -4.693
REMARK INTRA:                  -0.169
REMARK UNBOUND:                -0.158
REMARK  Name = 1550473
REMARK  2 active torsions:
REMARK  status: ('A' for Active; 'I' for Inactive)
REMARK    1  A    between atoms: N_1  and  C_4
REMARK    2  A    between atoms: C_4  and  C_5
REMARK                            x       y       z     vdW  Elec       q    Type
REMARK                         _______ _______ _______ _____ _____    ______ ____
ROOT
ATOM      1  N   UNL     1     -17.653   0.026  -4.651  0.00  0.00    -0.354 N 
ATOM      2  N   UNL     1     -19.225  -1.248  -3.524  0.00  0.00    -0.372 N 
ATOM      3  N   UNL     1     -18.332  -2.059  -5.476  0.00  0.00    -0.372 N 
ATOM      4  C   UNL     1     -18.393  -1.087  -4.560  0.00  0.00    +0.166 C 
ATOM      5  H   UNL     1     -17.767   0.739  -3.939  0.00  0.00    +0.163 HD
ATOM      6  H   UNL     1     -19.793  -2.079  -3.427  0.00  0.00    +0.159 HD
ATOM      7  H   UNL     1     -19.303  -0.554  -2.791  0.00  0.00    +0.159 HD
ATOM      8  H   UNL     1     -17.728  -1.996  -6.285  0.00  0.00    +0.159 HD
ATOM      9  H   UNL     1     -18.901  -2.893  -5.403  0.00  0.00    +0.159 HD
ENDROOT
BRANCH   1  10
ATOM     10  C   UNL     1     -16.677   0.275  -5.710  0.00  0.00    +0.151 C 
BRANCH  10  11
ATOM     11  C   UNL     1     -17.298   1.165  -6.751  0.00  0.00    -0.028 A 
ATOM     12  C   UNL     1     -17.272   2.560  -6.602  0.00  0.00    +0.005 A 
ATOM     13  C   UNL     1     -17.908   0.620  -7.891  0.00  0.00    +0.005 A 
ATOM     14  C   UNL     1     -17.823   3.388  -7.584  0.00  0.00    +0.000 A 
ATOM     15  C   UNL     1     -18.457   1.451  -8.868  0.00  0.00    +0.000 A 
ATOM     16  C   UNL     1     -18.412   2.834  -8.715  0.00  0.00    +0.000 A 
ENDBRANCH  10  11
ENDBRANCH   1  10
TORSDOF 2
ENDMDL
MODEL 6
REMARK VINA RESULT:    -4.188     12.522     14.214
REMARK INTER + INTRA:          -4.836
REMARK INTER:                  -4.698
REMARK INTRA:                  -0.138
REMARK UNBOUND:                -0.158
REMARK  Name = 1550473
REMARK  2 active torsions:
REMARK  status: ('A' for Active; 'I' for Inactive)
REMARK    1  A    between atoms: N_1  and  C_4
REMARK    2  A    between atoms: C_4  and  C_5
REMARK                            x       y       z     vdW  Elec       q    Type
REMARK                         _______ _______ _______ _____ _____    ______ ____
ROOT
ATOM      1  N   UNL     1     -10.148  12.998  -5.464  0.00  0.00    -0.354 N 
ATOM      2  N   UNL     1     -11.692  13.581  -3.838  0.00  0.00    -0.372 N 
ATOM      3  N   UNL     1      -9.492  14.161  -3.538  0.00  0.00    -0.372 N 
ATOM      4  C   UNL     1     -10.432  13.577  -4.289  0.00  0.00    +0.166 C 
ATOM      5  H   UNL     1     -10.900  12.546  -5.971  0.00  0.00    +0.163 HD
ATOM      6  H   UNL     1     -11.936  14.013  -2.957  0.00  0.00    +0.159 HD
ATOM      7  H   UNL     1     -12.449  13.169  -4.369  0.00  0.00    +0.159 HD
ATOM      8  H   UNL     1      -8.521  14.187  -3.819  0.00  0.00    +0.159 HD
ATOM      9  H   UNL     1      -9.715  14.589  -2.647  0.00  0.00    +0.159 HD
ENDROOT
BRANCH   1  10
ATOM     10  C   UNL     1      -8.818  12.987  -6.070  0.00  0.00    +0.151 C 
BRANCH  10  11
ATOM     11  C   UNL     1      -8.563  11.631  -6.668  0.00  0.00    -0.028 A 
ATOM     12  C   UNL     1      -9.254  10.504  -6.199  0.00  0.00    +0.005 A 
ATOM     13  C   UNL     1      -7.635  11.467  -7.708  0.00  0.00    +0.005 A 
ATOM     14  C   UNL     1      -9.039   9.249  -6.774  0.00  0.00    +0.000 A 
ATOM     15  C   UNL     1      -7.423  10.212  -8.279  0.00  0.00    +0.000 A 
ATOM     16  C   UNL     1      -8.127   9.104  -7.814  0.00  0.00    +0.000 A 
ENDBRANCH  10  11
ENDBRANCH   1  10
TORSDOF 2
ENDMDL
MODEL 7
REMARK VINA RESULT:    -4.182      9.271     10.694
REMARK INTER + INTRA:          -4.828
REMARK INTER:                  -4.656
REMARK INTRA:                  -0.172
REMARK UNBOUND:                -0.158
REMARK  Name = 1550473
REMARK  2 active torsions:
REMARK  status: ('A' for Active; 'I' for Inactive)
REMARK    1  A    between atoms: N_1  and  C_4
REMARK    2  A    between atoms: C_4  and  C_5
REMARK                            x       y       z     vdW  Elec       q    Type
REMARK                         _______ _______ _______ _____ _____    ______ ____
ROOT
ATOM      1  N   UNL     1      -7.790   9.689  -7.466  0.00  0.00    -0.354 N 
ATOM      2  N   UNL     1      -6.533  10.224  -9.336  0.00  0.00    -0.372 N 
ATOM      3  N   UNL     1      -8.733   9.633  -9.611  0.00  0.00    -0.372 N 
ATOM      4  C   UNL     1      -7.696   9.844  -8.793  0.00  0.00    +0.166 C 
ATOM      5  H   UNL     1      -6.960   9.835  -6.904  0.00  0.00    +0.163 HD
ATOM      6  H   UNL     1      -6.432  10.353 -10.334  0.00  0.00    +0.159 HD
ATOM      7  H   UNL     1      -5.717  10.415  -8.767  0.00  0.00    +0.159 HD
ATOM      8  H   UNL     1      -9.636   9.339  -9.265  0.00  0.00    +0.159 HD
ATOM      9  H   UNL     1      -8.648   9.745 -10.614  0.00  0.00    +0.159 HD
ENDROOT
BRANCH   1  10
ATOM     10  C   UNL     1      -9.025   9.330  -6.771  0.00  0.00    +0.151 C 
BRANCH  10  11
ATOM     11  C   UNL     1      -9.031   7.849  -6.511  0.00  0.00    -0.028 A 
ATOM     12  C   UNL     1      -7.931   7.229  -5.901  0.00  0.00    +0.005 A 
ATOM     13  C   UNL     1     -10.135   7.061  -6.868  0.00  0.00    +0.005 A 
ATOM     14  C   UNL     1      -7.947   5.858  -5.633  0.00  0.00    +0.000 A 
ATOM     15  C   UNL     1     -10.148   5.692  -6.600  0.00  0.00    +0.000 A 
ATOM     16  C   UNL     1      -9.055   5.092  -5.980  0.00  0.00    +0.000 A 
ENDBRANCH  10  11
ENDBRANCH   1  10
TORSDOF 2
ENDMDL
MODEL 8
REMARK VINA RESULT:    -4.150      2.963      4.034
REMARK INTER + INTRA:          -4.793
REMARK INTER:                  -4.661
REMARK INTRA:                  -0.132
REMARK UNBOUND:                -0.158
REMARK  Name = 1550473
REMARK  2 active torsions:
REMARK  status: ('A' for Active; 'I' for Inactive)
REMARK    1  A    between atoms: N_1  and  C_4
REMARK    2  A    between atoms: C_4  and  C_5
REMARK                            x       y       z     vdW  Elec       q    Type
REMARK                         _______ _______ _______ _____ _____    ______ ____
ROOT
ATOM      1  N   UNL     1     -15.527   1.030 -10.471  0.00  0.00    -0.354 N 
ATOM      2  N   UNL     1     -16.607   1.190  -8.428  0.00  0.00    -0.372 N 
ATOM      3  N   UNL     1     -14.810   2.556  -8.844  0.00  0.00    -0.372 N 
ATOM      4  C   UNL     1     -15.639   1.593  -9.261  0.00  0.00    +0.166 C 
ATOM      5  H   UNL     1     -16.168   0.283 -10.716  0.00  0.00    +0.163 HD
ATOM      6  H   UNL     1     -16.718   1.599  -7.510  0.00  0.00    +0.159 HD
ATOM      7  H   UNL     1     -17.274   0.476  -8.693  0.00  0.00    +0.159 HD
ATOM      8  H   UNL     1     -14.055   2.900  -9.422  0.00  0.00    +0.159 HD
ATOM      9  H   UNL     1     -14.898   2.969  -7.923  0.00  0.00    +0.159 HD
ENDROOT
BRANCH   1  10
ATOM     10  C   UNL     1     -14.542   1.433 -11.473  0.00  0.00    +0.151 C 
BRANCH  10  11
ATOM     11  C   UNL     1     -13.749   0.228 -11.896  0.00  0.00    -0.028 A 
ATOM     12  C   UNL     1     -12.349   0.282 -11.958  0.00  0.00    +0.005 A 
ATOM     13  C   UNL     1     -14.392  -0.974 -12.230  0.00  0.00    +0.005 A 
ATOM     14  C   UNL     1     -11.611  -0.847 -12.322  0.00  0.00    +0.000 A 
ATOM     15  C   UNL     1     -13.651  -2.099 -12.594  0.00  0.00    +0.000 A 
ATOM     16  C   UNL     1     -12.261  -2.035 -12.637  0.00  0.00    +0.000 A 
ENDBRANCH  10  11
ENDBRANCH   1  10
TORSDOF 2
ENDMDL
MODEL 9
REMARK VINA RESULT:    -4.093      9.778     11.317
REMARK INTER + INTRA:          -4.730
REMARK INTER:                  -4.598
REMARK INTRA:                  -0.132
REMARK UNBOUND:                -0.158
REMARK  Name = 1550473
REMARK  2 active torsions:
REMARK  status: ('A' for Active; 'I' for Inactive)
REMARK    1  A    between atoms: N_1  and  C_4
REMARK    2  A    between atoms: C_4  and  C_5
REMARK                            x       y       z     vdW  Elec       q    Type
REMARK                         _______ _______ _______ _____ _____    ______ ____
ROOT
ATOM      1  N   UNL     1      -7.684  10.616  -8.278  0.00  0.00    -0.354 N 
ATOM      2  N   UNL     1      -5.996  12.140  -7.838  0.00  0.00    -0.372 N 
ATOM      3  N   UNL     1      -5.684  10.589  -9.500  0.00  0.00    -0.372 N 
ATOM      4  C   UNL     1      -6.464  11.104  -8.544  0.00  0.00    +0.166 C 
ATOM      5  H   UNL     1      -8.213  11.031  -7.520  0.00  0.00    +0.163 HD
ATOM      6  H   UNL     1      -5.081  12.532  -8.018  0.00  0.00    +0.159 HD
ATOM      7  H   UNL     1      -6.546  12.583  -7.112  0.00  0.00    +0.159 HD
ATOM      8  H   UNL     1      -5.977   9.802 -10.064  0.00  0.00    +0.159 HD
ATOM      9  H   UNL     1      -4.761  10.959  -9.687  0.00  0.00    +0.159 HD
ENDROOT
BRANCH   1  10
ATOM     10  C   UNL     1      -8.308   9.525  -9.023  0.00  0.00    +0.151 C 
BRANCH  10  11
ATOM     11  C   UNL     1      -8.677   8.425  -8.067  0.00  0.00    -0.028 A 
ATOM     12  C   UNL     1      -9.630   7.460  -8.424  0.00  0.00    +0.005 A 
ATOM     13  C   UNL     1      -8.072   8.338  -6.803  0.00  0.00    +0.005 A 
ATOM     14  C   UNL     1      -9.950   6.420  -7.548  0.00  0.00    +0.000 A 
ATOM     15  C   UNL     1      -8.396   7.299  -5.930  0.00  0.00    +0.000 A 
ATOM     16  C   UNL     1      -9.333   6.339  -6.304  0.00  0.00    +0.000 A 
ENDBRANCH  10  11
ENDBRANCH   1  10
TORSDOF 2
ENDMDL
