MODEL 1
REMARK VINA RESULT:    -5.535      0.000      0.000
REMARK INTER + INTRA:          -6.361
REMARK INTER:                  -6.182
REMARK INTRA:                  -0.179
REMARK UNBOUND:                -0.179
REMARK  Name = 1550473
REMARK  2 active torsions:
REMARK  status: ('A' for Active; 'I' for Inactive)
REMARK    1  A    between atoms: N_1  and  C_4
REMARK    2  A    between atoms: C_4  and  C_5
REMARK                            x       y       z     vdW  Elec       q    Type
REMARK                         _______ _______ _______ _____ _____    ______ ____
ROOT
ATOM      1  N   UNL     1      -1.583   0.224  14.594  0.00  0.00    -0.354 N 
ATOM      2  N   UNL     1      -2.335   0.034  12.412  0.00  0.00    -0.372 N 
ATOM      3  N   UNL     1      -2.672   2.007  13.533  0.00  0.00    -0.372 N 
ATOM      4  C   UNL     1      -2.193   0.759  13.528  0.00  0.00    +0.166 C 
ATOM      5  H   UNL     1      -1.269  -0.738  14.536  0.00  0.00    +0.163 HD
ATOM      6  H   UNL     1      -2.788   0.412  11.590  0.00  0.00    +0.159 HD
ATOM      7  H   UNL     1      -1.979  -0.912  12.342  0.00  0.00    +0.159 HD
ATOM      8  H   UNL     1      -2.602   2.604  14.346  0.00  0.00    +0.159 HD
ATOM      9  H   UNL     1      -3.139   2.399  12.725  0.00  0.00    +0.159 HD
ENDROOT
BRANCH   1  10
ATOM     10  C   UNL     1      -1.330   0.947  15.839  0.00  0.00    +0.151 C 
BRANCH  10  11
ATOM     11  C   UNL     1       0.088   1.450  15.835  0.00  0.00    -0.028 A 
ATOM     12  C   UNL     1       1.143   0.608  16.218  0.00  0.00    +0.005 A 
ATOM     13  C   UNL     1       0.383   2.765  15.445  0.00  0.00    +0.005 A 
ATOM     14  C   UNL     1       2.462   1.066  16.186  0.00  0.00    +0.000 A 
ATOM     15  C   UNL     1       1.701   3.218  15.415  0.00  0.00    +0.000 A 
ATOM     16  C   UNL     1       2.741   2.367  15.783  0.00  0.00    +0.000 A 
ENDBRANCH  10  11
ENDBRANCH   1  10
TORSDOF 2
ENDMDL
MODEL 2
REMARK VINA RESULT:    -5.276      1.425      1.975
REMARK INTER + INTRA:          -6.071
REMARK INTER:                  -5.963
REMARK INTRA:                  -0.109
REMARK UNBOUND:                -0.179
REMARK  Name = 1550473
REMARK  2 active torsions:
REMARK  status: ('A' for Active; 'I' for Inactive)
REMARK    1  A    between atoms: N_1  and  C_4
REMARK    2  A    between atoms: C_4  and  C_5
REMARK                            x       y       z     vdW  Elec       q    Type
REMARK                         _______ _______ _______ _____ _____    ______ ____
ROOT
ATOM      1  N   UNL     1      -1.161   0.414  14.870  0.00  0.00    -0.354 N 
ATOM      2  N   UNL     1      -2.261   0.071  12.861  0.00  0.00    -0.372 N 
ATOM      3  N   UNL     1      -3.443   0.897  14.645  0.00  0.00    -0.372 N 
ATOM      4  C   UNL     1      -2.283   0.464  14.140  0.00  0.00    +0.166 C 
ATOM      5  H   UNL     1      -0.321   0.047  14.437  0.00  0.00    +0.163 HD
ATOM      6  H   UNL     1      -3.091   0.100  12.284  0.00  0.00    +0.159 HD
ATOM      7  H   UNL     1      -1.409  -0.252  12.418  0.00  0.00    +0.159 HD
ATOM      8  H   UNL     1      -3.528   1.202  15.606  0.00  0.00    +0.159 HD
ATOM      9  H   UNL     1      -4.288   0.923  14.087  0.00  0.00    +0.159 HD
ENDROOT
BRANCH   1  10
ATOM     10  C   UNL     1      -1.067   0.869  16.256  0.00  0.00    +0.151 C 
BRANCH  10  11
ATOM     11  C   UNL     1       0.308   0.560  16.782  0.00  0.00    -0.028 A 
ATOM     12  C   UNL     1       0.476   0.026  18.068  0.00  0.00    +0.005 A 
ATOM     13  C   UNL     1       1.447   0.794  15.996  0.00  0.00    +0.005 A 
ATOM     14  C   UNL     1       1.750  -0.289  18.545  0.00  0.00    +0.000 A 
ATOM     15  C   UNL     1       2.718   0.479  16.476  0.00  0.00    +0.000 A 
ATOM     16  C   UNL     1       2.869  -0.065  17.750  0.00  0.00    +0.000 A 
ENDBRANCH  10  11
ENDBRANCH   1  10
TORSDOF 2
ENDMDL
MODEL 3
REMARK VINA RESULT:    -4.757     24.749     26.045
REMARK INTER + INTRA:          -5.492
REMARK INTER:                  -5.393
REMARK INTRA:                  -0.099
REMARK UNBOUND:                -0.179
REMARK  Name = 1550473
REMARK  2 active torsions:
REMARK  status: ('A' for Active; 'I' for Inactive)
REMARK    1  A    between atoms: N_1  and  C_4
REMARK    2  A    between atoms: C_4  and  C_5
REMARK                            x       y       z     vdW  Elec       q    Type
REMARK                         _______ _______ _______ _____ _____    ______ ____
ROOT
ATOM      1  N   UNL     1      -0.733 -16.784  -2.418  0.00  0.00    -0.354 N 
ATOM      2  N   UNL     1      -2.441 -15.774  -1.224  0.00  0.00    -0.372 N 
ATOM      3  N   UNL     1      -2.860 -17.758  -2.297  0.00  0.00    -0.372 N 
ATOM      4  C   UNL     1      -2.002 -16.781  -1.989  0.00  0.00    +0.166 C 
ATOM      5  H   UNL     1      -0.141 -15.998  -2.175  0.00  0.00    +0.163 HD
ATOM      6  H   UNL     1      -3.393 -15.747  -0.882  0.00  0.00    +0.159 HD
ATOM      7  H   UNL     1      -1.835 -15.013  -0.944  0.00  0.00    +0.159 HD
ATOM      8  H   UNL     1      -2.593 -18.544  -2.876  0.00  0.00    +0.159 HD
ATOM      9  H   UNL     1      -3.820 -17.743  -1.975  0.00  0.00    +0.159 HD
ENDROOT
BRANCH   1  10
ATOM     10  C   UNL     1      -0.140 -17.859  -3.211  0.00  0.00    +0.151 C 
BRANCH  10  11
ATOM     11  C   UNL     1       1.255 -17.464  -3.610  0.00  0.00    -0.028 A 
ATOM     12  C   UNL     1       2.220 -17.176  -2.634  0.00  0.00    +0.005 A 
ATOM     13  C   UNL     1       1.619 -17.381  -4.963  0.00  0.00    +0.005 A 
ATOM     14  C   UNL     1       3.524 -16.838  -3.004  0.00  0.00    +0.000 A 
ATOM     15  C   UNL     1       2.922 -17.042  -5.328  0.00  0.00    +0.000 A 
ATOM     16  C   UNL     1       3.875 -16.773  -4.348  0.00  0.00    +0.000 A 
ENDBRANCH  10  11
ENDBRANCH   1  10
TORSDOF 2
ENDMDL
MODEL 4
REMARK VINA RESULT:    -4.740      2.121      2.669
REMARK INTER + INTRA:          -5.473
REMARK INTER:                  -5.350
REMARK INTRA:                  -0.123
REMARK UNBOUND:                -0.179
REMARK  Name = 1550473
REMARK  2 active torsions:
REMARK  status: ('A' for Active; 'I' for Inactive)
REMARK    1  A    between atoms: N_1  and  C_4
REMARK    2  A    between atoms: C_4  and  C_5
REMARK                            x       y       z     vdW  Elec       q    Type
REMARK                         _______ _______ _______ _____ _____    ______ ____
ROOT
ATOM      1  N   UNL     1      -2.758   1.659  16.258  0.00  0.00    -0.354 N 
ATOM      2  N   UNL     1      -4.736   2.557  17.063  0.00  0.00    -0.372 N 
ATOM      3  N   UNL     1      -4.286   0.340  17.449  0.00  0.00    -0.372 N 
ATOM      4  C   UNL     1      -3.914   1.510  16.919  0.00  0.00    +0.166 C 
ATOM      5  H   UNL     1      -2.548   2.565  15.854  0.00  0.00    +0.163 HD
ATOM      6  H   UNL     1      -5.613   2.476  17.559  0.00  0.00    +0.159 HD
ATOM      7  H   UNL     1      -4.502   3.472  16.697  0.00  0.00    +0.159 HD
ATOM      8  H   UNL     1      -3.714  -0.490  17.370  0.00  0.00    +0.159 HD
ATOM      9  H   UNL     1      -5.166   0.236  17.939  0.00  0.00    +0.159 HD
ENDROOT
BRANCH   1  10
ATOM     10  C   UNL     1      -1.768   0.596  16.092  0.00  0.00    +0.151 C 
BRANCH  10  11
ATOM     11  C   UNL     1      -0.411   1.215  15.898  0.00  0.00    -0.028 A 
ATOM     12  C   UNL     1       0.752   0.465  16.127  0.00  0.00    +0.005 A 
ATOM     13  C   UNL     1      -0.282   2.548  15.479  0.00  0.00    +0.005 A 
ATOM     14  C   UNL     1       2.012   1.030  15.917  0.00  0.00    +0.000 A 
ATOM     15  C   UNL     1       0.978   3.108  15.272  0.00  0.00    +0.000 A 
ATOM     16  C   UNL     1       2.125   2.348  15.489  0.00  0.00    +0.000 A 
ENDBRANCH  10  11
ENDBRANCH   1  10
TORSDOF 2
ENDMDL
MODEL 5
REMARK VINA RESULT:    -4.680      1.758      2.701
REMARK INTER + INTRA:          -5.406
REMARK INTER:                  -5.244
REMARK INTRA:                  -0.162
REMARK UNBOUND:                -0.179
REMARK  Name = 1550473
REMARK  2 active torsions:
REMARK  status: ('A' for Active; 'I' for Inactive)
REMARK    1  A    between atoms: N_1  and  C_4
REMARK    2  A    between atoms: C_4  and  C_5
REMARK                            x       y       z     vdW  Elec       q    Type
REMARK                         _______ _______ _______ _____ _____    ______ ____
ROOT
ATOM      1  N   UNL     1      -2.028   0.824  16.751  0.00  0.00    -0.354 N 
ATOM      2  N   UNL     1      -3.920   1.629  17.818  0.00  0.00    -0.372 N 
ATOM      3  N   UNL     1      -3.798   1.755  15.530  0.00  0.00    -0.372 N 
ATOM      4  C   UNL     1      -3.237   1.398  16.690  0.00  0.00    +0.166 C 
ATOM      5  H   UNL     1      -1.645   0.604  17.664  0.00  0.00    +0.163 HD
ATOM      6  H   UNL     1      -4.835   2.057  17.803  0.00  0.00    +0.159 HD
ATOM      7  H   UNL     1      -3.554   1.366  18.725  0.00  0.00    +0.159 HD
ATOM      8  H   UNL     1      -3.332   1.614  14.644  0.00  0.00    +0.159 HD
ATOM      9  H   UNL     1      -4.709   2.196  15.496  0.00  0.00    +0.159 HD
ENDROOT
BRANCH   1  10
ATOM     10  C   UNL     1      -1.226   0.480  15.578  0.00  0.00    +0.151 C 
BRANCH  10  11
ATOM     11  C   UNL     1       0.065   1.251  15.624  0.00  0.00    -0.028 A 
ATOM     12  C   UNL     1       0.093   2.613  15.290  0.00  0.00    +0.005 A 
ATOM     13  C   UNL     1       1.262   0.626  16.005  0.00  0.00    +0.005 A 
ATOM     14  C   UNL     1       1.286   3.337  15.361  0.00  0.00    +0.000 A 
ATOM     15  C   UNL     1       2.451   1.352  16.073  0.00  0.00    +0.000 A 
ATOM     16  C   UNL     1       2.462   2.707  15.754  0.00  0.00    +0.000 A 
ENDBRANCH  10  11
ENDBRANCH   1  10
TORSDOF 2
ENDMDL
MODEL 6
REMARK VINA RESULT:    -4.592      2.853      4.646
REMARK INTER + INTRA:          -5.308
REMARK INTER:                  -5.182
REMARK INTRA:                  -0.126
REMARK UNBOUND:                -0.179
REMARK  Name = 1550473
REMARK  2 active torsions:
REMARK  status: ('A' for Active; 'I' for Inactive)
REMARK    1  A    between atoms: N_1  and  C_4
REMARK    2  A    between atoms: C_4  and  C_5
REMARK                            x       y       z     vdW  Elec       q    Type
REMARK                         _______ _______ _______ _____ _____    ______ ____
ROOT
ATOM      1  N   UNL     1       0.968   2.730  16.362  0.00  0.00    -0.354 N 
ATOM      2  N   UNL     1       1.577   4.950  16.115  0.00  0.00    -0.372 N 
ATOM      3  N   UNL     1       2.006   3.486  14.402  0.00  0.00    -0.372 N 
ATOM      4  C   UNL     1       1.514   3.706  15.626  0.00  0.00    +0.166 C 
ATOM      5  H   UNL     1       0.641   2.956  17.295  0.00  0.00    +0.163 HD
ATOM      6  H   UNL     1       1.980   5.709  15.581  0.00  0.00    +0.159 HD
ATOM      7  H   UNL     1       1.207   5.183  17.029  0.00  0.00    +0.159 HD
ATOM      8  H   UNL     1       1.994   2.568  13.978  0.00  0.00    +0.159 HD
ATOM      9  H   UNL     1       2.424   4.229  13.857  0.00  0.00    +0.159 HD
ENDROOT
BRANCH   1  10
ATOM     10  C   UNL     1       0.802   1.353  15.901  0.00  0.00    +0.151 C 
BRANCH  10  11
ATOM     11  C   UNL     1      -0.638   0.951  16.059  0.00  0.00    -0.028 A 
ATOM     12  C   UNL     1      -1.180   0.729  17.333  0.00  0.00    +0.005 A 
ATOM     13  C   UNL     1      -1.469   0.797  14.938  0.00  0.00    +0.005 A 
ATOM     14  C   UNL     1      -2.526   0.386  17.482  0.00  0.00    +0.000 A 
ATOM     15  C   UNL     1      -2.812   0.454  15.091  0.00  0.00    +0.000 A 
ATOM     16  C   UNL     1      -3.341   0.250  16.363  0.00  0.00    +0.000 A 
ENDBRANCH  10  11
ENDBRANCH   1  10
TORSDOF 2
ENDMDL
MODEL 7
REMARK VINA RESULT:    -4.560      2.089      3.054
REMARK INTER + INTRA:          -5.272
REMARK INTER:                  -5.126
REMARK INTRA:                  -0.146
REMARK UNBOUND:                -0.179
REMARK  Name = 1550473
REMARK  2 active torsions:
REMARK  status: ('A' for Active; 'I' for Inactive)
REMARK    1  A    between atoms: N_1  and  C_4
REMARK    2  A    between atoms: C_4  and  C_5
REMARK                            x       y       z     vdW  Elec       q    Type
REMARK                         _______ _______ _______ _____ _____    ______ ____
ROOT
ATOM      1  N   UNL     1      -3.581   1.595  15.205  0.00  0.00    -0.354 N 
ATOM      2  N   UNL     1      -5.009   3.418  15.137  0.00  0.00    -0.372 N 
ATOM      3  N   UNL     1      -3.249   3.332  13.668  0.00  0.00    -0.372 N 
ATOM      4  C   UNL     1      -3.935   2.771  14.669  0.00  0.00    +0.166 C 
ATOM      5  H   UNL     1      -4.125   1.238  15.982  0.00  0.00    +0.163 HD
ATOM      6  H   UNL     1      -5.302   4.304  14.750  0.00  0.00    +0.159 HD
ATOM      7  H   UNL     1      -5.578   3.036  15.883  0.00  0.00    +0.159 HD
ATOM      8  H   UNL     1      -2.425   2.898  13.273  0.00  0.00    +0.159 HD
ATOM      9  H   UNL     1      -3.520   4.225  13.275  0.00  0.00    +0.159 HD
ENDROOT
BRANCH   1  10
ATOM     10  C   UNL     1      -2.461   0.785  14.732  0.00  0.00    +0.151 C 
BRANCH  10  11
ATOM     11  C   UNL     1      -1.457   0.639  15.842  0.00  0.00    -0.028 A 
ATOM     12  C   UNL     1      -0.083   0.606  15.560  0.00  0.00    +0.005 A 
ATOM     13  C   UNL     1      -1.872   0.539  17.179  0.00  0.00    +0.005 A 
ATOM     14  C   UNL     1       0.851   0.501  16.594  0.00  0.00    +0.000 A 
ATOM     15  C   UNL     1      -0.936   0.434  18.208  0.00  0.00    +0.000 A 
ATOM     16  C   UNL     1       0.425   0.417  17.915  0.00  0.00    +0.000 A 
ENDBRANCH  10  11
ENDBRANCH   1  10
TORSDOF 2
ENDMDL
MODEL 8
REMARK VINA RESULT:    -4.469      2.401      3.424
REMARK INTER + INTRA:          -5.171
REMARK INTER:                  -4.996
REMARK INTRA:                  -0.175
REMARK UNBOUND:                -0.179
REMARK  Name = 1550473
REMARK  2 active torsions:
REMARK  status: ('A' for Active; 'I' for Inactive)
REMARK    1  A    between atoms: N_1  and  C_4
REMARK    2  A    between atoms: C_4  and  C_5
REMARK                            x       y       z     vdW  Elec       q    Type
REMARK                         _______ _______ _______ _____ _____    ______ ____
ROOT
ATOM      1  N   UNL     1      -3.939   2.120  15.379  0.00  0.00    -0.354 N 
ATOM      2  N   UNL     1      -5.421   2.695  17.063  0.00  0.00    -0.372 N 
ATOM      3  N   UNL     1      -4.021   4.305  16.220  0.00  0.00    -0.372 N 
ATOM      4  C   UNL     1      -4.449   3.039  16.210  0.00  0.00    +0.166 C 
ATOM      5  H   UNL     1      -4.286   1.170  15.441  0.00  0.00    +0.163 HD
ATOM      6  H   UNL     1      -5.828   3.367  17.700  0.00  0.00    +0.159 HD
ATOM      7  H   UNL     1      -5.798   1.755  17.091  0.00  0.00    +0.159 HD
ATOM      8  H   UNL     1      -3.286   4.628  15.605  0.00  0.00    +0.159 HD
ATOM      9  H   UNL     1      -4.407   4.990  16.858  0.00  0.00    +0.159 HD
ENDROOT
BRANCH   1  10
ATOM     10  C   UNL     1      -2.916   2.404  14.374  0.00  0.00    +0.151 C 
BRANCH  10  11
ATOM     11  C   UNL     1      -1.566   2.051  14.935  0.00  0.00    -0.028 A 
ATOM     12  C   UNL     1      -0.556   3.021  15.022  0.00  0.00    +0.005 A 
ATOM     13  C   UNL     1      -1.292   0.751  15.386  0.00  0.00    +0.005 A 
ATOM     14  C   UNL     1       0.689   2.701  15.570  0.00  0.00    +0.000 A 
ATOM     15  C   UNL     1      -0.048   0.436  15.932  0.00  0.00    +0.000 A 
ATOM     16  C   UNL     1       0.941   1.412  16.026  0.00  0.00    +0.000 A 
ENDBRANCH  10  11
ENDBRANCH   1  10
TORSDOF 2
ENDMDL
MODEL 9
REMARK VINA RESULT:    -4.393      8.804      9.225
REMARK INTER + INTRA:          -5.086
REMARK INTER:                  -4.954
REMARK INTRA:                  -0.132
REMARK UNBOUND:                -0.179
REMARK  Name = 1550473
REMARK  2 active torsions:
REMARK  status: ('A' for Active; 'I' for Inactive)
REMARK    1  A    between atoms: N_1  and  C_4
REMARK    2  A    between atoms: C_4  and  C_5
REMARK                            x       y       z     vdW  Elec       q    Type
REMARK                         _______ _______ _______ _____ _____    ______ ____
ROOT
ATOM      1  N   UNL     1      -6.662  -6.246  15.377  0.00  0.00    -0.354 N 
ATOM      2  N   UNL     1      -7.731  -5.614  13.422  0.00  0.00    -0.372 N 
ATOM      3  N   UNL     1      -8.375  -4.648  15.401  0.00  0.00    -0.372 N 
ATOM      4  C   UNL     1      -7.584  -5.506  14.748  0.00  0.00    +0.166 C 
ATOM      5  H   UNL     1      -6.114  -6.900  14.830  0.00  0.00    +0.163 HD
ATOM      6  H   UNL     1      -8.415  -5.066  12.920  0.00  0.00    +0.159 HD
ATOM      7  H   UNL     1      -7.150  -6.235  12.871  0.00  0.00    +0.159 HD
ATOM      8  H   UNL     1      -8.319  -4.524  16.403  0.00  0.00    +0.159 HD
ATOM      9  H   UNL     1      -9.075  -4.099  14.917  0.00  0.00    +0.159 HD
ENDROOT
BRANCH   1  10
ATOM     10  C   UNL     1      -6.385  -6.164  16.810  0.00  0.00    +0.151 C 
BRANCH  10  11
ATOM     11  C   UNL     1      -4.899  -6.238  17.029  0.00  0.00    -0.028 A 
ATOM     12  C   UNL     1      -4.337  -5.823  18.245  0.00  0.00    +0.005 A 
ATOM     13  C   UNL     1      -4.049  -6.728  16.026  0.00  0.00    +0.005 A 
ATOM     14  C   UNL     1      -2.960  -5.920  18.460  0.00  0.00    +0.000 A 
ATOM     15  C   UNL     1      -2.674  -6.822  16.244  0.00  0.00    +0.000 A 
ATOM     16  C   UNL     1      -2.130  -6.420  17.461  0.00  0.00    +0.000 A 
ENDBRANCH  10  11
ENDBRANCH   1  10
TORSDOF 2
ENDMDL
