MODEL 1
REMARK VINA RESULT:    -5.712      0.000      0.000
REMARK INTER + INTRA:          -6.509
REMARK INTER:                  -6.380
REMARK INTRA:                  -0.128
REMARK UNBOUND:                -0.128
REMARK  Name = 1550473
REMARK  2 active torsions:
REMARK  status: ('A' for Active; 'I' for Inactive)
REMARK    1  A    between atoms: N_1  and  C_4
REMARK    2  A    between atoms: C_4  and  C_5
REMARK                            x       y       z     vdW  Elec       q    Type
REMARK                         _______ _______ _______ _____ _____    ______ ____
ROOT
ATOM      1  N   UNL     1      -6.604  -3.392  -8.624  0.00  0.00    -0.354 N 
ATOM      2  N   UNL     1      -5.016  -2.059  -7.592  0.00  0.00    -0.372 N 
ATOM      3  N   UNL     1      -7.235  -1.523  -7.357  0.00  0.00    -0.372 N 
ATOM      4  C   UNL     1      -6.298  -2.332  -7.864  0.00  0.00    +0.166 C 
ATOM      5  H   UNL     1      -5.846  -3.948  -9.003  0.00  0.00    +0.163 HD
ATOM      6  H   UNL     1      -4.754  -1.268  -7.019  0.00  0.00    +0.159 HD
ATOM      7  H   UNL     1      -4.263  -2.643  -7.934  0.00  0.00    +0.159 HD
ATOM      8  H   UNL     1      -8.220  -1.671  -7.530  0.00  0.00    +0.159 HD
ATOM      9  H   UNL     1      -6.992  -0.720  -6.791  0.00  0.00    +0.159 HD
ENDROOT
BRANCH   1  10
ATOM     10  C   UNL     1      -7.971  -3.807  -8.934  0.00  0.00    +0.151 C 
BRANCH  10  11
ATOM     11  C   UNL     1      -7.960  -4.631 -10.192  0.00  0.00    -0.028 A 
ATOM     12  C   UNL     1      -6.796  -4.732 -10.967  0.00  0.00    +0.005 A 
ATOM     13  C   UNL     1      -9.110  -5.317 -10.612  0.00  0.00    +0.005 A 
ATOM     14  C   UNL     1      -6.777  -5.521 -12.120  0.00  0.00    +0.000 A 
ATOM     15  C   UNL     1      -9.087  -6.103 -11.764  0.00  0.00    +0.000 A 
ATOM     16  C   UNL     1      -7.920  -6.207 -12.516  0.00  0.00    +0.000 A 
ENDBRANCH  10  11
ENDBRANCH   1  10
TORSDOF 2
ENDMDL
MODEL 2
REMARK VINA RESULT:    -5.452      3.575      4.726
REMARK INTER + INTRA:          -6.218
REMARK INTER:                  -6.106
REMARK INTRA:                  -0.112
REMARK UNBOUND:                -0.128
REMARK  Name = 1550473
REMARK  2 active torsions:
REMARK  status: ('A' for Active; 'I' for Inactive)
REMARK    1  A    between atoms: N_1  and  C_4
REMARK    2  A    between atoms: C_4  and  C_5
REMARK                            x       y       z     vdW  Elec       q    Type
REMARK                         _______ _______ _______ _____ _____    ______ ____
ROOT
ATOM      1  N   UNL     1     -11.286  -4.833  -9.633  0.00  0.00    -0.354 N 
ATOM      2  N   UNL     1     -13.193  -3.541  -9.395  0.00  0.00    -0.372 N 
ATOM      3  N   UNL     1     -13.408  -5.720 -10.084  0.00  0.00    -0.372 N 
ATOM      4  C   UNL     1     -12.618  -4.709  -9.707  0.00  0.00    +0.166 C 
ATOM      5  H   UNL     1     -10.740  -4.021  -9.370  0.00  0.00    +0.163 HD
ATOM      6  H   UNL     1     -14.196  -3.419  -9.437  0.00  0.00    +0.159 HD
ATOM      7  H   UNL     1     -12.649  -2.744  -9.087  0.00  0.00    +0.159 HD
ATOM      8  H   UNL     1     -13.035  -6.625 -10.338  0.00  0.00    +0.159 HD
ATOM      9  H   UNL     1     -14.413  -5.613 -10.144  0.00  0.00    +0.159 HD
ENDROOT
BRANCH   1  10
ATOM     10  C   UNL     1     -10.565  -6.077  -9.900  0.00  0.00    +0.151 C 
BRANCH  10  11
ATOM     11  C   UNL     1      -9.254  -5.752 -10.561  0.00  0.00    -0.028 A 
ATOM     12  C   UNL     1      -8.859  -6.424 -11.727  0.00  0.00    +0.005 A 
ATOM     13  C   UNL     1      -8.404  -4.770 -10.029  0.00  0.00    +0.005 A 
ATOM     14  C   UNL     1      -7.655  -6.102 -12.358  0.00  0.00    +0.000 A 
ATOM     15  C   UNL     1      -7.202  -4.452 -10.661  0.00  0.00    +0.000 A 
ATOM     16  C   UNL     1      -6.829  -5.117 -11.827  0.00  0.00    +0.000 A 
ENDBRANCH  10  11
ENDBRANCH   1  10
TORSDOF 2
ENDMDL
MODEL 3
REMARK VINA RESULT:    -5.112     28.199     29.924
REMARK INTER + INTRA:          -5.839
REMARK INTER:                  -5.723
REMARK INTRA:                  -0.116
REMARK UNBOUND:                -0.128
REMARK  Name = 1550473
REMARK  2 active torsions:
REMARK  status: ('A' for Active; 'I' for Inactive)
REMARK    1  A    between atoms: N_1  and  C_4
REMARK    2  A    between atoms: C_4  and  C_5
REMARK                            x       y       z     vdW  Elec       q    Type
REMARK                         _______ _______ _______ _____ _____    ______ ____
ROOT
ATOM      1  N   UNL     1       7.868  20.457   2.069  0.00  0.00    -0.354 N 
ATOM      2  N   UNL     1       7.941  22.521   3.117  0.00  0.00    -0.372 N 
ATOM      3  N   UNL     1       7.577  20.645   4.387  0.00  0.00    -0.372 N 
ATOM      4  C   UNL     1       7.794  21.193   3.187  0.00  0.00    +0.166 C 
ATOM      5  H   UNL     1       8.005  20.935   1.186  0.00  0.00    +0.163 HD
ATOM      6  H   UNL     1       7.894  23.102   3.944  0.00  0.00    +0.159 HD
ATOM      7  H   UNL     1       8.123  22.992   2.239  0.00  0.00    +0.159 HD
ATOM      8  H   UNL     1       7.452  19.649   4.507  0.00  0.00    +0.159 HD
ATOM      9  H   UNL     1       7.515  21.211   5.224  0.00  0.00    +0.159 HD
ENDROOT
BRANCH   1  10
ATOM     10  C   UNL     1       7.776  18.998   2.043  0.00  0.00    +0.151 C 
BRANCH  10  11
ATOM     11  C   UNL     1       7.703  18.536   0.614  0.00  0.00    -0.028 A 
ATOM     12  C   UNL     1       8.318  19.277  -0.406  0.00  0.00    +0.005 A 
ATOM     13  C   UNL     1       7.026  17.355   0.274  0.00  0.00    +0.005 A 
ATOM     14  C   UNL     1       8.277  18.833  -1.729  0.00  0.00    +0.000 A 
ATOM     15  C   UNL     1       6.986  16.915  -1.049  0.00  0.00    +0.000 A 
ATOM     16  C   UNL     1       7.614  17.653  -2.050  0.00  0.00    +0.000 A 
ENDBRANCH  10  11
ENDBRANCH   1  10
TORSDOF 2
ENDMDL
MODEL 4
REMARK VINA RESULT:    -5.086     15.034     15.644
REMARK INTER + INTRA:          -5.809
REMARK INTER:                  -5.668
REMARK INTRA:                  -0.142
REMARK UNBOUND:                -0.128
REMARK  Name = 1550473
REMARK  2 active torsions:
REMARK  status: ('A' for Active; 'I' for Inactive)
REMARK    1  A    between atoms: N_1  and  C_4
REMARK    2  A    between atoms: C_4  and  C_5
REMARK                            x       y       z     vdW  Elec       q    Type
REMARK                         _______ _______ _______ _____ _____    ______ ____
ROOT
ATOM      1  N   UNL     1      -4.283  10.950 -16.490  0.00  0.00    -0.354 N 
ATOM      2  N   UNL     1      -1.992  11.166 -16.230  0.00  0.00    -0.372 N 
ATOM      3  N   UNL     1      -3.302  10.922 -14.362  0.00  0.00    -0.372 N 
ATOM      4  C   UNL     1      -3.208  11.011 -15.693  0.00  0.00    +0.166 C 
ATOM      5  H   UNL     1      -4.148  11.054 -17.489  0.00  0.00    +0.163 HD
ATOM      6  H   UNL     1      -1.162  11.212 -15.654  0.00  0.00    +0.159 HD
ATOM      7  H   UNL     1      -1.855  11.224 -17.232  0.00  0.00    +0.159 HD
ATOM      8  H   UNL     1      -4.192  10.810 -13.894  0.00  0.00    +0.159 HD
ATOM      9  H   UNL     1      -2.484  10.978 -13.768  0.00  0.00    +0.159 HD
ENDROOT
BRANCH   1  10
ATOM     10  C   UNL     1      -5.646  10.729 -16.010  0.00  0.00    +0.151 C 
BRANCH  10  11
ATOM     11  C   UNL     1      -6.259   9.590 -16.776  0.00  0.00    -0.028 A 
ATOM     12  C   UNL     1      -7.605   9.247 -16.587  0.00  0.00    +0.005 A 
ATOM     13  C   UNL     1      -5.499   8.853 -17.698  0.00  0.00    +0.005 A 
ATOM     14  C   UNL     1      -8.183   8.208 -17.320  0.00  0.00    +0.000 A 
ATOM     15  C   UNL     1      -6.080   7.816 -18.428  0.00  0.00    +0.000 A 
ATOM     16  C   UNL     1      -7.422   7.495 -18.241  0.00  0.00    +0.000 A 
ENDBRANCH  10  11
ENDBRANCH   1  10
TORSDOF 2
ENDMDL
MODEL 5
REMARK VINA RESULT:    -5.066      4.635      6.377
REMARK INTER + INTRA:          -5.786
REMARK INTER:                  -5.627
REMARK INTRA:                  -0.160
REMARK UNBOUND:                -0.128
REMARK  Name = 1550473
REMARK  2 active torsions:
REMARK  status: ('A' for Active; 'I' for Inactive)
REMARK    1  A    between atoms: N_1  and  C_4
REMARK    2  A    between atoms: C_4  and  C_5
REMARK                            x       y       z     vdW  Elec       q    Type
REMARK                         _______ _______ _______ _____ _____    ______ ____
ROOT
ATOM      1  N   UNL     1      -9.742  -6.924 -14.038  0.00  0.00    -0.354 N 
ATOM      2  N   UNL     1      -9.658  -7.061 -16.348  0.00  0.00    -0.372 N 
ATOM      3  N   UNL     1      -8.502  -8.603 -15.103  0.00  0.00    -0.372 N 
ATOM      4  C   UNL     1      -9.299  -7.531 -15.147  0.00  0.00    +0.166 C 
ATOM      5  H   UNL     1     -10.319  -6.097 -14.139  0.00  0.00    +0.163 HD
ATOM      6  H   UNL     1      -9.343  -7.500 -17.203  0.00  0.00    +0.159 HD
ATOM      7  H   UNL     1     -10.272  -6.262 -16.446  0.00  0.00    +0.159 HD
ATOM      8  H   UNL     1      -8.190  -9.003 -14.229  0.00  0.00    +0.159 HD
ATOM      9  H   UNL     1      -8.166  -9.049 -15.948  0.00  0.00    +0.159 HD
ENDROOT
BRANCH   1  10
ATOM     10  C   UNL     1      -9.453  -7.388 -12.682  0.00  0.00    +0.151 C 
BRANCH  10  11
ATOM     11  C   UNL     1      -8.701  -6.315 -11.945  0.00  0.00    -0.028 A 
ATOM     12  C   UNL     1      -9.304  -5.625 -10.883  0.00  0.00    +0.005 A 
ATOM     13  C   UNL     1      -7.384  -5.987 -12.300  0.00  0.00    +0.005 A 
ATOM     14  C   UNL     1      -8.595  -4.648 -10.179  0.00  0.00    +0.000 A 
ATOM     15  C   UNL     1      -6.680  -5.011 -11.595  0.00  0.00    +0.000 A 
ATOM     16  C   UNL     1      -7.285  -4.344 -10.533  0.00  0.00    +0.000 A 
ENDBRANCH  10  11
ENDBRANCH   1  10
TORSDOF 2
ENDMDL
MODEL 6
REMARK VINA RESULT:    -5.059     27.925     29.667
REMARK INTER + INTRA:          -5.778
REMARK INTER:                  -5.654
REMARK INTRA:                  -0.125
REMARK UNBOUND:                -0.128
REMARK  Name = 1550473
REMARK  2 active torsions:
REMARK  status: ('A' for Active; 'I' for Inactive)
REMARK    1  A    between atoms: N_1  and  C_4
REMARK    2  A    between atoms: C_4  and  C_5
REMARK                            x       y       z     vdW  Elec       q    Type
REMARK                         _______ _______ _______ _____ _____    ______ ____
ROOT
ATOM      1  N   UNL     1       8.143  19.850   2.257  0.00  0.00    -0.354 N 
ATOM      2  N   UNL     1       8.988  21.618   3.491  0.00  0.00    -0.372 N 
ATOM      3  N   UNL     1       7.114  20.532   4.249  0.00  0.00    -0.372 N 
ATOM      4  C   UNL     1       8.074  20.654   3.326  0.00  0.00    +0.166 C 
ATOM      5  H   UNL     1       8.877  20.013   1.578  0.00  0.00    +0.163 HD
ATOM      6  H   UNL     1       8.964  22.238   4.290  0.00  0.00    +0.159 HD
ATOM      7  H   UNL     1       9.748  21.750   2.835  0.00  0.00    +0.159 HD
ATOM      8  H   UNL     1       6.390  19.829   4.179  0.00  0.00    +0.159 HD
ATOM      9  H   UNL     1       7.066  21.151   5.049  0.00  0.00    +0.159 HD
ENDROOT
BRANCH   1  10
ATOM     10  C   UNL     1       7.228  18.736   2.012  0.00  0.00    +0.151 C 
BRANCH  10  11
ATOM     11  C   UNL     1       7.373  18.287   0.584  0.00  0.00    -0.028 A 
ATOM     12  C   UNL     1       6.764  17.102   0.145  0.00  0.00    +0.005 A 
ATOM     13  C   UNL     1       8.114  19.044  -0.336  0.00  0.00    +0.005 A 
ATOM     14  C   UNL     1       6.873  16.700  -1.188  0.00  0.00    +0.000 A 
ATOM     15  C   UNL     1       8.221  18.639  -1.667  0.00  0.00    +0.000 A 
ATOM     16  C   UNL     1       7.599  17.468  -2.093  0.00  0.00    +0.000 A 
ENDBRANCH  10  11
ENDBRANCH   1  10
TORSDOF 2
ENDMDL
MODEL 7
REMARK VINA RESULT:    -5.057     35.251     36.095
REMARK INTER + INTRA:          -5.776
REMARK INTER:                  -5.651
REMARK INTRA:                  -0.125
REMARK UNBOUND:                -0.128
REMARK  Name = 1550473
REMARK  2 active torsions:
REMARK  status: ('A' for Active; 'I' for Inactive)
REMARK    1  A    between atoms: N_1  and  C_4
REMARK    2  A    between atoms: C_4  and  C_5
REMARK                            x       y       z     vdW  Elec       q    Type
REMARK                         _______ _______ _______ _____ _____    ______ ____
ROOT
ATOM      1  N   UNL     1      16.276  12.602  11.974  0.00  0.00    -0.354 N 
ATOM      2  N   UNL     1      14.636  14.070  11.253  0.00  0.00    -0.372 N 
ATOM      3  N   UNL     1      14.785  13.586  13.491  0.00  0.00    -0.372 N 
ATOM      4  C   UNL     1      15.242  13.409  12.247  0.00  0.00    +0.166 C 
ATOM      5  H   UNL     1      16.555  12.488  11.007  0.00  0.00    +0.163 HD
ATOM      6  H   UNL     1      13.856  14.689  11.429  0.00  0.00    +0.159 HD
ATOM      7  H   UNL     1      14.947  13.990  10.293  0.00  0.00    +0.159 HD
ATOM      8  H   UNL     1      15.194  13.111  14.285  0.00  0.00    +0.159 HD
ATOM      9  H   UNL     1      13.997  14.192  13.685  0.00  0.00    +0.159 HD
ENDROOT
BRANCH   1  10
ATOM     10  C   UNL     1      17.039  11.879  12.990  0.00  0.00    +0.151 C 
BRANCH  10  11
ATOM     11  C   UNL     1      17.363  10.504  12.475  0.00  0.00    -0.028 A 
ATOM     12  C   UNL     1      17.580  10.289  11.106  0.00  0.00    +0.005 A 
ATOM     13  C   UNL     1      17.461   9.412  13.352  0.00  0.00    +0.005 A 
ATOM     14  C   UNL     1      17.911   9.018  10.631  0.00  0.00    +0.000 A 
ATOM     15  C   UNL     1      17.790   8.145  12.873  0.00  0.00    +0.000 A 
ATOM     16  C   UNL     1      18.018   7.948  11.513  0.00  0.00    +0.000 A 
ENDBRANCH  10  11
ENDBRANCH   1  10
TORSDOF 2
ENDMDL
MODEL 8
REMARK VINA RESULT:    -4.858     19.079     19.875
REMARK INTER + INTRA:          -5.554
REMARK INTER:                  -5.431
REMARK INTRA:                  -0.123
REMARK UNBOUND:                -0.128
REMARK  Name = 1550473
REMARK  2 active torsions:
REMARK  status: ('A' for Active; 'I' for Inactive)
REMARK    1  A    between atoms: N_1  and  C_4
REMARK    2  A    between atoms: C_4  and  C_5
REMARK                            x       y       z     vdW  Elec       q    Type
REMARK                         _______ _______ _______ _____ _____    ______ ____
ROOT
ATOM      1  N   UNL     1      -1.907  15.000  -6.877  0.00  0.00    -0.354 N 
ATOM      2  N   UNL     1      -1.810  16.349  -8.757  0.00  0.00    -0.372 N 
ATOM      3  N   UNL     1       0.148  15.580  -7.841  0.00  0.00    -0.372 N 
ATOM      4  C   UNL     1      -1.187  15.634  -7.812  0.00  0.00    +0.166 C 
ATOM      5  H   UNL     1      -2.915  15.104  -6.892  0.00  0.00    +0.163 HD
ATOM      6  H   UNL     1      -1.294  16.835  -9.477  0.00  0.00    +0.159 HD
ATOM      7  H   UNL     1      -2.820  16.414  -8.797  0.00  0.00    +0.159 HD
ATOM      8  H   UNL     1       0.679  15.063  -7.153  0.00  0.00    +0.159 HD
ATOM      9  H   UNL     1       0.683  16.070  -8.547  0.00  0.00    +0.159 HD
ENDROOT
BRANCH   1  10
ATOM     10  C   UNL     1      -1.329  14.151  -5.836  0.00  0.00    +0.151 C 
BRANCH  10  11
ATOM     11  C   UNL     1      -2.425  13.684  -4.918  0.00  0.00    -0.028 A 
ATOM     12  C   UNL     1      -3.765  13.992  -5.195  0.00  0.00    +0.005 A 
ATOM     13  C   UNL     1      -2.130  12.928  -3.773  0.00  0.00    +0.005 A 
ATOM     14  C   UNL     1      -4.785  13.533  -4.359  0.00  0.00    +0.000 A 
ATOM     15  C   UNL     1      -3.152  12.472  -2.941  0.00  0.00    +0.000 A 
ATOM     16  C   UNL     1      -4.479  12.773  -3.235  0.00  0.00    +0.000 A 
ENDBRANCH  10  11
ENDBRANCH   1  10
TORSDOF 2
ENDMDL
MODEL 9
REMARK VINA RESULT:    -4.699      4.346      6.140
REMARK INTER + INTRA:          -5.377
REMARK INTER:                  -5.254
REMARK INTRA:                  -0.123
REMARK UNBOUND:                -0.128
REMARK  Name = 1550473
REMARK  2 active torsions:
REMARK  status: ('A' for Active; 'I' for Inactive)
REMARK    1  A    between atoms: N_1  and  C_4
REMARK    2  A    between atoms: C_4  and  C_5
REMARK                            x       y       z     vdW  Elec       q    Type
REMARK                         _______ _______ _______ _____ _____    ______ ____
ROOT
ATOM      1  N   UNL     1     -11.083  -6.762 -12.154  0.00  0.00    -0.354 N 
ATOM      2  N   UNL     1     -13.337  -7.143 -11.787  0.00  0.00    -0.372 N 
ATOM      3  N   UNL     1     -12.236  -8.419 -13.343  0.00  0.00    -0.372 N 
ATOM      4  C   UNL     1     -12.204  -7.441 -12.433  0.00  0.00    +0.166 C 
ATOM      5  H   UNL     1     -11.131  -6.011 -11.475  0.00  0.00    +0.163 HD
ATOM      6  H   UNL     1     -14.198  -7.640 -11.973  0.00  0.00    +0.159 HD
ATOM      7  H   UNL     1     -13.372  -6.423 -11.076  0.00  0.00    +0.159 HD
ATOM      8  H   UNL     1     -11.416  -8.688 -13.870  0.00  0.00    +0.159 HD
ATOM      9  H   UNL     1     -13.091  -8.921 -13.552  0.00  0.00    +0.159 HD
ENDROOT
BRANCH   1  10
ATOM     10  C   UNL     1      -9.784  -7.044 -12.762  0.00  0.00    +0.151 C 
BRANCH  10  11
ATOM     11  C   UNL     1      -8.739  -6.177 -12.115  0.00  0.00    -0.028 A 
ATOM     12  C   UNL     1      -9.041  -5.441 -10.959  0.00  0.00    +0.005 A 
ATOM     13  C   UNL     1      -7.444  -6.092 -12.648  0.00  0.00    +0.005 A 
ATOM     14  C   UNL     1      -8.063  -4.660 -10.340  0.00  0.00    +0.000 A 
ATOM     15  C   UNL     1      -6.471  -5.309 -12.027  0.00  0.00    +0.000 A 
ATOM     16  C   UNL     1      -6.780  -4.596 -10.872  0.00  0.00    +0.000 A 
ENDBRANCH  10  11
ENDBRANCH   1  10
TORSDOF 2
ENDMDL
