MODEL 1
REMARK VINA RESULT:    -5.528      0.000      0.000
REMARK INTER + INTRA:          -6.294
REMARK INTER:                  -6.174
REMARK INTRA:                  -0.119
REMARK UNBOUND:                -0.119
REMARK  Name = 1550473
REMARK  2 active torsions:
REMARK  status: ('A' for Active; 'I' for Inactive)
REMARK    1  A    between atoms: N_1  and  C_4
REMARK    2  A    between atoms: C_4  and  C_5
REMARK                            x       y       z     vdW  Elec       q    Type
REMARK                         _______ _______ _______ _____ _____    ______ ____
ROOT
ATOM      1  N   UNL     1     -12.119   3.256  -3.529  0.00  0.00    -0.354 N 
ATOM      2  N   UNL     1     -12.196   1.190  -4.573  0.00  0.00    -0.372 N 
ATOM      3  N   UNL     1     -12.144   1.274  -2.280  0.00  0.00    -0.372 N 
ATOM      4  C   UNL     1     -12.152   1.920  -3.451  0.00  0.00    +0.166 C 
ATOM      5  H   UNL     1     -12.097   3.685  -4.448  0.00  0.00    +0.163 HD
ATOM      6  H   UNL     1     -12.225   0.180  -4.545  0.00  0.00    +0.159 HD
ATOM      7  H   UNL     1     -12.220   1.622  -5.488  0.00  0.00    +0.159 HD
ATOM      8  H   UNL     1     -12.106   1.766  -1.398  0.00  0.00    +0.159 HD
ATOM      9  H   UNL     1     -12.160   0.263  -2.232  0.00  0.00    +0.159 HD
ENDROOT
BRANCH   1  10
ATOM     10  C   UNL     1     -12.125   4.144  -2.368  0.00  0.00    +0.151 C 
BRANCH  10  11
ATOM     11  C   UNL     1     -11.676   5.514  -2.795  0.00  0.00    -0.028 A 
ATOM     12  C   UNL     1     -10.677   5.666  -3.766  0.00  0.00    +0.005 A 
ATOM     13  C   UNL     1     -12.252   6.666  -2.235  0.00  0.00    +0.005 A 
ATOM     14  C   UNL     1     -10.281   6.939  -4.185  0.00  0.00    +0.000 A 
ATOM     15  C   UNL     1     -11.854   7.935  -2.655  0.00  0.00    +0.000 A 
ATOM     16  C   UNL     1     -10.870   8.071  -3.632  0.00  0.00    +0.000 A 
ENDBRANCH  10  11
ENDBRANCH   1  10
TORSDOF 2
ENDMDL
MODEL 2
REMARK VINA RESULT:    -5.150      2.371      5.209
REMARK INTER + INTRA:          -5.871
REMARK INTER:                  -5.771
REMARK INTRA:                  -0.100
REMARK UNBOUND:                -0.119
REMARK  Name = 1550473
REMARK  2 active torsions:
REMARK  status: ('A' for Active; 'I' for Inactive)
REMARK    1  A    between atoms: N_1  and  C_4
REMARK    2  A    between atoms: C_4  and  C_5
REMARK                            x       y       z     vdW  Elec       q    Type
REMARK                         _______ _______ _______ _____ _____    ______ ____
ROOT
ATOM      1  N   UNL     1     -11.232   5.618  -3.510  0.00  0.00    -0.354 N 
ATOM      2  N   UNL     1      -9.820   7.294  -4.258  0.00  0.00    -0.372 N 
ATOM      3  N   UNL     1     -11.734   7.877  -3.135  0.00  0.00    -0.372 N 
ATOM      4  C   UNL     1     -10.940   6.920  -3.629  0.00  0.00    +0.166 C 
ATOM      5  H   UNL     1     -10.605   4.943  -3.932  0.00  0.00    +0.163 HD
ATOM      6  H   UNL     1      -9.571   8.268  -4.361  0.00  0.00    +0.159 HD
ATOM      7  H   UNL     1      -9.171   6.615  -4.639  0.00  0.00    +0.159 HD
ATOM      8  H   UNL     1     -12.597   7.661  -2.655  0.00  0.00    +0.159 HD
ATOM      9  H   UNL     1     -11.508   8.858  -3.238  0.00  0.00    +0.159 HD
ENDROOT
BRANCH   1  10
ATOM     10  C   UNL     1     -12.400   5.104  -2.796  0.00  0.00    +0.151 C 
BRANCH  10  11
ATOM     11  C   UNL     1     -12.321   3.604  -2.741  0.00  0.00    -0.028 A 
ATOM     12  C   UNL     1     -12.357   2.933  -1.510  0.00  0.00    +0.005 A 
ATOM     13  C   UNL     1     -12.216   2.846  -3.918  0.00  0.00    +0.005 A 
ATOM     14  C   UNL     1     -12.314   1.538  -1.460  0.00  0.00    +0.000 A 
ATOM     15  C   UNL     1     -12.173   1.453  -3.864  0.00  0.00    +0.000 A 
ATOM     16  C   UNL     1     -12.224   0.799  -2.635  0.00  0.00    +0.000 A 
ENDBRANCH  10  11
ENDBRANCH   1  10
TORSDOF 2
ENDMDL
MODEL 3
REMARK VINA RESULT:    -4.963      2.026      2.562
REMARK INTER + INTRA:          -5.663
REMARK INTER:                  -5.531
REMARK INTRA:                  -0.132
REMARK UNBOUND:                -0.119
REMARK  Name = 1550473
REMARK  2 active torsions:
REMARK  status: ('A' for Active; 'I' for Inactive)
REMARK    1  A    between atoms: N_1  and  C_4
REMARK    2  A    between atoms: C_4  and  C_5
REMARK                            x       y       z     vdW  Elec       q    Type
REMARK                         _______ _______ _______ _____ _____    ______ ____
ROOT
ATOM      1  N   UNL     1     -14.516   3.978  -2.313  0.00  0.00    -0.354 N 
ATOM      2  N   UNL     1     -16.174   2.592  -3.145  0.00  0.00    -0.372 N 
ATOM      3  N   UNL     1     -14.413   1.657  -2.010  0.00  0.00    -0.372 N 
ATOM      4  C   UNL     1     -15.022   2.750  -2.483  0.00  0.00    +0.166 C 
ATOM      5  H   UNL     1     -15.010   4.763  -2.722  0.00  0.00    +0.163 HD
ATOM      6  H   UNL     1     -16.582   1.678  -3.286  0.00  0.00    +0.159 HD
ATOM      7  H   UNL     1     -16.689   3.383  -3.513  0.00  0.00    +0.159 HD
ATOM      8  H   UNL     1     -13.538   1.707  -1.506  0.00  0.00    +0.159 HD
ATOM      9  H   UNL     1     -14.800   0.732  -2.151  0.00  0.00    +0.159 HD
ENDROOT
BRANCH   1  10
ATOM     10  C   UNL     1     -13.295   4.263  -1.561  0.00  0.00    +0.151 C 
BRANCH  10  11
ATOM     11  C   UNL     1     -12.414   5.167  -2.378  0.00  0.00    -0.028 A 
ATOM     12  C   UNL     1     -12.303   6.529  -2.063  0.00  0.00    +0.005 A 
ATOM     13  C   UNL     1     -11.683   4.666  -3.466  0.00  0.00    +0.005 A 
ATOM     14  C   UNL     1     -11.461   7.363  -2.803  0.00  0.00    +0.000 A 
ATOM     15  C   UNL     1     -10.844   5.502  -4.204  0.00  0.00    +0.000 A 
ATOM     16  C   UNL     1     -10.732   6.849  -3.870  0.00  0.00    +0.000 A 
ENDBRANCH  10  11
ENDBRANCH   1  10
TORSDOF 2
ENDMDL
MODEL 4
REMARK VINA RESULT:    -4.878     26.440     28.116
REMARK INTER + INTRA:          -5.568
REMARK INTER:                  -5.419
REMARK INTRA:                  -0.149
REMARK UNBOUND:                -0.119
REMARK  Name = 1550473
REMARK  2 active torsions:
REMARK  status: ('A' for Active; 'I' for Inactive)
REMARK    1  A    between atoms: N_1  and  C_4
REMARK    2  A    between atoms: C_4  and  C_5
REMARK                            x       y       z     vdW  Elec       q    Type
REMARK                         _______ _______ _______ _____ _____    ______ ____
ROOT
ATOM      1  N   UNL     1       9.862 -14.232 -10.787  0.00  0.00    -0.354 N 
ATOM      2  N   UNL     1      11.133 -15.931  -9.860  0.00  0.00    -0.372 N 
ATOM      3  N   UNL     1      11.770 -13.754  -9.513  0.00  0.00    -0.372 N 
ATOM      4  C   UNL     1      10.915 -14.626 -10.059  0.00  0.00    +0.166 C 
ATOM      5  H   UNL     1       9.268 -14.943 -11.198  0.00  0.00    +0.163 HD
ATOM      6  H   UNL     1      11.918 -16.258  -9.313  0.00  0.00    +0.159 HD
ATOM      7  H   UNL     1      10.512 -16.638 -10.234  0.00  0.00    +0.159 HD
ATOM      8  H   UNL     1      11.665 -12.755  -9.631  0.00  0.00    +0.159 HD
ATOM      9  H   UNL     1      12.568 -14.063  -8.972  0.00  0.00    +0.159 HD
ENDROOT
BRANCH   1  10
ATOM     10  C   UNL     1       9.504 -12.833 -11.018  0.00  0.00    +0.151 C 
BRANCH  10  11
ATOM     11  C   UNL     1       8.178 -12.551 -10.367  0.00  0.00    -0.028 A 
ATOM     12  C   UNL     1       7.758 -11.231 -10.151  0.00  0.00    +0.005 A 
ATOM     13  C   UNL     1       7.335 -13.600  -9.969  0.00  0.00    +0.005 A 
ATOM     14  C   UNL     1       6.513 -10.968  -9.574  0.00  0.00    +0.000 A 
ATOM     15  C   UNL     1       6.093 -13.334  -9.393  0.00  0.00    +0.000 A 
ATOM     16  C   UNL     1       5.681 -12.018  -9.197  0.00  0.00    +0.000 A 
ENDBRANCH  10  11
ENDBRANCH   1  10
TORSDOF 2
ENDMDL
MODEL 5
REMARK VINA RESULT:    -4.770     29.672     30.150
REMARK INTER + INTRA:          -5.447
REMARK INTER:                  -5.305
REMARK INTRA:                  -0.142
REMARK UNBOUND:                -0.119
REMARK  Name = 1550473
REMARK  2 active torsions:
REMARK  status: ('A' for Active; 'I' for Inactive)
REMARK    1  A    between atoms: N_1  and  C_4
REMARK    2  A    between atoms: C_4  and  C_5
REMARK                            x       y       z     vdW  Elec       q    Type
REMARK                         _______ _______ _______ _____ _____    ______ ____
ROOT
ATOM      1  N   UNL     1       9.987   4.523  15.793  0.00  0.00    -0.354 N 
ATOM      2  N   UNL     1      10.781   5.916  14.122  0.00  0.00    -0.372 N 
ATOM      3  N   UNL     1      11.427   6.304  16.289  0.00  0.00    -0.372 N 
ATOM      4  C   UNL     1      10.728   5.573  15.415  0.00  0.00    +0.166 C 
ATOM      5  H   UNL     1       9.457   4.028  15.085  0.00  0.00    +0.163 HD
ATOM      6  H   UNL     1      11.334   6.702  13.806  0.00  0.00    +0.159 HD
ATOM      7  H   UNL     1      10.286   5.392  13.411  0.00  0.00    +0.159 HD
ATOM      8  H   UNL     1      11.424   6.101  17.280  0.00  0.00    +0.159 HD
ATOM      9  H   UNL     1      11.977   7.101  15.994  0.00  0.00    +0.159 HD
ENDROOT
BRANCH   1  10
ATOM     10  C   UNL     1       9.904   4.034  17.168  0.00  0.00    +0.151 C 
BRANCH  10  11
ATOM     11  C   UNL     1      10.190   2.557  17.182  0.00  0.00    -0.028 A 
ATOM     12  C   UNL     1      10.536   1.887  16.000  0.00  0.00    +0.005 A 
ATOM     13  C   UNL     1      10.121   1.823  18.376  0.00  0.00    +0.005 A 
ATOM     14  C   UNL     1      10.831   0.522  16.018  0.00  0.00    +0.000 A 
ATOM     15  C   UNL     1      10.415   0.460  18.390  0.00  0.00    +0.000 A 
ATOM     16  C   UNL     1      10.772  -0.190  17.211  0.00  0.00    +0.000 A 
ENDBRANCH  10  11
ENDBRANCH   1  10
TORSDOF 2
ENDMDL
MODEL 6
REMARK VINA RESULT:    -4.766     16.597     18.201
REMARK INTER + INTRA:          -5.443
REMARK INTER:                  -5.320
REMARK INTRA:                  -0.123
REMARK UNBOUND:                -0.119
REMARK  Name = 1550473
REMARK  2 active torsions:
REMARK  status: ('A' for Active; 'I' for Inactive)
REMARK    1  A    between atoms: N_1  and  C_4
REMARK    2  A    between atoms: C_4  and  C_5
REMARK                            x       y       z     vdW  Elec       q    Type
REMARK                         _______ _______ _______ _____ _____    ______ ____
ROOT
ATOM      1  N   UNL     1     -11.074  -1.197 -18.350  0.00  0.00    -0.354 N 
ATOM      2  N   UNL     1     -13.063  -0.495 -17.395  0.00  0.00    -0.372 N 
ATOM      3  N   UNL     1     -11.838  -2.121 -16.337  0.00  0.00    -0.372 N 
ATOM      4  C   UNL     1     -11.978  -1.278 -17.365  0.00  0.00    +0.166 C 
ATOM      5  H   UNL     1     -11.253  -0.559 -19.117  0.00  0.00    +0.163 HD
ATOM      6  H   UNL     1     -13.761  -0.531 -16.663  0.00  0.00    +0.159 HD
ATOM      7  H   UNL     1     -13.217   0.175 -18.138  0.00  0.00    +0.159 HD
ATOM      8  H   UNL     1     -11.045  -2.743 -16.259  0.00  0.00    +0.159 HD
ATOM      9  H   UNL     1     -12.531  -2.181 -15.602  0.00  0.00    +0.159 HD
ENDROOT
BRANCH   1  10
ATOM     10  C   UNL     1      -9.832  -1.967 -18.385  0.00  0.00    +0.151 C 
BRANCH  10  11
ATOM     11  C   UNL     1      -9.570  -2.414 -19.797  0.00  0.00    -0.028 A 
ATOM     12  C   UNL     1      -8.451  -1.941 -20.498  0.00  0.00    +0.005 A 
ATOM     13  C   UNL     1     -10.435  -3.314 -20.438  0.00  0.00    +0.005 A 
ATOM     14  C   UNL     1      -8.191  -2.378 -21.798  0.00  0.00    +0.000 A 
ATOM     15  C   UNL     1     -10.172  -3.748 -21.737  0.00  0.00    +0.000 A 
ATOM     16  C   UNL     1      -9.049  -3.282 -22.416  0.00  0.00    +0.000 A 
ENDBRANCH  10  11
ENDBRANCH   1  10
TORSDOF 2
ENDMDL
MODEL 7
REMARK VINA RESULT:    -4.742     29.146     29.452
REMARK INTER + INTRA:          -5.416
REMARK INTER:                  -5.585
REMARK INTRA:                   0.169
REMARK UNBOUND:                -0.119
REMARK  Name = 1550473
REMARK  2 active torsions:
REMARK  status: ('A' for Active; 'I' for Inactive)
REMARK    1  A    between atoms: N_1  and  C_4
REMARK    2  A    between atoms: C_4  and  C_5
REMARK                            x       y       z     vdW  Elec       q    Type
REMARK                         _______ _______ _______ _____ _____    ______ ____
ROOT
ATOM      1  N   UNL     1       9.683   4.704  15.545  0.00  0.00    -0.354 N 
ATOM      2  N   UNL     1      11.691   5.108  14.464  0.00  0.00    -0.372 N 
ATOM      3  N   UNL     1      11.662   5.030  16.757  0.00  0.00    -0.372 N 
ATOM      4  C   UNL     1      11.000   4.945  15.599  0.00  0.00    +0.166 C 
ATOM      5  H   UNL     1       9.234   4.682  14.637  0.00  0.00    +0.163 HD
ATOM      6  H   UNL     1      12.686   5.287  14.473  0.00  0.00    +0.159 HD
ATOM      7  H   UNL     1      11.248   5.039  13.556  0.00  0.00    +0.159 HD
ATOM      8  H   UNL     1      11.197   4.923  17.649  0.00  0.00    +0.159 HD
ATOM      9  H   UNL     1      12.656   5.221  16.787  0.00  0.00    +0.159 HD
ENDROOT
BRANCH   1  10
ATOM     10  C   UNL     1       8.848   4.459  16.720  0.00  0.00    +0.151 C 
BRANCH  10  11
ATOM     11  C   UNL     1       8.667   5.748  17.472  0.00  0.00    -0.028 A 
ATOM     12  C   UNL     1       8.503   6.958  16.782  0.00  0.00    +0.005 A 
ATOM     13  C   UNL     1       8.654   5.767  18.875  0.00  0.00    +0.005 A 
ATOM     14  C   UNL     1       8.305   8.152  17.480  0.00  0.00    +0.000 A 
ATOM     15  C   UNL     1       8.456   6.961  19.568  0.00  0.00    +0.000 A 
ATOM     16  C   UNL     1       8.279   8.153  18.870  0.00  0.00    +0.000 A 
ENDBRANCH  10  11
ENDBRANCH   1  10
TORSDOF 2
ENDMDL
MODEL 8
REMARK VINA RESULT:    -4.674      2.190      2.603
REMARK INTER + INTRA:          -5.340
REMARK INTER:                  -5.197
REMARK INTRA:                  -0.143
REMARK UNBOUND:                -0.119
REMARK  Name = 1550473
REMARK  2 active torsions:
REMARK  status: ('A' for Active; 'I' for Inactive)
REMARK    1  A    between atoms: N_1  and  C_4
REMARK    2  A    between atoms: C_4  and  C_5
REMARK                            x       y       z     vdW  Elec       q    Type
REMARK                         _______ _______ _______ _____ _____    ______ ____
ROOT
ATOM      1  N   UNL     1     -13.570   2.721  -1.321  0.00  0.00    -0.354 N 
ATOM      2  N   UNL     1     -15.526   1.882  -2.234  0.00  0.00    -0.372 N 
ATOM      3  N   UNL     1     -15.585   3.906  -1.154  0.00  0.00    -0.372 N 
ATOM      4  C   UNL     1     -14.882   2.844  -1.562  0.00  0.00    +0.166 C 
ATOM      5  H   UNL     1     -13.101   1.878  -1.631  0.00  0.00    +0.163 HD
ATOM      6  H   UNL     1     -16.515   1.949  -2.434  0.00  0.00    +0.159 HD
ATOM      7  H   UNL     1     -15.045   1.062  -2.582  0.00  0.00    +0.159 HD
ATOM      8  H   UNL     1     -15.160   4.664  -0.637  0.00  0.00    +0.159 HD
ATOM      9  H   UNL     1     -16.579   3.985  -1.334  0.00  0.00    +0.159 HD
ENDROOT
BRANCH   1  10
ATOM     10  C   UNL     1     -12.765   3.737  -0.645  0.00  0.00    +0.151 C 
BRANCH  10  11
ATOM     11  C   UNL     1     -12.246   4.712  -1.666  0.00  0.00    -0.028 A 
ATOM     12  C   UNL     1     -11.692   4.255  -2.871  0.00  0.00    +0.005 A 
ATOM     13  C   UNL     1     -12.312   6.095  -1.438  0.00  0.00    +0.005 A 
ATOM     14  C   UNL     1     -11.238   5.161  -3.832  0.00  0.00    +0.000 A 
ATOM     15  C   UNL     1     -11.857   6.997  -2.400  0.00  0.00    +0.000 A 
ATOM     16  C   UNL     1     -11.323   6.529  -3.598  0.00  0.00    +0.000 A 
ENDBRANCH  10  11
ENDBRANCH   1  10
TORSDOF 2
ENDMDL
MODEL 9
REMARK VINA RESULT:    -4.419     11.073     12.577
REMARK INTER + INTRA:          -5.055
REMARK INTER:                  -4.916
REMARK INTRA:                  -0.139
REMARK UNBOUND:                -0.119
REMARK  Name = 1550473
REMARK  2 active torsions:
REMARK  status: ('A' for Active; 'I' for Inactive)
REMARK    1  A    between atoms: N_1  and  C_4
REMARK    2  A    between atoms: C_4  and  C_5
REMARK                            x       y       z     vdW  Elec       q    Type
REMARK                         _______ _______ _______ _____ _____    ______ ____
ROOT
ATOM      1  N   UNL     1      -3.970  15.478  -5.142  0.00  0.00    -0.354 N 
ATOM      2  N   UNL     1      -2.523  15.603  -6.946  0.00  0.00    -0.372 N 
ATOM      3  N   UNL     1      -4.684  16.330  -7.204  0.00  0.00    -0.372 N 
ATOM      4  C   UNL     1      -3.738  15.804  -6.420  0.00  0.00    +0.166 C 
ATOM      5  H   UNL     1      -3.219  15.055  -4.609  0.00  0.00    +0.163 HD
ATOM      6  H   UNL     1      -2.317  15.842  -7.906  0.00  0.00    +0.159 HD
ATOM      7  H   UNL     1      -1.762  15.222  -6.398  0.00  0.00    +0.159 HD
ATOM      8  H   UNL     1      -5.623  16.501  -6.870  0.00  0.00    +0.159 HD
ATOM      9  H   UNL     1      -4.501  16.565  -8.172  0.00  0.00    +0.159 HD
ENDROOT
BRANCH   1  10
ATOM     10  C   UNL     1      -5.242  15.706  -4.458  0.00  0.00    +0.151 C 
BRANCH  10  11
ATOM     11  C   UNL     1      -5.609  14.473  -3.678  0.00  0.00    -0.028 A 
ATOM     12  C   UNL     1      -5.472  13.201  -4.253  0.00  0.00    +0.005 A 
ATOM     13  C   UNL     1      -6.087  14.570  -2.363  0.00  0.00    +0.005 A 
ATOM     14  C   UNL     1      -5.784  12.054  -3.519  0.00  0.00    +0.000 A 
ATOM     15  C   UNL     1      -6.399  13.423  -1.634  0.00  0.00    +0.000 A 
ATOM     16  C   UNL     1      -6.245  12.165  -2.211  0.00  0.00    +0.000 A 
ENDBRANCH  10  11
ENDBRANCH   1  10
TORSDOF 2
ENDMDL
