MODEL 1
REMARK VINA RESULT:    -7.005      0.000      0.000
REMARK INTER + INTRA:          -7.975
REMARK INTER:                  -7.824
REMARK INTRA:                  -0.151
REMARK UNBOUND:                -0.151
REMARK  Name = 1550473
REMARK  2 active torsions:
REMARK  status: ('A' for Active; 'I' for Inactive)
REMARK    1  A    between atoms: N_1  and  C_4
REMARK    2  A    between atoms: C_4  and  C_5
REMARK                            x       y       z     vdW  Elec       q    Type
REMARK                         _______ _______ _______ _____ _____    ______ ____
ROOT
ATOM      1  N   UNL     1       2.113   3.837   6.338  0.00  0.00    -0.354 N 
ATOM      2  N   UNL     1       3.467   5.238   7.592  0.00  0.00    -0.372 N 
ATOM      3  N   UNL     1       1.643   6.126   6.520  0.00  0.00    -0.372 N 
ATOM      4  C   UNL     1       2.397   5.060   6.807  0.00  0.00    +0.166 C 
ATOM      5  H   UNL     1       2.742   3.076   6.568  0.00  0.00    +0.163 HD
ATOM      6  H   UNL     1       3.704   6.148   7.963  0.00  0.00    +0.159 HD
ATOM      7  H   UNL     1       4.067   4.467   7.857  0.00  0.00    +0.159 HD
ATOM      8  H   UNL     1       0.825   6.060   5.928  0.00  0.00    +0.159 HD
ATOM      9  H   UNL     1       1.870   7.047   6.872  0.00  0.00    +0.159 HD
ENDROOT
BRANCH   1  10
ATOM     10  C   UNL     1       0.942   3.527   5.520  0.00  0.00    +0.151 C 
BRANCH  10  11
ATOM     11  C   UNL     1       1.399   3.044   4.171  0.00  0.00    -0.028 A 
ATOM     12  C   UNL     1       0.521   3.053   3.077  0.00  0.00    +0.005 A 
ATOM     13  C   UNL     1       2.710   2.582   3.979  0.00  0.00    +0.005 A 
ATOM     14  C   UNL     1       0.954   2.633   1.817  0.00  0.00    +0.000 A 
ATOM     15  C   UNL     1       3.138   2.163   2.720  0.00  0.00    +0.000 A 
ATOM     16  C   UNL     1       2.260   2.191   1.639  0.00  0.00    +0.000 A 
ENDBRANCH  10  11
ENDBRANCH   1  10
TORSDOF 2
ENDMDL
MODEL 2
REMARK VINA RESULT:    -6.078      1.732      2.394
REMARK INTER + INTRA:          -6.940
REMARK INTER:                  -6.821
REMARK INTRA:                  -0.119
REMARK UNBOUND:                -0.151
REMARK  Name = 1550473
REMARK  2 active torsions:
REMARK  status: ('A' for Active; 'I' for Inactive)
REMARK    1  A    between atoms: N_1  and  C_4
REMARK    2  A    between atoms: C_4  and  C_5
REMARK                            x       y       z     vdW  Elec       q    Type
REMARK                         _______ _______ _______ _____ _____    ______ ____
ROOT
ATOM      1  N   UNL     1       2.363   4.133   4.700  0.00  0.00    -0.354 N 
ATOM      2  N   UNL     1       1.762   5.632   6.359  0.00  0.00    -0.372 N 
ATOM      3  N   UNL     1       0.538   3.708   6.106  0.00  0.00    -0.372 N 
ATOM      4  C   UNL     1       1.556   4.479   5.711  0.00  0.00    +0.166 C 
ATOM      5  H   UNL     1       3.099   4.775   4.429  0.00  0.00    +0.163 HD
ATOM      6  H   UNL     1       1.171   5.918   7.129  0.00  0.00    +0.159 HD
ATOM      7  H   UNL     1       2.526   6.251   6.117  0.00  0.00    +0.159 HD
ATOM      8  H   UNL     1       0.325   2.828   5.654  0.00  0.00    +0.159 HD
ATOM      9  H   UNL     1      -0.072   3.983   6.866  0.00  0.00    +0.159 HD
ENDROOT
BRANCH   1  10
ATOM     10  C   UNL     1       2.258   2.874   3.964  0.00  0.00    +0.151 C 
BRANCH  10  11
ATOM     11  C   UNL     1       2.984   3.009   2.653  0.00  0.00    -0.028 A 
ATOM     12  C   UNL     1       2.891   4.193   1.907  0.00  0.00    +0.005 A 
ATOM     13  C   UNL     1       3.770   1.959   2.155  0.00  0.00    +0.005 A 
ATOM     14  C   UNL     1       3.589   4.330   0.705  0.00  0.00    +0.000 A 
ATOM     15  C   UNL     1       4.464   2.099   0.954  0.00  0.00    +0.000 A 
ATOM     16  C   UNL     1       4.375   3.286   0.230  0.00  0.00    +0.000 A 
ENDBRANCH  10  11
ENDBRANCH   1  10
TORSDOF 2
ENDMDL
MODEL 3
REMARK VINA RESULT:    -6.076      1.714      2.635
REMARK INTER + INTRA:          -6.938
REMARK INTER:                  -6.813
REMARK INTRA:                  -0.125
REMARK UNBOUND:                -0.151
REMARK  Name = 1550473
REMARK  2 active torsions:
REMARK  status: ('A' for Active; 'I' for Inactive)
REMARK    1  A    between atoms: N_1  and  C_4
REMARK    2  A    between atoms: C_4  and  C_5
REMARK                            x       y       z     vdW  Elec       q    Type
REMARK                         _______ _______ _______ _____ _____    ______ ____
ROOT
ATOM      1  N   UNL     1       2.382   3.952   4.812  0.00  0.00    -0.354 N 
ATOM      2  N   UNL     1       1.603   5.424   6.421  0.00  0.00    -0.372 N 
ATOM      3  N   UNL     1       0.387   3.532   5.968  0.00  0.00    -0.372 N 
ATOM      4  C   UNL     1       1.460   4.291   5.723  0.00  0.00    +0.166 C 
ATOM      5  H   UNL     1       3.156   4.585   4.652  0.00  0.00    +0.163 HD
ATOM      6  H   UNL     1       0.926   5.705   7.118  0.00  0.00    +0.159 HD
ATOM      7  H   UNL     1       2.402   6.033   6.291  0.00  0.00    +0.159 HD
ATOM      8  H   UNL     1       0.218   2.668   5.472  0.00  0.00    +0.159 HD
ATOM      9  H   UNL     1      -0.308   3.802   6.653  0.00  0.00    +0.159 HD
ENDROOT
BRANCH   1  10
ATOM     10  C   UNL     1       2.348   2.712   4.037  0.00  0.00    +0.151 C 
BRANCH  10  11
ATOM     11  C   UNL     1       3.024   2.942   2.714  0.00  0.00    -0.028 A 
ATOM     12  C   UNL     1       3.802   1.933   2.127  0.00  0.00    +0.005 A 
ATOM     13  C   UNL     1       2.886   4.164   2.038  0.00  0.00    +0.005 A 
ATOM     14  C   UNL     1       4.406   2.135   0.884  0.00  0.00    +0.000 A 
ATOM     15  C   UNL     1       3.491   4.362   0.797  0.00  0.00    +0.000 A 
ATOM     16  C   UNL     1       4.248   3.347   0.219  0.00  0.00    +0.000 A 
ENDBRANCH  10  11
ENDBRANCH   1  10
TORSDOF 2
ENDMDL
MODEL 4
REMARK VINA RESULT:    -5.930      4.473      5.798
REMARK INTER + INTRA:          -6.775
REMARK INTER:                  -6.610
REMARK INTRA:                  -0.165
REMARK UNBOUND:                -0.151
REMARK  Name = 1550473
REMARK  2 active torsions:
REMARK  status: ('A' for Active; 'I' for Inactive)
REMARK    1  A    between atoms: N_1  and  C_4
REMARK    2  A    between atoms: C_4  and  C_5
REMARK                            x       y       z     vdW  Elec       q    Type
REMARK                         _______ _______ _______ _____ _____    ______ ____
ROOT
ATOM      1  N   UNL     1       2.217   4.126  -0.397  0.00  0.00    -0.354 N 
ATOM      2  N   UNL     1       1.679   2.847  -2.251  0.00  0.00    -0.372 N 
ATOM      3  N   UNL     1       3.890   3.154  -1.720  0.00  0.00    -0.372 N 
ATOM      4  C   UNL     1       2.602   3.384  -1.444  0.00  0.00    +0.166 C 
ATOM      5  H   UNL     1       1.226   4.288  -0.260  0.00  0.00    +0.163 HD
ATOM      6  H   UNL     1       1.939   2.280  -3.047  0.00  0.00    +0.159 HD
ATOM      7  H   UNL     1       0.688   2.972  -2.085  0.00  0.00    +0.159 HD
ATOM      8  H   UNL     1       4.635   3.536  -1.153  0.00  0.00    +0.159 HD
ATOM      9  H   UNL     1       4.170   2.599  -2.519  0.00  0.00    +0.159 HD
ENDROOT
BRANCH   1  10
ATOM     10  C   UNL     1       3.140   4.711   0.574  0.00  0.00    +0.151 C 
BRANCH  10  11
ATOM     11  C   UNL     1       2.943   4.041   1.905  0.00  0.00    -0.028 A 
ATOM     12  C   UNL     1       2.238   4.689   2.931  0.00  0.00    +0.005 A 
ATOM     13  C   UNL     1       3.453   2.756   2.146  0.00  0.00    +0.005 A 
ATOM     14  C   UNL     1       2.029   4.055   4.158  0.00  0.00    +0.000 A 
ATOM     15  C   UNL     1       3.242   2.127   3.373  0.00  0.00    +0.000 A 
ATOM     16  C   UNL     1       2.528   2.775   4.378  0.00  0.00    +0.000 A 
ENDBRANCH  10  11
ENDBRANCH   1  10
TORSDOF 2
ENDMDL
MODEL 5
REMARK VINA RESULT:    -5.801      4.362      5.722
REMARK INTER + INTRA:          -6.630
REMARK INTER:                  -6.527
REMARK INTRA:                  -0.103
REMARK UNBOUND:                -0.151
REMARK  Name = 1550473
REMARK  2 active torsions:
REMARK  status: ('A' for Active; 'I' for Inactive)
REMARK    1  A    between atoms: N_1  and  C_4
REMARK    2  A    between atoms: C_4  and  C_5
REMARK                            x       y       z     vdW  Elec       q    Type
REMARK                         _______ _______ _______ _____ _____    ______ ____
ROOT
ATOM      1  N   UNL     1       2.145   1.838  -0.454  0.00  0.00    -0.354 N 
ATOM      2  N   UNL     1       1.384   2.801  -2.418  0.00  0.00    -0.372 N 
ATOM      3  N   UNL     1       3.246   3.677  -1.402  0.00  0.00    -0.372 N 
ATOM      4  C   UNL     1       2.265   2.767  -1.411  0.00  0.00    +0.166 C 
ATOM      5  H   UNL     1       1.362   1.196  -0.503  0.00  0.00    +0.163 HD
ATOM      6  H   UNL     1       1.452   3.489  -3.157  0.00  0.00    +0.159 HD
ATOM      7  H   UNL     1       0.629   2.129  -2.489  0.00  0.00    +0.159 HD
ATOM      8  H   UNL     1       3.939   3.709  -0.667  0.00  0.00    +0.159 HD
ATOM      9  H   UNL     1       3.323   4.380  -2.126  0.00  0.00    +0.159 HD
ENDROOT
BRANCH   1  10
ATOM     10  C   UNL     1       3.082   1.681   0.656  0.00  0.00    +0.151 C 
BRANCH  10  11
ATOM     11  C   UNL     1       2.443   2.200   1.915  0.00  0.00    -0.028 A 
ATOM     12  C   UNL     1       1.104   2.618   1.914  0.00  0.00    +0.005 A 
ATOM     13  C   UNL     1       3.170   2.269   3.114  0.00  0.00    +0.005 A 
ATOM     14  C   UNL     1       0.502   3.071   3.090  0.00  0.00    +0.000 A 
ATOM     15  C   UNL     1       2.565   2.724   4.286  0.00  0.00    +0.000 A 
ATOM     16  C   UNL     1       1.230   3.122   4.274  0.00  0.00    +0.000 A 
ENDBRANCH  10  11
ENDBRANCH   1  10
TORSDOF 2
ENDMDL
MODEL 6
REMARK VINA RESULT:    -5.768      4.556      5.847
REMARK INTER + INTRA:          -6.594
REMARK INTER:                  -6.475
REMARK INTRA:                  -0.118
REMARK UNBOUND:                -0.151
REMARK  Name = 1550473
REMARK  2 active torsions:
REMARK  status: ('A' for Active; 'I' for Inactive)
REMARK    1  A    between atoms: N_1  and  C_4
REMARK    2  A    between atoms: C_4  and  C_5
REMARK                            x       y       z     vdW  Elec       q    Type
REMARK                         _______ _______ _______ _____ _____    ______ ____
ROOT
ATOM      1  N   UNL     1       0.338   3.213  -0.461  0.00  0.00    -0.354 N 
ATOM      2  N   UNL     1       0.078   3.614  -2.727  0.00  0.00    -0.372 N 
ATOM      3  N   UNL     1      -1.761   3.742  -1.360  0.00  0.00    -0.372 N 
ATOM      4  C   UNL     1      -0.449   3.521  -1.500  0.00  0.00    +0.166 C 
ATOM      5  H   UNL     1       1.318   3.027  -0.638  0.00  0.00    +0.163 HD
ATOM      6  H   UNL     1      -0.491   3.848  -3.530  0.00  0.00    +0.159 HD
ATOM      7  H   UNL     1       1.067   3.472  -2.894  0.00  0.00    +0.159 HD
ATOM      8  H   UNL     1      -2.221   3.682  -0.461  0.00  0.00    +0.159 HD
ATOM      9  H   UNL     1      -2.348   3.966  -2.153  0.00  0.00    +0.159 HD
ENDROOT
BRANCH   1  10
ATOM     10  C   UNL     1      -0.127   3.139   0.923  0.00  0.00    +0.151 C 
BRANCH  10  11
ATOM     11  C   UNL     1       1.043   2.836   1.819  0.00  0.00    -0.028 A 
ATOM     12  C   UNL     1       0.991   3.145   3.186  0.00  0.00    +0.005 A 
ATOM     13  C   UNL     1       2.203   2.235   1.307  0.00  0.00    +0.005 A 
ATOM     14  C   UNL     1       2.065   2.836   4.024  0.00  0.00    +0.000 A 
ATOM     15  C   UNL     1       3.274   1.929   2.147  0.00  0.00    +0.000 A 
ATOM     16  C   UNL     1       3.204   2.227   3.505  0.00  0.00    +0.000 A 
ENDBRANCH  10  11
ENDBRANCH   1  10
TORSDOF 2
ENDMDL
MODEL 7
REMARK VINA RESULT:    -5.397      3.831      5.092
REMARK INTER + INTRA:          -6.180
REMARK INTER:                  -6.012
REMARK INTRA:                  -0.168
REMARK UNBOUND:                -0.151
REMARK  Name = 1550473
REMARK  2 active torsions:
REMARK  status: ('A' for Active; 'I' for Inactive)
REMARK    1  A    between atoms: N_1  and  C_4
REMARK    2  A    between atoms: C_4  and  C_5
REMARK                            x       y       z     vdW  Elec       q    Type
REMARK                         _______ _______ _______ _____ _____    ______ ____
ROOT
ATOM      1  N   UNL     1       3.556   4.739   0.949  0.00  0.00    -0.354 N 
ATOM      2  N   UNL     1       3.218   6.500  -0.516  0.00  0.00    -0.372 N 
ATOM      3  N   UNL     1       2.630   4.382  -1.173  0.00  0.00    -0.372 N 
ATOM      4  C   UNL     1       3.136   5.193  -0.239  0.00  0.00    +0.166 C 
ATOM      5  H   UNL     1       3.958   5.401   1.603  0.00  0.00    +0.163 HD
ATOM      6  H   UNL     1       2.906   6.873  -1.403  0.00  0.00    +0.159 HD
ATOM      7  H   UNL     1       3.578   7.166   0.156  0.00  0.00    +0.159 HD
ATOM      8  H   UNL     1       2.546   3.384  -1.028  0.00  0.00    +0.159 HD
ATOM      9  H   UNL     1       2.323   4.734  -2.071  0.00  0.00    +0.159 HD
ENDROOT
BRANCH   1  10
ATOM     10  C   UNL     1       3.461   3.343   1.371  0.00  0.00    +0.151 C 
BRANCH  10  11
ATOM     11  C   UNL     1       2.445   3.231   2.474  0.00  0.00    -0.028 A 
ATOM     12  C   UNL     1       2.852   3.162   3.814  0.00  0.00    +0.005 A 
ATOM     13  C   UNL     1       1.072   3.199   2.185  0.00  0.00    +0.005 A 
ATOM     14  C   UNL     1       1.907   3.088   4.840  0.00  0.00    +0.000 A 
ATOM     15  C   UNL     1       0.131   3.124   3.212  0.00  0.00    +0.000 A 
ATOM     16  C   UNL     1       0.549   3.071   4.540  0.00  0.00    +0.000 A 
ENDBRANCH  10  11
ENDBRANCH   1  10
TORSDOF 2
ENDMDL
MODEL 8
REMARK VINA RESULT:    -4.910     15.705     16.820
REMARK INTER + INTRA:          -5.635
REMARK INTER:                  -5.489
REMARK INTRA:                  -0.146
REMARK UNBOUND:                -0.151
REMARK  Name = 1550473
REMARK  2 active torsions:
REMARK  status: ('A' for Active; 'I' for Inactive)
REMARK    1  A    between atoms: N_1  and  C_4
REMARK    2  A    between atoms: C_4  and  C_5
REMARK                            x       y       z     vdW  Elec       q    Type
REMARK                         _______ _______ _______ _____ _____    ______ ____
ROOT
ATOM      1  N   UNL     1       4.953  -2.719  19.765  0.00  0.00    -0.354 N 
ATOM      2  N   UNL     1       5.386  -1.363  21.592  0.00  0.00    -0.372 N 
ATOM      3  N   UNL     1       6.282  -0.800  19.556  0.00  0.00    -0.372 N 
ATOM      4  C   UNL     1       5.539  -1.635  20.290  0.00  0.00    +0.166 C 
ATOM      5  H   UNL     1       4.428  -3.328  20.381  0.00  0.00    +0.163 HD
ATOM      6  H   UNL     1       5.814  -0.551  22.016  0.00  0.00    +0.159 HD
ATOM      7  H   UNL     1       4.822  -1.949  22.196  0.00  0.00    +0.159 HD
ATOM      8  H   UNL     1       6.442  -0.952  18.569  0.00  0.00    +0.159 HD
ATOM      9  H   UNL     1       6.728   0.012  19.965  0.00  0.00    +0.159 HD
ENDROOT
BRANCH   1  10
ATOM     10  C   UNL     1       5.013  -3.075  18.348  0.00  0.00    +0.151 C 
BRANCH  10  11
ATOM     11  C   UNL     1       5.518  -4.485  18.217  0.00  0.00    -0.028 A 
ATOM     12  C   UNL     1       5.739  -5.271  19.358  0.00  0.00    +0.005 A 
ATOM     13  C   UNL     1       5.770  -5.044  16.955  0.00  0.00    +0.005 A 
ATOM     14  C   UNL     1       6.179  -6.591  19.235  0.00  0.00    +0.000 A 
ATOM     15  C   UNL     1       6.210  -6.363  16.837  0.00  0.00    +0.000 A 
ATOM     16  C   UNL     1       6.412  -7.137  17.977  0.00  0.00    +0.000 A 
ENDBRANCH  10  11
ENDBRANCH   1  10
TORSDOF 2
ENDMDL
MODEL 9
REMARK VINA RESULT:    -4.863     16.627     18.084
REMARK INTER + INTRA:          -5.583
REMARK INTER:                  -5.486
REMARK INTRA:                  -0.097
REMARK UNBOUND:                -0.151
REMARK  Name = 1550473
REMARK  2 active torsions:
REMARK  status: ('A' for Active; 'I' for Inactive)
REMARK    1  A    between atoms: N_1  and  C_4
REMARK    2  A    between atoms: C_4  and  C_5
REMARK                            x       y       z     vdW  Elec       q    Type
REMARK                         _______ _______ _______ _____ _____    ______ ____
ROOT
ATOM      1  N   UNL     1      -1.298   5.267 -11.669  0.00  0.00    -0.354 N 
ATOM      2  N   UNL     1      -1.264   4.613  -9.448  0.00  0.00    -0.372 N 
ATOM      3  N   UNL     1      -2.512   6.443 -10.045  0.00  0.00    -0.372 N 
ATOM      4  C   UNL     1      -1.693   5.448 -10.402  0.00  0.00    +0.166 C 
ATOM      5  H   UNL     1      -0.652   4.512 -11.869  0.00  0.00    +0.163 HD
ATOM      6  H   UNL     1      -1.548   4.722  -8.483  0.00  0.00    +0.159 HD
ATOM      7  H   UNL     1      -0.655   3.831  -9.658  0.00  0.00    +0.159 HD
ATOM      8  H   UNL     1      -2.867   7.111 -10.717  0.00  0.00    +0.159 HD
ATOM      9  H   UNL     1      -2.798   6.575  -9.083  0.00  0.00    +0.159 HD
ENDROOT
BRANCH   1  10
ATOM     10  C   UNL     1      -1.750   6.088 -12.791  0.00  0.00    +0.151 C 
BRANCH  10  11
ATOM     11  C   UNL     1      -0.687   6.095 -13.854  0.00  0.00    -0.028 A 
ATOM     12  C   UNL     1      -0.533   4.998 -14.715  0.00  0.00    +0.005 A 
ATOM     13  C   UNL     1       0.166   7.198 -14.011  0.00  0.00    +0.005 A 
ATOM     14  C   UNL     1       0.435   5.017 -15.722  0.00  0.00    +0.000 A 
ATOM     15  C   UNL     1       1.131   7.213 -15.017  0.00  0.00    +0.000 A 
ATOM     16  C   UNL     1       1.264   6.123 -15.874  0.00  0.00    +0.000 A 
ENDBRANCH  10  11
ENDBRANCH   1  10
TORSDOF 2
ENDMDL
