MODEL 1
REMARK VINA RESULT:    -5.795      0.000      0.000
REMARK INTER + INTRA:          -6.607
REMARK INTER:                  -6.472
REMARK INTRA:                  -0.134
REMARK UNBOUND:                -0.134
REMARK  Name = 1550473
REMARK  2 active torsions:
REMARK  status: ('A' for Active; 'I' for Inactive)
REMARK    1  A    between atoms: N_1  and  C_4
REMARK    2  A    between atoms: C_4  and  C_5
REMARK                            x       y       z     vdW  Elec       q    Type
REMARK                         _______ _______ _______ _____ _____    ______ ____
ROOT
ATOM      1  N   UNL     1       2.824  -6.200  -7.520  0.00  0.00    -0.354 N 
ATOM      2  N   UNL     1       4.869  -5.316  -6.885  0.00  0.00    -0.372 N 
ATOM      3  N   UNL     1       4.775  -6.684  -8.725  0.00  0.00    -0.372 N 
ATOM      4  C   UNL     1       4.143  -6.074  -7.716  0.00  0.00    +0.166 C 
ATOM      5  H   UNL     1       2.410  -5.736  -6.719  0.00  0.00    +0.163 HD
ATOM      6  H   UNL     1       5.865  -5.200  -7.009  0.00  0.00    +0.159 HD
ATOM      7  H   UNL     1       4.445  -4.817  -6.112  0.00  0.00    +0.159 HD
ATOM      8  H   UNL     1       4.286  -7.274  -9.384  0.00  0.00    +0.159 HD
ATOM      9  H   UNL     1       5.774  -6.589  -8.859  0.00  0.00    +0.159 HD
ENDROOT
BRANCH   1  10
ATOM     10  C   UNL     1       1.935  -6.957  -8.399  0.00  0.00    +0.151 C 
BRANCH  10  11
ATOM     11  C   UNL     1       0.631  -6.221  -8.531  0.00  0.00    -0.028 A 
ATOM     12  C   UNL     1      -0.352  -6.669  -9.426  0.00  0.00    +0.005 A 
ATOM     13  C   UNL     1       0.368  -5.079  -7.759  0.00  0.00    +0.005 A 
ATOM     14  C   UNL     1      -1.576  -6.003  -9.528  0.00  0.00    +0.000 A 
ATOM     15  C   UNL     1      -0.855  -4.417  -7.864  0.00  0.00    +0.000 A 
ATOM     16  C   UNL     1      -1.827  -4.880  -8.746  0.00  0.00    +0.000 A 
ENDBRANCH  10  11
ENDBRANCH   1  10
TORSDOF 2
ENDMDL
MODEL 2
REMARK VINA RESULT:    -5.590      2.041      2.937
REMARK INTER + INTRA:          -6.377
REMARK INTER:                  -6.221
REMARK INTRA:                  -0.157
REMARK UNBOUND:                -0.134
REMARK  Name = 1550473
REMARK  2 active torsions:
REMARK  status: ('A' for Active; 'I' for Inactive)
REMARK    1  A    between atoms: N_1  and  C_4
REMARK    2  A    between atoms: C_4  and  C_5
REMARK                            x       y       z     vdW  Elec       q    Type
REMARK                         _______ _______ _______ _____ _____    ______ ____
ROOT
ATOM      1  N   UNL     1       1.423  -7.699  -7.703  0.00  0.00    -0.354 N 
ATOM      2  N   UNL     1       1.460 -10.011  -7.580  0.00  0.00    -0.372 N 
ATOM      3  N   UNL     1       1.721  -9.005  -9.626  0.00  0.00    -0.372 N 
ATOM      4  C   UNL     1       1.535  -8.890  -8.307  0.00  0.00    +0.166 C 
ATOM      5  H   UNL     1       1.252  -7.680  -6.704  0.00  0.00    +0.163 HD
ATOM      6  H   UNL     1       1.545 -10.924  -8.007  0.00  0.00    +0.159 HD
ATOM      7  H   UNL     1       1.336  -9.988  -6.575  0.00  0.00    +0.159 HD
ATOM      8  H   UNL     1       1.780  -8.197 -10.231  0.00  0.00    +0.159 HD
ATOM      9  H   UNL     1       1.796  -9.910 -10.073  0.00  0.00    +0.159 HD
ENDROOT
BRANCH   1  10
ATOM     10  C   UNL     1       1.543  -6.417  -8.395  0.00  0.00    +0.151 C 
BRANCH  10  11
ATOM     11  C   UNL     1       0.182  -5.787  -8.503  0.00  0.00    -0.028 A 
ATOM     12  C   UNL     1      -0.169  -4.706  -7.680  0.00  0.00    +0.005 A 
ATOM     13  C   UNL     1      -0.759  -6.262  -9.429  0.00  0.00    +0.005 A 
ATOM     14  C   UNL     1      -1.423  -4.102  -7.801  0.00  0.00    +0.000 A 
ATOM     15  C   UNL     1      -2.010  -5.656  -9.545  0.00  0.00    +0.000 A 
ATOM     16  C   UNL     1      -2.340  -4.574  -8.733  0.00  0.00    +0.000 A 
ENDBRANCH  10  11
ENDBRANCH   1  10
TORSDOF 2
ENDMDL
MODEL 3
REMARK VINA RESULT:    -5.100      3.453      5.050
REMARK INTER + INTRA:          -5.831
REMARK INTER:                  -5.700
REMARK INTRA:                  -0.130
REMARK UNBOUND:                -0.134
REMARK  Name = 1550473
REMARK  2 active torsions:
REMARK  status: ('A' for Active; 'I' for Inactive)
REMARK    1  A    between atoms: N_1  and  C_4
REMARK    2  A    between atoms: C_4  and  C_5
REMARK                            x       y       z     vdW  Elec       q    Type
REMARK                         _______ _______ _______ _____ _____    ______ ____
ROOT
ATOM      1  N   UNL     1      -1.368  -5.217  -9.850  0.00  0.00    -0.354 N 
ATOM      2  N   UNL     1       0.799  -5.415  -9.059  0.00  0.00    -0.372 N 
ATOM      3  N   UNL     1      -0.443  -3.587  -8.443  0.00  0.00    -0.372 N 
ATOM      4  C   UNL     1      -0.352  -4.736  -9.121  0.00  0.00    +0.166 C 
ATOM      5  H   UNL     1      -1.226  -6.078 -10.365  0.00  0.00    +0.163 HD
ATOM      6  H   UNL     1       1.582  -5.079  -8.514  0.00  0.00    +0.159 HD
ATOM      7  H   UNL     1       0.923  -6.299  -9.538  0.00  0.00    +0.159 HD
ATOM      8  H   UNL     1      -1.283  -3.024  -8.453  0.00  0.00    +0.159 HD
ATOM      9  H   UNL     1       0.334  -3.228  -7.902  0.00  0.00    +0.159 HD
ENDROOT
BRANCH   1  10
ATOM     10  C   UNL     1      -2.682  -4.581  -9.941  0.00  0.00    +0.151 C 
BRANCH  10  11
ATOM     11  C   UNL     1      -3.718  -5.634 -10.224  0.00  0.00    -0.028 A 
ATOM     12  C   UNL     1      -3.363  -6.990 -10.262  0.00  0.00    +0.005 A 
ATOM     13  C   UNL     1      -5.057  -5.281 -10.451  0.00  0.00    +0.005 A 
ATOM     14  C   UNL     1      -4.331  -7.970 -10.496  0.00  0.00    +0.000 A 
ATOM     15  C   UNL     1      -6.020  -6.263 -10.684  0.00  0.00    +0.000 A 
ATOM     16  C   UNL     1      -5.657  -7.607 -10.705  0.00  0.00    +0.000 A 
ENDBRANCH  10  11
ENDBRANCH   1  10
TORSDOF 2
ENDMDL
MODEL 4
REMARK VINA RESULT:    -4.988      2.579      4.774
REMARK INTER + INTRA:          -5.705
REMARK INTER:                  -5.582
REMARK INTRA:                  -0.124
REMARK UNBOUND:                -0.134
REMARK  Name = 1550473
REMARK  2 active torsions:
REMARK  status: ('A' for Active; 'I' for Inactive)
REMARK    1  A    between atoms: N_1  and  C_4
REMARK    2  A    between atoms: C_4  and  C_5
REMARK                            x       y       z     vdW  Elec       q    Type
REMARK                         _______ _______ _______ _____ _____    ______ ____
ROOT
ATOM      1  N   UNL     1       0.373  -4.655  -8.299  0.00  0.00    -0.354 N 
ATOM      2  N   UNL     1      -0.652  -2.621  -7.879  0.00  0.00    -0.372 N 
ATOM      3  N   UNL     1      -1.937  -4.385  -8.588  0.00  0.00    -0.372 N 
ATOM      4  C   UNL     1      -0.735  -3.902  -8.259  0.00  0.00    +0.166 C 
ATOM      5  H   UNL     1       1.259  -4.221  -8.066  0.00  0.00    +0.163 HD
ATOM      6  H   UNL     1      -1.471  -2.029  -7.835  0.00  0.00    +0.159 HD
ATOM      7  H   UNL     1       0.228  -2.202  -7.603  0.00  0.00    +0.159 HD
ATOM      8  H   UNL     1      -2.066  -5.341  -8.889  0.00  0.00    +0.159 HD
ATOM      9  H   UNL     1      -2.767  -3.805  -8.562  0.00  0.00    +0.159 HD
ENDROOT
BRANCH   1  10
ATOM     10  C   UNL     1       0.383  -6.075  -8.647  0.00  0.00    +0.151 C 
BRANCH  10  11
ATOM     11  C   UNL     1       1.679  -6.683  -8.186  0.00  0.00    -0.028 A 
ATOM     12  C   UNL     1       1.875  -8.071  -8.248  0.00  0.00    +0.005 A 
ATOM     13  C   UNL     1       2.716  -5.878  -7.692  0.00  0.00    +0.005 A 
ATOM     14  C   UNL     1       3.089  -8.634  -7.848  0.00  0.00    +0.000 A 
ATOM     15  C   UNL     1       3.927  -6.444  -7.293  0.00  0.00    +0.000 A 
ATOM     16  C   UNL     1       4.114  -7.822  -7.374  0.00  0.00    +0.000 A 
ENDBRANCH  10  11
ENDBRANCH   1  10
TORSDOF 2
ENDMDL
MODEL 5
REMARK VINA RESULT:    -4.689      3.279      4.954
REMARK INTER + INTRA:          -5.372
REMARK INTER:                  -5.233
REMARK INTRA:                  -0.138
REMARK UNBOUND:                -0.134
REMARK  Name = 1550473
REMARK  2 active torsions:
REMARK  status: ('A' for Active; 'I' for Inactive)
REMARK    1  A    between atoms: N_1  and  C_4
REMARK    2  A    between atoms: C_4  and  C_5
REMARK                            x       y       z     vdW  Elec       q    Type
REMARK                         _______ _______ _______ _____ _____    ______ ____
ROOT
ATOM      1  N   UNL     1       1.060  -6.851  -9.226  0.00  0.00    -0.354 N 
ATOM      2  N   UNL     1      -0.089  -4.964  -9.922  0.00  0.00    -0.372 N 
ATOM      3  N   UNL     1       0.275  -5.276  -7.678  0.00  0.00    -0.372 N 
ATOM      4  C   UNL     1       0.423  -5.709  -8.934  0.00  0.00    +0.166 C 
ATOM      5  H   UNL     1       1.112  -7.139 -10.196  0.00  0.00    +0.163 HD
ATOM      6  H   UNL     1      -0.573  -4.097  -9.733  0.00  0.00    +0.159 HD
ATOM      7  H   UNL     1       0.004  -5.232 -10.894  0.00  0.00    +0.159 HD
ATOM      8  H   UNL     1       0.634  -5.795  -6.887  0.00  0.00    +0.159 HD
ATOM      9  H   UNL     1      -0.215  -4.416  -7.468  0.00  0.00    +0.159 HD
ENDROOT
BRANCH   1  10
ATOM     10  C   UNL     1       1.701  -7.707  -8.229  0.00  0.00    +0.151 C 
BRANCH  10  11
ATOM     11  C   UNL     1       1.331  -9.139  -8.501  0.00  0.00    -0.028 A 
ATOM     12  C   UNL     1       2.301 -10.150  -8.432  0.00  0.00    +0.005 A 
ATOM     13  C   UNL     1       0.012  -9.492  -8.824  0.00  0.00    +0.005 A 
ATOM     14  C   UNL     1       1.952 -11.484  -8.655  0.00  0.00    +0.000 A 
ATOM     15  C   UNL     1      -0.332 -10.825  -9.048  0.00  0.00    +0.000 A 
ATOM     16  C   UNL     1       0.637 -11.821  -8.961  0.00  0.00    +0.000 A 
ENDBRANCH  10  11
ENDBRANCH   1  10
TORSDOF 2
ENDMDL
MODEL 6
REMARK VINA RESULT:    -4.680      5.620      6.791
REMARK INTER + INTRA:          -5.361
REMARK INTER:                  -5.221
REMARK INTRA:                  -0.140
REMARK UNBOUND:                -0.134
REMARK  Name = 1550473
REMARK  2 active torsions:
REMARK  status: ('A' for Active; 'I' for Inactive)
REMARK    1  A    between atoms: N_1  and  C_4
REMARK    2  A    between atoms: C_4  and  C_5
REMARK                            x       y       z     vdW  Elec       q    Type
REMARK                         _______ _______ _______ _____ _____    ______ ____
ROOT
ATOM      1  N   UNL     1       1.035 -11.134  -8.543  0.00  0.00    -0.354 N 
ATOM      2  N   UNL     1       1.082  -9.189  -7.288  0.00  0.00    -0.372 N 
ATOM      3  N   UNL     1       3.061 -10.242  -7.776  0.00  0.00    -0.372 N 
ATOM      4  C   UNL     1       1.729 -10.202  -7.877  0.00  0.00    +0.166 C 
ATOM      5  H   UNL     1       0.024 -11.063  -8.558  0.00  0.00    +0.163 HD
ATOM      6  H   UNL     1       1.579  -8.468  -6.781  0.00  0.00    +0.159 HD
ATOM      7  H   UNL     1       0.075  -9.095  -7.343  0.00  0.00    +0.159 HD
ATOM      8  H   UNL     1       3.608 -10.983  -8.193  0.00  0.00    +0.159 HD
ATOM      9  H   UNL     1       3.575  -9.536  -7.263  0.00  0.00    +0.159 HD
ENDROOT
BRANCH   1  10
ATOM     10  C   UNL     1       1.647 -12.248  -9.265  0.00  0.00    +0.151 C 
BRANCH  10  11
ATOM     11  C   UNL     1       1.028 -12.347 -10.632  0.00  0.00    -0.028 A 
ATOM     12  C   UNL     1       0.242 -11.300 -11.135  0.00  0.00    +0.005 A 
ATOM     13  C   UNL     1       1.229 -13.483 -11.432  0.00  0.00    +0.005 A 
ATOM     14  C   UNL     1      -0.308 -11.378 -12.417  0.00  0.00    +0.000 A 
ATOM     15  C   UNL     1       0.677 -13.557 -12.711  0.00  0.00    +0.000 A 
ATOM     16  C   UNL     1      -0.090 -12.504 -13.204  0.00  0.00    +0.000 A 
ENDBRANCH  10  11
ENDBRANCH   1  10
TORSDOF 2
ENDMDL
MODEL 7
REMARK VINA RESULT:    -4.644     34.659     36.084
REMARK INTER + INTRA:          -5.321
REMARK INTER:                  -5.144
REMARK INTRA:                  -0.177
REMARK UNBOUND:                -0.134
REMARK  Name = 1550473
REMARK  2 active torsions:
REMARK  status: ('A' for Active; 'I' for Inactive)
REMARK    1  A    between atoms: N_1  and  C_4
REMARK    2  A    between atoms: C_4  and  C_5
REMARK                            x       y       z     vdW  Elec       q    Type
REMARK                         _______ _______ _______ _____ _____    ______ ____
ROOT
ATOM      1  N   UNL     1      10.209   8.519  21.935  0.00  0.00    -0.354 N 
ATOM      2  N   UNL     1       9.961   7.679  19.791  0.00  0.00    -0.372 N 
ATOM      3  N   UNL     1      12.077   7.970  20.631  0.00  0.00    -0.372 N 
ATOM      4  C   UNL     1      10.754   8.062  20.800  0.00  0.00    +0.166 C 
ATOM      5  H   UNL     1       9.200   8.592  21.990  0.00  0.00    +0.163 HD
ATOM      6  H   UNL     1      10.343   7.327  18.924  0.00  0.00    +0.159 HD
ATOM      7  H   UNL     1       8.952   7.710  19.865  0.00  0.00    +0.159 HD
ATOM      8  H   UNL     1      12.730   8.248  21.351  0.00  0.00    +0.159 HD
ATOM      9  H   UNL     1      12.478   7.631  19.765  0.00  0.00    +0.159 HD
ENDROOT
BRANCH   1  10
ATOM     10  C   UNL     1      10.982   8.910  23.113  0.00  0.00    +0.151 C 
BRANCH  10  11
ATOM     11  C   UNL     1      11.014  10.411  23.203  0.00  0.00    -0.028 A 
ATOM     12  C   UNL     1       9.854  11.129  23.529  0.00  0.00    +0.005 A 
ATOM     13  C   UNL     1      12.202  11.120  22.969  0.00  0.00    +0.005 A 
ATOM     14  C   UNL     1       9.890  12.521  23.642  0.00  0.00    +0.000 A 
ATOM     15  C   UNL     1      12.234  12.510  23.082  0.00  0.00    +0.000 A 
ATOM     16  C   UNL     1      11.078  13.210  23.421  0.00  0.00    +0.000 A 
ENDBRANCH  10  11
ENDBRANCH   1  10
TORSDOF 2
ENDMDL
MODEL 8
REMARK VINA RESULT:    -4.470     10.862     12.413
REMARK INTER + INTRA:          -5.126
REMARK INTER:                  -4.967
REMARK INTRA:                  -0.160
REMARK UNBOUND:                -0.134
REMARK  Name = 1550473
REMARK  2 active torsions:
REMARK  status: ('A' for Active; 'I' for Inactive)
REMARK    1  A    between atoms: N_1  and  C_4
REMARK    2  A    between atoms: C_4  and  C_5
REMARK                            x       y       z     vdW  Elec       q    Type
REMARK                         _______ _______ _______ _____ _____    ______ ____
ROOT
ATOM      1  N   UNL     1     -11.683  -3.472  -9.297  0.00  0.00    -0.354 N 
ATOM      2  N   UNL     1     -12.184  -1.216  -9.142  0.00  0.00    -0.372 N 
ATOM      3  N   UNL     1     -10.357  -2.026  -8.015  0.00  0.00    -0.372 N 
ATOM      4  C   UNL     1     -11.403  -2.253  -8.817  0.00  0.00    +0.166 C 
ATOM      5  H   UNL     1     -12.507  -3.584  -9.875  0.00  0.00    +0.163 HD
ATOM      6  H   UNL     1     -11.996  -0.284  -8.798  0.00  0.00    +0.159 HD
ATOM      7  H   UNL     1     -12.982  -1.322  -9.757  0.00  0.00    +0.159 HD
ATOM      8  H   UNL     1      -9.731  -2.767  -7.728  0.00  0.00    +0.159 HD
ATOM      9  H   UNL     1     -10.158  -1.102  -7.651  0.00  0.00    +0.159 HD
ENDROOT
BRANCH   1  10
ATOM     10  C   UNL     1     -10.864  -4.657  -9.047  0.00  0.00    +0.151 C 
BRANCH  10  11
ATOM     11  C   UNL     1      -9.884  -4.824 -10.176  0.00  0.00    -0.028 A 
ATOM     12  C   UNL     1     -10.286  -5.406 -11.387  0.00  0.00    +0.005 A 
ATOM     13  C   UNL     1      -8.554  -4.396 -10.043  0.00  0.00    +0.005 A 
ATOM     14  C   UNL     1      -9.384  -5.534 -12.446  0.00  0.00    +0.000 A 
ATOM     15  C   UNL     1      -7.657  -4.526 -11.102  0.00  0.00    +0.000 A 
ATOM     16  C   UNL     1      -8.073  -5.093 -12.305  0.00  0.00    +0.000 A 
ENDBRANCH  10  11
ENDBRANCH   1  10
TORSDOF 2
ENDMDL
MODEL 9
REMARK VINA RESULT:    -4.353      2.663      3.548
REMARK INTER + INTRA:          -4.996
REMARK INTER:                  -4.860
REMARK INTRA:                  -0.136
REMARK UNBOUND:                -0.134
REMARK  Name = 1550473
REMARK  2 active torsions:
REMARK  status: ('A' for Active; 'I' for Inactive)
REMARK    1  A    between atoms: N_1  and  C_4
REMARK    2  A    between atoms: C_4  and  C_5
REMARK                            x       y       z     vdW  Elec       q    Type
REMARK                         _______ _______ _______ _____ _____    ______ ____
ROOT
ATOM      1  N   UNL     1       3.218  -7.416  -8.988  0.00  0.00    -0.354 N 
ATOM      2  N   UNL     1       3.624  -5.582  -7.633  0.00  0.00    -0.372 N 
ATOM      3  N   UNL     1       3.722  -7.683  -6.715  0.00  0.00    -0.372 N 
ATOM      4  C   UNL     1       3.519  -6.908  -7.785  0.00  0.00    +0.166 C 
ATOM      5  H   UNL     1       3.046  -6.774  -9.753  0.00  0.00    +0.163 HD
ATOM      6  H   UNL     1       3.853  -5.170  -6.738  0.00  0.00    +0.159 HD
ATOM      7  H   UNL     1       3.496  -4.945  -8.409  0.00  0.00    +0.159 HD
ATOM      8  H   UNL     1       3.652  -8.691  -6.762  0.00  0.00    +0.159 HD
ATOM      9  H   UNL     1       3.941  -7.288  -5.808  0.00  0.00    +0.159 HD
ENDROOT
BRANCH   1  10
ATOM     10  C   UNL     1       3.133  -8.848  -9.272  0.00  0.00    +0.151 C 
BRANCH  10  11
ATOM     11  C   UNL     1       1.689  -9.268  -9.252  0.00  0.00    -0.028 A 
ATOM     12  C   UNL     1       1.338 -10.597  -8.975  0.00  0.00    +0.005 A 
ATOM     13  C   UNL     1       0.667  -8.340  -9.503  0.00  0.00    +0.005 A 
ATOM     14  C   UNL     1      -0.004 -10.981  -8.926  0.00  0.00    +0.000 A 
ATOM     15  C   UNL     1      -0.672  -8.727  -9.454  0.00  0.00    +0.000 A 
ATOM     16  C   UNL     1      -1.007 -10.047  -9.163  0.00  0.00    +0.000 A 
ENDBRANCH  10  11
ENDBRANCH   1  10
TORSDOF 2
ENDMDL
