MODEL 1
REMARK VINA RESULT:    -5.201      0.000      0.000
REMARK INTER + INTRA:          -5.936
REMARK INTER:                  -5.809
REMARK INTRA:                  -0.127
REMARK UNBOUND:                -0.127
REMARK  Name = 1550473
REMARK  2 active torsions:
REMARK  status: ('A' for Active; 'I' for Inactive)
REMARK    1  A    between atoms: N_1  and  C_4
REMARK    2  A    between atoms: C_4  and  C_5
REMARK                            x       y       z     vdW  Elec       q    Type
REMARK                         _______ _______ _______ _____ _____    ______ ____
ROOT
ATOM      1  N   UNL     1       2.718  -2.146  15.508  0.00  0.00    -0.354 N 
ATOM      2  N   UNL     1       2.082  -0.079  14.678  0.00  0.00    -0.372 N 
ATOM      3  N   UNL     1       2.894  -0.212  16.820  0.00  0.00    -0.372 N 
ATOM      4  C   UNL     1       2.570  -0.825  15.677  0.00  0.00    +0.166 C 
ATOM      5  H   UNL     1       2.425  -2.555  14.628  0.00  0.00    +0.163 HD
ATOM      6  H   UNL     1       1.962   0.920  14.775  0.00  0.00    +0.159 HD
ATOM      7  H   UNL     1       1.833  -0.483  13.784  0.00  0.00    +0.159 HD
ATOM      8  H   UNL     1       3.262  -0.720  17.614  0.00  0.00    +0.159 HD
ATOM      9  H   UNL     1       2.771   0.785  16.940  0.00  0.00    +0.159 HD
ENDROOT
BRANCH   1  10
ATOM     10  C   UNL     1       3.290  -3.040  16.513  0.00  0.00    +0.151 C 
BRANCH  10  11
ATOM     11  C   UNL     1       4.070  -4.123  15.821  0.00  0.00    -0.028 A 
ATOM     12  C   UNL     1       5.049  -4.849  16.514  0.00  0.00    +0.005 A 
ATOM     13  C   UNL     1       3.831  -4.432  14.473  0.00  0.00    +0.005 A 
ATOM     14  C   UNL     1       5.753  -5.876  15.879  0.00  0.00    +0.000 A 
ATOM     15  C   UNL     1       4.536  -5.457  13.843  0.00  0.00    +0.000 A 
ATOM     16  C   UNL     1       5.496  -6.180  14.547  0.00  0.00    +0.000 A 
ENDBRANCH  10  11
ENDBRANCH   1  10
TORSDOF 2
ENDMDL
MODEL 2
REMARK VINA RESULT:    -4.995     24.042     24.851
REMARK INTER + INTRA:          -5.707
REMARK INTER:                  -5.577
REMARK INTRA:                  -0.130
REMARK UNBOUND:                -0.127
REMARK  Name = 1550473
REMARK  2 active torsions:
REMARK  status: ('A' for Active; 'I' for Inactive)
REMARK    1  A    between atoms: N_1  and  C_4
REMARK    2  A    between atoms: C_4  and  C_5
REMARK                            x       y       z     vdW  Elec       q    Type
REMARK                         _______ _______ _______ _____ _____    ______ ____
ROOT
ATOM      1  N   UNL     1      -3.330  12.820  -2.339  0.00  0.00    -0.354 N 
ATOM      2  N   UNL     1      -5.277  12.031  -1.365  0.00  0.00    -0.372 N 
ATOM      3  N   UNL     1      -4.729  11.324  -3.478  0.00  0.00    -0.372 N 
ATOM      4  C   UNL     1      -4.433  12.062  -2.403  0.00  0.00    +0.166 C 
ATOM      5  H   UNL     1      -3.178  13.380  -1.508  0.00  0.00    +0.163 HD
ATOM      6  H   UNL     1      -6.115  11.465  -1.382  0.00  0.00    +0.159 HD
ATOM      7  H   UNL     1      -5.099  12.555  -0.517  0.00  0.00    +0.159 HD
ATOM      8  H   UNL     1      -4.136  11.309  -4.297  0.00  0.00    +0.159 HD
ATOM      9  H   UNL     1      -5.569  10.761  -3.519  0.00  0.00    +0.159 HD
ENDROOT
BRANCH   1  10
ATOM     10  C   UNL     1      -2.319  12.883  -3.393  0.00  0.00    +0.151 C 
BRANCH  10  11
ATOM     11  C   UNL     1      -0.954  12.931  -2.763  0.00  0.00    -0.028 A 
ATOM     12  C   UNL     1       0.180  12.547  -3.493  0.00  0.00    +0.005 A 
ATOM     13  C   UNL     1      -0.789  13.365  -1.439  0.00  0.00    +0.005 A 
ATOM     14  C   UNL     1       1.452  12.620  -2.917  0.00  0.00    +0.000 A 
ATOM     15  C   UNL     1       0.482  13.435  -0.868  0.00  0.00    +0.000 A 
ATOM     16  C   UNL     1       1.602  13.065  -1.608  0.00  0.00    +0.000 A 
ENDBRANCH  10  11
ENDBRANCH   1  10
TORSDOF 2
ENDMDL
MODEL 3
REMARK VINA RESULT:    -4.876     25.655     26.662
REMARK INTER + INTRA:          -5.573
REMARK INTER:                  -5.415
REMARK INTRA:                  -0.158
REMARK UNBOUND:                -0.127
REMARK  Name = 1550473
REMARK  2 active torsions:
REMARK  status: ('A' for Active; 'I' for Inactive)
REMARK    1  A    between atoms: N_1  and  C_4
REMARK    2  A    between atoms: C_4  and  C_5
REMARK                            x       y       z     vdW  Elec       q    Type
REMARK                         _______ _______ _______ _____ _____    ______ ____
ROOT
ATOM      1  N   UNL     1       4.322   2.414 -10.204  0.00  0.00    -0.354 N 
ATOM      2  N   UNL     1       3.777   3.534  -8.251  0.00  0.00    -0.372 N 
ATOM      3  N   UNL     1       2.289   3.562  -9.998  0.00  0.00    -0.372 N 
ATOM      4  C   UNL     1       3.464   3.163  -9.499  0.00  0.00    +0.166 C 
ATOM      5  H   UNL     1       5.209   2.171  -9.779  0.00  0.00    +0.163 HD
ATOM      6  H   UNL     1       3.148   4.096  -7.694  0.00  0.00    +0.159 HD
ATOM      7  H   UNL     1       4.645   3.251  -7.813  0.00  0.00    +0.159 HD
ATOM      8  H   UNL     1       1.996   3.320 -10.935  0.00  0.00    +0.159 HD
ATOM      9  H   UNL     1       1.651   4.135  -9.459  0.00  0.00    +0.159 HD
ENDROOT
BRANCH   1  10
ATOM     10  C   UNL     1       4.053   1.912 -11.550  0.00  0.00    +0.151 C 
BRANCH  10  11
ATOM     11  C   UNL     1       4.043   0.409 -11.521  0.00  0.00    -0.028 A 
ATOM     12  C   UNL     1       2.969  -0.284 -10.942  0.00  0.00    +0.005 A 
ATOM     13  C   UNL     1       5.100  -0.328 -12.076  0.00  0.00    +0.005 A 
ATOM     14  C   UNL     1       2.945  -1.681 -10.942  0.00  0.00    +0.000 A 
ATOM     15  C   UNL     1       5.072  -1.723 -12.073  0.00  0.00    +0.000 A 
ATOM     16  C   UNL     1       3.993  -2.399 -11.508  0.00  0.00    +0.000 A 
ENDBRANCH  10  11
ENDBRANCH   1  10
TORSDOF 2
ENDMDL
MODEL 4
REMARK VINA RESULT:    -4.756      8.598      9.756
REMARK INTER + INTRA:          -5.439
REMARK INTER:                  -5.335
REMARK INTRA:                  -0.104
REMARK UNBOUND:                -0.127
REMARK  Name = 1550473
REMARK  2 active torsions:
REMARK  status: ('A' for Active; 'I' for Inactive)
REMARK    1  A    between atoms: N_1  and  C_4
REMARK    2  A    between atoms: C_4  and  C_5
REMARK                            x       y       z     vdW  Elec       q    Type
REMARK                         _______ _______ _______ _____ _____    ______ ____
ROOT
ATOM      1  N   UNL     1       9.184  -4.187  10.347  0.00  0.00    -0.354 N 
ATOM      2  N   UNL     1       9.134  -5.795  12.013  0.00  0.00    -0.372 N 
ATOM      3  N   UNL     1       7.449  -5.758  10.456  0.00  0.00    -0.372 N 
ATOM      4  C   UNL     1       8.586  -5.237  10.926  0.00  0.00    +0.166 C 
ATOM      5  H   UNL     1      10.028  -3.820  10.770  0.00  0.00    +0.163 HD
ATOM      6  H   UNL     1       8.708  -6.590  12.470  0.00  0.00    +0.159 HD
ATOM      7  H   UNL     1      10.002  -5.455  12.406  0.00  0.00    +0.159 HD
ATOM      8  H   UNL     1       6.982  -5.379   9.642  0.00  0.00    +0.159 HD
ATOM      9  H   UNL     1       7.001  -6.547  10.906  0.00  0.00    +0.159 HD
ENDROOT
BRANCH   1  10
ATOM     10  C   UNL     1       8.699  -3.540   9.129  0.00  0.00    +0.151 C 
BRANCH  10  11
ATOM     11  C   UNL     1       9.876  -3.136   8.285  0.00  0.00    -0.028 A 
ATOM     12  C   UNL     1      10.657  -2.025   8.636  0.00  0.00    +0.005 A 
ATOM     13  C   UNL     1      10.220  -3.865   7.135  0.00  0.00    +0.005 A 
ATOM     14  C   UNL     1      11.768  -1.668   7.869  0.00  0.00    +0.000 A 
ATOM     15  C   UNL     1      11.331  -3.504   6.372  0.00  0.00    +0.000 A 
ATOM     16  C   UNL     1      12.106  -2.407   6.741  0.00  0.00    +0.000 A 
ENDBRANCH  10  11
ENDBRANCH   1  10
TORSDOF 2
ENDMDL
MODEL 5
REMARK VINA RESULT:    -4.657     14.693     15.909
REMARK INTER + INTRA:          -5.328
REMARK INTER:                  -5.207
REMARK INTRA:                  -0.122
REMARK UNBOUND:                -0.127
REMARK  Name = 1550473
REMARK  2 active torsions:
REMARK  status: ('A' for Active; 'I' for Inactive)
REMARK    1  A    between atoms: N_1  and  C_4
REMARK    2  A    between atoms: C_4  and  C_5
REMARK                            x       y       z     vdW  Elec       q    Type
REMARK                         _______ _______ _______ _____ _____    ______ ____
ROOT
ATOM      1  N   UNL     1     -11.609  -2.961   8.198  0.00  0.00    -0.354 N 
ATOM      2  N   UNL     1     -12.970  -3.633   6.448  0.00  0.00    -0.372 N 
ATOM      3  N   UNL     1     -13.551  -1.769   7.652  0.00  0.00    -0.372 N 
ATOM      4  C   UNL     1     -12.703  -2.781   7.445  0.00  0.00    +0.166 C 
ATOM      5  H   UNL     1     -11.022  -3.766   8.010  0.00  0.00    +0.163 HD
ATOM      6  H   UNL     1     -13.785  -3.521   5.861  0.00  0.00    +0.159 HD
ATOM      7  H   UNL     1     -12.356  -4.410   6.233  0.00  0.00    +0.159 HD
ATOM      8  H   UNL     1     -13.410  -1.094   8.392  0.00  0.00    +0.159 HD
ATOM      9  H   UNL     1     -14.379  -1.646   7.083  0.00  0.00    +0.159 HD
ENDROOT
BRANCH   1  10
ATOM     10  C   UNL     1     -11.200  -2.060   9.274  0.00  0.00    +0.151 C 
BRANCH  10  11
ATOM     11  C   UNL     1     -10.057  -2.683  10.028  0.00  0.00    -0.028 A 
ATOM     12  C   UNL     1      -9.653  -2.161  11.266  0.00  0.00    +0.005 A 
ATOM     13  C   UNL     1      -9.379  -3.798   9.513  0.00  0.00    +0.005 A 
ATOM     14  C   UNL     1      -8.612  -2.757  11.981  0.00  0.00    +0.000 A 
ATOM     15  C   UNL     1      -8.339  -4.390  10.230  0.00  0.00    +0.000 A 
ATOM     16  C   UNL     1      -7.958  -3.871  11.465  0.00  0.00    +0.000 A 
ENDBRANCH  10  11
ENDBRANCH   1  10
TORSDOF 2
ENDMDL
MODEL 6
REMARK VINA RESULT:    -4.642      1.960      2.321
REMARK INTER + INTRA:          -5.312
REMARK INTER:                  -5.133
REMARK INTRA:                  -0.179
REMARK UNBOUND:                -0.127
REMARK  Name = 1550473
REMARK  2 active torsions:
REMARK  status: ('A' for Active; 'I' for Inactive)
REMARK    1  A    between atoms: N_1  and  C_4
REMARK    2  A    between atoms: C_4  and  C_5
REMARK                            x       y       z     vdW  Elec       q    Type
REMARK                         _______ _______ _______ _____ _____    ______ ____
ROOT
ATOM      1  N   UNL     1       3.305  -2.211  15.534  0.00  0.00    -0.354 N 
ATOM      2  N   UNL     1       2.219  -0.214  15.091  0.00  0.00    -0.372 N 
ATOM      3  N   UNL     1       1.653  -1.389  16.978  0.00  0.00    -0.372 N 
ATOM      4  C   UNL     1       2.398  -1.285  15.873  0.00  0.00    +0.166 C 
ATOM      5  H   UNL     1       3.817  -2.089  14.667  0.00  0.00    +0.163 HD
ATOM      6  H   UNL     1       1.544   0.503  15.323  0.00  0.00    +0.159 HD
ATOM      7  H   UNL     1       2.764  -0.071  14.249  0.00  0.00    +0.159 HD
ATOM      8  H   UNL     1       1.736  -2.176  17.608  0.00  0.00    +0.159 HD
ATOM      9  H   UNL     1       0.965  -0.688  17.221  0.00  0.00    +0.159 HD
ENDROOT
BRANCH   1  10
ATOM     10  C   UNL     1       3.616  -3.387  16.344  0.00  0.00    +0.151 C 
BRANCH  10  11
ATOM     11  C   UNL     1       2.870  -4.572  15.795  0.00  0.00    -0.028 A 
ATOM     12  C   UNL     1       1.929  -5.249  16.584  0.00  0.00    +0.005 A 
ATOM     13  C   UNL     1       3.096  -5.020  14.485  0.00  0.00    +0.005 A 
ATOM     14  C   UNL     1       1.214  -6.331  16.065  0.00  0.00    +0.000 A 
ATOM     15  C   UNL     1       2.382  -6.101  13.970  0.00  0.00    +0.000 A 
ATOM     16  C   UNL     1       1.439  -6.755  14.760  0.00  0.00    +0.000 A 
ENDBRANCH  10  11
ENDBRANCH   1  10
TORSDOF 2
ENDMDL
MODEL 7
REMARK VINA RESULT:    -4.574      3.577      5.387
REMARK INTER + INTRA:          -5.236
REMARK INTER:                  -5.114
REMARK INTRA:                  -0.122
REMARK UNBOUND:                -0.127
REMARK  Name = 1550473
REMARK  2 active torsions:
REMARK  status: ('A' for Active; 'I' for Inactive)
REMARK    1  A    between atoms: N_1  and  C_4
REMARK    2  A    between atoms: C_4  and  C_5
REMARK                            x       y       z     vdW  Elec       q    Type
REMARK                         _______ _______ _______ _____ _____    ______ ____
ROOT
ATOM      1  N   UNL     1       2.202  -1.053  17.128  0.00  0.00    -0.354 N 
ATOM      2  N   UNL     1       2.166  -0.152  14.995  0.00  0.00    -0.372 N 
ATOM      3  N   UNL     1       3.220  -2.162  15.332  0.00  0.00    -0.372 N 
ATOM      4  C   UNL     1       2.531  -1.131  15.832  0.00  0.00    +0.166 C 
ATOM      5  H   UNL     1       1.705  -0.230  17.450  0.00  0.00    +0.163 HD
ATOM      6  H   UNL     1       2.397  -0.185  14.011  0.00  0.00    +0.159 HD
ATOM      7  H   UNL     1       1.629   0.647  15.311  0.00  0.00    +0.159 HD
ATOM      8  H   UNL     1       3.530  -2.930  15.912  0.00  0.00    +0.159 HD
ATOM      9  H   UNL     1       3.471  -2.207  14.353  0.00  0.00    +0.159 HD
ENDROOT
BRANCH   1  10
ATOM     10  C   UNL     1       2.505  -2.090  18.112  0.00  0.00    +0.151 C 
BRANCH  10  11
ATOM     11  C   UNL     1       1.221  -2.570  18.731  0.00  0.00    -0.028 A 
ATOM     12  C   UNL     1       0.025  -2.546  17.999  0.00  0.00    +0.005 A 
ATOM     13  C   UNL     1       1.195  -3.056  20.048  0.00  0.00    +0.005 A 
ATOM     14  C   UNL     1      -1.162  -3.020  18.563  0.00  0.00    +0.000 A 
ATOM     15  C   UNL     1       0.007  -3.527  20.608  0.00  0.00    +0.000 A 
ATOM     16  C   UNL     1      -1.170  -3.511  19.864  0.00  0.00    +0.000 A 
ENDBRANCH  10  11
ENDBRANCH   1  10
TORSDOF 2
ENDMDL
MODEL 8
REMARK VINA RESULT:    -4.489     13.717     14.918
REMARK INTER + INTRA:          -5.140
REMARK INTER:                  -5.040
REMARK INTRA:                  -0.100
REMARK UNBOUND:                -0.127
REMARK  Name = 1550473
REMARK  2 active torsions:
REMARK  status: ('A' for Active; 'I' for Inactive)
REMARK    1  A    between atoms: N_1  and  C_4
REMARK    2  A    between atoms: C_4  and  C_5
REMARK                            x       y       z     vdW  Elec       q    Type
REMARK                         _______ _______ _______ _____ _____    ______ ____
ROOT
ATOM      1  N   UNL     1       3.233  10.891   8.616  0.00  0.00    -0.354 N 
ATOM      2  N   UNL     1       2.905  12.434   6.921  0.00  0.00    -0.372 N 
ATOM      3  N   UNL     1       4.432  10.751   6.608  0.00  0.00    -0.372 N 
ATOM      4  C   UNL     1       3.527  11.347   7.392  0.00  0.00    +0.166 C 
ATOM      5  H   UNL     1       2.560  11.406   9.173  0.00  0.00    +0.163 HD
ATOM      6  H   UNL     1       3.104  12.800   5.999  0.00  0.00    +0.159 HD
ATOM      7  H   UNL     1       2.199  12.920   7.461  0.00  0.00    +0.159 HD
ATOM      8  H   UNL     1       4.941   9.930   6.907  0.00  0.00    +0.159 HD
ATOM      9  H   UNL     1       4.653  11.108   5.687  0.00  0.00    +0.159 HD
ENDROOT
BRANCH   1  10
ATOM     10  C   UNL     1       3.815   9.684   9.202  0.00  0.00    +0.151 C 
BRANCH  10  11
ATOM     11  C   UNL     1       3.084   9.354  10.474  0.00  0.00    -0.028 A 
ATOM     12  C   UNL     1       1.726   9.004  10.444  0.00  0.00    +0.005 A 
ATOM     13  C   UNL     1       3.745   9.383  11.711  0.00  0.00    +0.005 A 
ATOM     14  C   UNL     1       1.054   8.668  11.622  0.00  0.00    +0.000 A 
ATOM     15  C   UNL     1       3.071   9.048  12.885  0.00  0.00    +0.000 A 
ATOM     16  C   UNL     1       1.726   8.687  12.840  0.00  0.00    +0.000 A 
ENDBRANCH  10  11
ENDBRANCH   1  10
TORSDOF 2
ENDMDL
MODEL 9
REMARK VINA RESULT:    -4.486     20.427     21.490
REMARK INTER + INTRA:          -5.137
REMARK INTER:                  -4.956
REMARK INTRA:                  -0.181
REMARK UNBOUND:                -0.127
REMARK  Name = 1550473
REMARK  2 active torsions:
REMARK  status: ('A' for Active; 'I' for Inactive)
REMARK    1  A    between atoms: N_1  and  C_4
REMARK    2  A    between atoms: C_4  and  C_5
REMARK                            x       y       z     vdW  Elec       q    Type
REMARK                         _______ _______ _______ _____ _____    ______ ____
ROOT
ATOM      1  N   UNL     1      14.864  -7.315  -2.828  0.00  0.00    -0.354 N 
ATOM      2  N   UNL     1      16.004  -7.143  -0.819  0.00  0.00    -0.372 N 
ATOM      3  N   UNL     1      14.037  -5.990  -1.080  0.00  0.00    -0.372 N 
ATOM      4  C   UNL     1      14.959  -6.815  -1.588  0.00  0.00    +0.166 C 
ATOM      5  H   UNL     1      15.611  -7.911  -3.165  0.00  0.00    +0.163 HD
ATOM      6  H   UNL     1      16.101  -6.784   0.122  0.00  0.00    +0.159 HD
ATOM      7  H   UNL     1      16.726  -7.775  -1.142  0.00  0.00    +0.159 HD
ATOM      8  H   UNL     1      13.228  -5.699  -1.611  0.00  0.00    +0.159 HD
ATOM      9  H   UNL     1      14.123  -5.612  -0.145  0.00  0.00    +0.159 HD
ENDROOT
BRANCH   1  10
ATOM     10  C   UNL     1      13.739  -7.063  -3.727  0.00  0.00    +0.151 C 
BRANCH  10  11
ATOM     11  C   UNL     1      12.836  -8.266  -3.732  0.00  0.00    -0.028 A 
ATOM     12  C   UNL     1      11.687  -8.296  -2.929  0.00  0.00    +0.005 A 
ATOM     13  C   UNL     1      13.121  -9.375  -4.542  0.00  0.00    +0.005 A 
ATOM     14  C   UNL     1      10.831  -9.401  -2.956  0.00  0.00    +0.000 A 
ATOM     15  C   UNL     1      12.265 -10.476  -4.566  0.00  0.00    +0.000 A 
ATOM     16  C   UNL     1      11.119 -10.488  -3.775  0.00  0.00    +0.000 A 
ENDBRANCH  10  11
ENDBRANCH   1  10
TORSDOF 2
ENDMDL
