MODEL 1
REMARK VINA RESULT:    -6.228      0.000      0.000
REMARK INTER + INTRA:          -7.062
REMARK INTER:                  -6.956
REMARK INTRA:                  -0.107
REMARK UNBOUND:                -0.107
REMARK  Name = 1550473
REMARK  2 active torsions:
REMARK  status: ('A' for Active; 'I' for Inactive)
REMARK    1  A    between atoms: N_1  and  C_4
REMARK    2  A    between atoms: C_4  and  C_5
REMARK                            x       y       z     vdW  Elec       q    Type
REMARK                         _______ _______ _______ _____ _____    ______ ____
ROOT
ATOM      1  N   UNL     1      -4.834  -2.397  -5.171  0.00  0.00    -0.354 N 
ATOM      2  N   UNL     1      -5.952  -1.284  -3.476  0.00  0.00    -0.372 N 
ATOM      3  N   UNL     1      -4.870  -0.056  -5.083  0.00  0.00    -0.372 N 
ATOM      4  C   UNL     1      -5.210  -1.251  -4.589  0.00  0.00    +0.166 C 
ATOM      5  H   UNL     1      -5.099  -3.271  -4.730  0.00  0.00    +0.163 HD
ATOM      6  H   UNL     1      -6.254  -0.436  -3.016  0.00  0.00    +0.159 HD
ATOM      7  H   UNL     1      -6.254  -2.158  -3.063  0.00  0.00    +0.159 HD
ATOM      8  H   UNL     1      -4.306   0.038  -5.917  0.00  0.00    +0.159 HD
ATOM      9  H   UNL     1      -5.153   0.805  -4.631  0.00  0.00    +0.159 HD
ENDROOT
BRANCH   1  10
ATOM     10  C   UNL     1      -4.070  -2.470  -6.416  0.00  0.00    +0.151 C 
BRANCH  10  11
ATOM     11  C   UNL     1      -4.999  -2.836  -7.541  0.00  0.00    -0.028 A 
ATOM     12  C   UNL     1      -4.886  -4.079  -8.181  0.00  0.00    +0.005 A 
ATOM     13  C   UNL     1      -5.997  -1.947  -7.967  0.00  0.00    +0.005 A 
ATOM     14  C   UNL     1      -5.767  -4.431  -9.206  0.00  0.00    +0.000 A 
ATOM     15  C   UNL     1      -6.875  -2.302  -8.991  0.00  0.00    +0.000 A 
ATOM     16  C   UNL     1      -6.761  -3.545  -9.609  0.00  0.00    +0.000 A 
ENDBRANCH  10  11
ENDBRANCH   1  10
TORSDOF 2
ENDMDL
MODEL 2
REMARK VINA RESULT:    -6.145     21.588     22.927
REMARK INTER + INTRA:          -6.970
REMARK INTER:                  -6.813
REMARK INTRA:                  -0.157
REMARK UNBOUND:                -0.107
REMARK  Name = 1550473
REMARK  2 active torsions:
REMARK  status: ('A' for Active; 'I' for Inactive)
REMARK    1  A    between atoms: N_1  and  C_4
REMARK    2  A    between atoms: C_4  and  C_5
REMARK                            x       y       z     vdW  Elec       q    Type
REMARK                         _______ _______ _______ _____ _____    ______ ____
ROOT
ATOM      1  N   UNL     1      15.810  -5.999   2.549  0.00  0.00    -0.354 N 
ATOM      2  N   UNL     1      17.129  -4.182   3.119  0.00  0.00    -0.372 N 
ATOM      3  N   UNL     1      15.141  -3.813   2.035  0.00  0.00    -0.372 N 
ATOM      4  C   UNL     1      16.016  -4.675   2.562  0.00  0.00    +0.166 C 
ATOM      5  H   UNL     1      16.526  -6.601   2.939  0.00  0.00    +0.163 HD
ATOM      6  H   UNL     1      17.310  -3.188   3.147  0.00  0.00    +0.159 HD
ATOM      7  H   UNL     1      17.821  -4.784   3.548  0.00  0.00    +0.159 HD
ATOM      8  H   UNL     1      14.284  -4.121   1.595  0.00  0.00    +0.159 HD
ATOM      9  H   UNL     1      15.310  -2.815   2.042  0.00  0.00    +0.159 HD
ENDROOT
BRANCH   1  10
ATOM     10  C   UNL     1      14.606  -6.634   2.016  0.00  0.00    +0.151 C 
BRANCH  10  11
ATOM     11  C   UNL     1      13.793  -7.181   3.157  0.00  0.00    -0.028 A 
ATOM     12  C   UNL     1      12.412  -6.945   3.226  0.00  0.00    +0.005 A 
ATOM     13  C   UNL     1      14.397  -7.942   4.170  0.00  0.00    +0.005 A 
ATOM     14  C   UNL     1      11.652  -7.479   4.269  0.00  0.00    +0.000 A 
ATOM     15  C   UNL     1      13.635  -8.473   5.210  0.00  0.00    +0.000 A 
ATOM     16  C   UNL     1      12.262  -8.243   5.258  0.00  0.00    +0.000 A 
ENDBRANCH  10  11
ENDBRANCH   1  10
TORSDOF 2
ENDMDL
MODEL 3
REMARK VINA RESULT:    -6.094     22.490     23.949
REMARK INTER + INTRA:          -6.914
REMARK INTER:                  -6.802
REMARK INTRA:                  -0.112
REMARK UNBOUND:                -0.107
REMARK  Name = 1550473
REMARK  2 active torsions:
REMARK  status: ('A' for Active; 'I' for Inactive)
REMARK    1  A    between atoms: N_1  and  C_4
REMARK    2  A    between atoms: C_4  and  C_5
REMARK                            x       y       z     vdW  Elec       q    Type
REMARK                         _______ _______ _______ _____ _____    ______ ____
ROOT
ATOM      1  N   UNL     1      16.805  -7.879   3.550  0.00  0.00    -0.354 N 
ATOM      2  N   UNL     1      18.313  -6.127   3.400  0.00  0.00    -0.372 N 
ATOM      3  N   UNL     1      17.223  -6.486   5.388  0.00  0.00    -0.372 N 
ATOM      4  C   UNL     1      17.436  -6.842   4.116  0.00  0.00    +0.166 C 
ATOM      5  H   UNL     1      16.987  -8.078   2.573  0.00  0.00    +0.163 HD
ATOM      6  H   UNL     1      18.807  -5.342   3.802  0.00  0.00    +0.159 HD
ATOM      7  H   UNL     1      18.528  -6.358   2.438  0.00  0.00    +0.159 HD
ATOM      8  H   UNL     1      16.570  -6.981   5.980  0.00  0.00    +0.159 HD
ATOM      9  H   UNL     1      17.699  -5.695   5.804  0.00  0.00    +0.159 HD
ENDROOT
BRANCH   1  10
ATOM     10  C   UNL     1      15.872  -8.754   4.258  0.00  0.00    +0.151 C 
BRANCH  10  11
ATOM     11  C   UNL     1      14.480  -8.200   4.123  0.00  0.00    -0.028 A 
ATOM     12  C   UNL     1      14.084  -7.548   2.946  0.00  0.00    +0.005 A 
ATOM     13  C   UNL     1      13.550  -8.329   5.166  0.00  0.00    +0.005 A 
ATOM     14  C   UNL     1      12.783  -7.060   2.808  0.00  0.00    +0.000 A 
ATOM     15  C   UNL     1      12.252  -7.840   5.025  0.00  0.00    +0.000 A 
ATOM     16  C   UNL     1      11.868  -7.207   3.845  0.00  0.00    +0.000 A 
ENDBRANCH  10  11
ENDBRANCH   1  10
TORSDOF 2
ENDMDL
MODEL 4
REMARK VINA RESULT:    -5.939     21.614     23.223
REMARK INTER + INTRA:          -6.740
REMARK INTER:                  -6.595
REMARK INTRA:                  -0.145
REMARK UNBOUND:                -0.107
REMARK  Name = 1550473
REMARK  2 active torsions:
REMARK  status: ('A' for Active; 'I' for Inactive)
REMARK    1  A    between atoms: N_1  and  C_4
REMARK    2  A    between atoms: C_4  and  C_5
REMARK                            x       y       z     vdW  Elec       q    Type
REMARK                         _______ _______ _______ _____ _____    ______ ____
ROOT
ATOM      1  N   UNL     1      12.968  -7.439   3.115  0.00  0.00    -0.354 N 
ATOM      2  N   UNL     1      11.033  -6.929   4.282  0.00  0.00    -0.372 N 
ATOM      3  N   UNL     1      12.551  -8.369   5.225  0.00  0.00    -0.372 N 
ATOM      4  C   UNL     1      12.198  -7.584   4.202  0.00  0.00    +0.166 C 
ATOM      5  H   UNL     1      12.630  -6.853   2.360  0.00  0.00    +0.163 HD
ATOM      6  H   UNL     1      10.433  -7.017   5.091  0.00  0.00    +0.159 HD
ATOM      7  H   UNL     1      10.719  -6.308   3.546  0.00  0.00    +0.159 HD
ATOM      8  H   UNL     1      13.414  -8.895   5.224  0.00  0.00    +0.159 HD
ATOM      9  H   UNL     1      11.958  -8.479   6.038  0.00  0.00    +0.159 HD
ENDROOT
BRANCH   1  10
ATOM     10  C   UNL     1      14.279  -8.066   2.952  0.00  0.00    +0.151 C 
BRANCH  10  11
ATOM     11  C   UNL     1      15.317  -6.993   2.772  0.00  0.00    -0.028 A 
ATOM     12  C   UNL     1      14.995  -5.793   2.121  0.00  0.00    +0.005 A 
ATOM     13  C   UNL     1      16.623  -7.168   3.255  0.00  0.00    +0.005 A 
ATOM     14  C   UNL     1      15.951  -4.784   1.980  0.00  0.00    +0.000 A 
ATOM     15  C   UNL     1      17.575  -6.159   3.111  0.00  0.00    +0.000 A 
ATOM     16  C   UNL     1      17.238  -4.966   2.476  0.00  0.00    +0.000 A 
ENDBRANCH  10  11
ENDBRANCH   1  10
TORSDOF 2
ENDMDL
MODEL 5
REMARK VINA RESULT:    -5.641     23.159     24.471
REMARK INTER + INTRA:          -6.407
REMARK INTER:                  -6.272
REMARK INTRA:                  -0.136
REMARK UNBOUND:                -0.107
REMARK  Name = 1550473
REMARK  2 active torsions:
REMARK  status: ('A' for Active; 'I' for Inactive)
REMARK    1  A    between atoms: N_1  and  C_4
REMARK    2  A    between atoms: C_4  and  C_5
REMARK                            x       y       z     vdW  Elec       q    Type
REMARK                         _______ _______ _______ _____ _____    ______ ____
ROOT
ATOM      1  N   UNL     1      17.358  -4.153   2.938  0.00  0.00    -0.354 N 
ATOM      2  N   UNL     1      19.381  -3.080   3.278  0.00  0.00    -0.372 N 
ATOM      3  N   UNL     1      18.517  -3.170   1.154  0.00  0.00    -0.372 N 
ATOM      4  C   UNL     1      18.405  -3.475   2.451  0.00  0.00    +0.166 C 
ATOM      5  H   UNL     1      17.347  -4.378   3.926  0.00  0.00    +0.163 HD
ATOM      6  H   UNL     1      20.183  -2.563   2.940  0.00  0.00    +0.159 HD
ATOM      7  H   UNL     1      19.345  -3.266   4.272  0.00  0.00    +0.159 HD
ATOM      8  H   UNL     1      17.818  -3.445   0.477  0.00  0.00    +0.159 HD
ATOM      9  H   UNL     1      19.317  -2.664   0.795  0.00  0.00    +0.159 HD
ENDROOT
BRANCH   1  10
ATOM     10  C   UNL     1      16.216  -4.582   2.132  0.00  0.00    +0.151 C 
BRANCH  10  11
ATOM     11  C   UNL     1      15.775  -5.944   2.590  0.00  0.00    -0.028 A 
ATOM     12  C   UNL     1      14.506  -6.434   2.249  0.00  0.00    +0.005 A 
ATOM     13  C   UNL     1      16.624  -6.753   3.362  0.00  0.00    +0.005 A 
ATOM     14  C   UNL     1      14.107  -7.712   2.650  0.00  0.00    +0.000 A 
ATOM     15  C   UNL     1      16.222  -8.028   3.761  0.00  0.00    +0.000 A 
ATOM     16  C   UNL     1      14.964  -8.508   3.402  0.00  0.00    +0.000 A 
ENDBRANCH  10  11
ENDBRANCH   1  10
TORSDOF 2
ENDMDL
MODEL 6
REMARK VINA RESULT:    -5.598     23.436     24.906
REMARK INTER + INTRA:          -6.359
REMARK INTER:                  -6.215
REMARK INTRA:                  -0.145
REMARK UNBOUND:                -0.107
REMARK  Name = 1550473
REMARK  2 active torsions:
REMARK  status: ('A' for Active; 'I' for Inactive)
REMARK    1  A    between atoms: N_1  and  C_4
REMARK    2  A    between atoms: C_4  and  C_5
REMARK                            x       y       z     vdW  Elec       q    Type
REMARK                         _______ _______ _______ _____ _____    ______ ____
ROOT
ATOM      1  N   UNL     1      17.803  -8.156   3.306  0.00  0.00    -0.354 N 
ATOM      2  N   UNL     1      19.352  -9.610   4.229  0.00  0.00    -0.372 N 
ATOM      3  N   UNL     1      19.295  -7.437   4.964  0.00  0.00    -0.372 N 
ATOM      4  C   UNL     1      18.807  -8.389   4.162  0.00  0.00    +0.166 C 
ATOM      5  H   UNL     1      17.499  -8.912   2.703  0.00  0.00    +0.163 HD
ATOM      6  H   UNL     1      20.108  -9.816   4.867  0.00  0.00    +0.159 HD
ATOM      7  H   UNL     1      19.015 -10.375   3.658  0.00  0.00    +0.159 HD
ATOM      8  H   UNL     1      18.931  -6.493   4.958  0.00  0.00    +0.159 HD
ATOM      9  H   UNL     1      20.059  -7.621   5.602  0.00  0.00    +0.159 HD
ENDROOT
BRANCH   1  10
ATOM     10  C   UNL     1      17.105  -6.876   3.193  0.00  0.00    +0.151 C 
BRANCH  10  11
ATOM     11  C   UNL     1      15.629  -7.105   3.365  0.00  0.00    -0.028 A 
ATOM     12  C   UNL     1      14.722  -6.666   2.390  0.00  0.00    +0.005 A 
ATOM     13  C   UNL     1      15.131  -7.765   4.500  0.00  0.00    +0.005 A 
ATOM     14  C   UNL     1      13.353  -6.905   2.535  0.00  0.00    +0.000 A 
ATOM     15  C   UNL     1      13.764  -8.000   4.641  0.00  0.00    +0.000 A 
ATOM     16  C   UNL     1      12.876  -7.573   3.658  0.00  0.00    +0.000 A 
ENDBRANCH  10  11
ENDBRANCH   1  10
TORSDOF 2
ENDMDL
MODEL 7
REMARK VINA RESULT:    -5.417     14.354     15.115
REMARK INTER + INTRA:          -6.157
REMARK INTER:                  -5.976
REMARK INTRA:                  -0.181
REMARK UNBOUND:                -0.107
REMARK  Name = 1550473
REMARK  2 active torsions:
REMARK  status: ('A' for Active; 'I' for Inactive)
REMARK    1  A    between atoms: N_1  and  C_4
REMARK    2  A    between atoms: C_4  and  C_5
REMARK                            x       y       z     vdW  Elec       q    Type
REMARK                         _______ _______ _______ _____ _____    ______ ____
ROOT
ATOM      1  N   UNL     1       3.493   9.011 -10.067  0.00  0.00    -0.354 N 
ATOM      2  N   UNL     1       2.322   7.794  -8.483  0.00  0.00    -0.372 N 
ATOM      3  N   UNL     1       1.157   9.140  -9.931  0.00  0.00    -0.372 N 
ATOM      4  C   UNL     1       2.330   8.658  -9.505  0.00  0.00    +0.166 C 
ATOM      5  H   UNL     1       4.350   8.634  -9.678  0.00  0.00    +0.163 HD
ATOM      6  H   UNL     1       1.459   7.506  -8.041  0.00  0.00    +0.159 HD
ATOM      7  H   UNL     1       3.175   7.383  -8.126  0.00  0.00    +0.159 HD
ATOM      8  H   UNL     1       1.096   9.800 -10.695  0.00  0.00    +0.159 HD
ATOM      9  H   UNL     1       0.284   8.873  -9.494  0.00  0.00    +0.159 HD
ENDROOT
BRANCH   1  10
ATOM     10  C   UNL     1       3.608   9.903 -11.220  0.00  0.00    +0.151 C 
BRANCH  10  11
ATOM     11  C   UNL     1       3.808   9.078 -12.461  0.00  0.00    -0.028 A 
ATOM     12  C   UNL     1       2.720   8.763 -13.289  0.00  0.00    +0.005 A 
ATOM     13  C   UNL     1       5.083   8.614 -12.818  0.00  0.00    +0.005 A 
ATOM     14  C   UNL     1       2.911   8.022 -14.458  0.00  0.00    +0.000 A 
ATOM     15  C   UNL     1       5.268   7.874 -13.985  0.00  0.00    +0.000 A 
ATOM     16  C   UNL     1       4.182   7.580 -14.807  0.00  0.00    +0.000 A 
ENDBRANCH  10  11
ENDBRANCH   1  10
TORSDOF 2
ENDMDL
MODEL 8
REMARK VINA RESULT:    -5.307     23.545     25.111
REMARK INTER + INTRA:          -6.034
REMARK INTER:                  -5.854
REMARK INTRA:                  -0.181
REMARK UNBOUND:                -0.107
REMARK  Name = 1550473
REMARK  2 active torsions:
REMARK  status: ('A' for Active; 'I' for Inactive)
REMARK    1  A    between atoms: N_1  and  C_4
REMARK    2  A    between atoms: C_4  and  C_5
REMARK                            x       y       z     vdW  Elec       q    Type
REMARK                         _______ _______ _______ _____ _____    ______ ____
ROOT
ATOM      1  N   UNL     1      14.926  -7.207   3.447  0.00  0.00    -0.354 N 
ATOM      2  N   UNL     1      13.311  -7.748   1.878  0.00  0.00    -0.372 N 
ATOM      3  N   UNL     1      14.645  -5.918   1.510  0.00  0.00    -0.372 N 
ATOM      4  C   UNL     1      14.306  -6.951   2.288  0.00  0.00    +0.166 C 
ATOM      5  H   UNL     1      14.601  -7.988   4.005  0.00  0.00    +0.163 HD
ATOM      6  H   UNL     1      12.827  -7.582   1.005  0.00  0.00    +0.159 HD
ATOM      7  H   UNL     1      13.019  -8.555   2.415  0.00  0.00    +0.159 HD
ATOM      8  H   UNL     1      15.384  -5.275   1.766  0.00  0.00    +0.159 HD
ATOM      9  H   UNL     1      14.165  -5.728   0.640  0.00  0.00    +0.159 HD
ENDROOT
BRANCH   1  10
ATOM     10  C   UNL     1      16.056  -6.433   3.958  0.00  0.00    +0.151 C 
BRANCH  10  11
ATOM     11  C   UNL     1      17.336  -7.132   3.592  0.00  0.00    -0.028 A 
ATOM     12  C   UNL     1      17.565  -8.455   3.996  0.00  0.00    +0.005 A 
ATOM     13  C   UNL     1      18.321  -6.479   2.835  0.00  0.00    +0.005 A 
ATOM     14  C   UNL     1      18.741  -9.115   3.630  0.00  0.00    +0.000 A 
ATOM     15  C   UNL     1      19.494  -7.141   2.473  0.00  0.00    +0.000 A 
ATOM     16  C   UNL     1      19.702  -8.460   2.868  0.00  0.00    +0.000 A 
ENDBRANCH  10  11
ENDBRANCH   1  10
TORSDOF 2
ENDMDL
MODEL 9
REMARK VINA RESULT:    -5.280      8.647      9.604
REMARK INTER + INTRA:          -6.004
REMARK INTER:                  -5.863
REMARK INTRA:                  -0.142
REMARK UNBOUND:                -0.107
REMARK  Name = 1550473
REMARK  2 active torsions:
REMARK  status: ('A' for Active; 'I' for Inactive)
REMARK    1  A    between atoms: N_1  and  C_4
REMARK    2  A    between atoms: C_4  and  C_5
REMARK                            x       y       z     vdW  Elec       q    Type
REMARK                         _______ _______ _______ _____ _____    ______ ____
ROOT
ATOM      1  N   UNL     1      -8.897  -4.945 -15.352  0.00  0.00    -0.354 N 
ATOM      2  N   UNL     1     -10.361  -5.377 -13.611  0.00  0.00    -0.372 N 
ATOM      3  N   UNL     1      -9.435  -3.285 -13.787  0.00  0.00    -0.372 N 
ATOM      4  C   UNL     1      -9.554  -4.530 -14.261  0.00  0.00    +0.166 C 
ATOM      5  H   UNL     1      -9.006  -5.910 -15.643  0.00  0.00    +0.163 HD
ATOM      6  H   UNL     1     -10.873  -5.092 -12.786  0.00  0.00    +0.159 HD
ATOM      7  H   UNL     1     -10.504  -6.328 -13.930  0.00  0.00    +0.159 HD
ATOM      8  H   UNL     1      -8.837  -2.600 -14.228  0.00  0.00    +0.159 HD
ATOM      9  H   UNL     1      -9.929  -2.985 -12.957  0.00  0.00    +0.159 HD
ENDROOT
BRANCH   1  10
ATOM     10  C   UNL     1      -8.035  -4.086 -16.163  0.00  0.00    +0.151 C 
BRANCH  10  11
ATOM     11  C   UNL     1      -6.642  -4.651 -16.166  0.00  0.00    -0.028 A 
ATOM     12  C   UNL     1      -5.605  -3.993 -15.488  0.00  0.00    +0.005 A 
ATOM     13  C   UNL     1      -6.352  -5.847 -16.841  0.00  0.00    +0.005 A 
ATOM     14  C   UNL     1      -4.317  -4.533 -15.465  0.00  0.00    +0.000 A 
ATOM     15  C   UNL     1      -5.064  -6.382 -16.817  0.00  0.00    +0.000 A 
ATOM     16  C   UNL     1      -4.048  -5.726 -16.127  0.00  0.00    +0.000 A 
ENDBRANCH  10  11
ENDBRANCH   1  10
TORSDOF 2
ENDMDL
