MODEL 1
REMARK VINA RESULT:    -6.467      0.000      0.000
REMARK INTER + INTRA:          -7.329
REMARK INTER:                  -7.223
REMARK INTRA:                  -0.105
REMARK UNBOUND:                -0.105
REMARK  Name = 1550473
REMARK  2 active torsions:
REMARK  status: ('A' for Active; 'I' for Inactive)
REMARK    1  A    between atoms: N_1  and  C_4
REMARK    2  A    between atoms: C_4  and  C_5
REMARK                            x       y       z     vdW  Elec       q    Type
REMARK                         _______ _______ _______ _____ _____    ______ ____
ROOT
ATOM      1  N   UNL     1       1.779   2.920  -2.608  0.00  0.00    -0.354 N 
ATOM      2  N   UNL     1       3.785   3.577  -1.655  0.00  0.00    -0.372 N 
ATOM      3  N   UNL     1       3.438   1.350  -2.083  0.00  0.00    -0.372 N 
ATOM      4  C   UNL     1       2.988   2.608  -2.122  0.00  0.00    +0.166 C 
ATOM      5  H   UNL     1       1.485   3.889  -2.582  0.00  0.00    +0.163 HD
ATOM      6  H   UNL     1       4.704   3.373  -1.285  0.00  0.00    +0.159 HD
ATOM      7  H   UNL     1       3.507   4.551  -1.672  0.00  0.00    +0.159 HD
ATOM      8  H   UNL     1       2.882   0.572  -2.415  0.00  0.00    +0.159 HD
ATOM      9  H   UNL     1       4.350   1.124  -1.706  0.00  0.00    +0.159 HD
ENDROOT
BRANCH   1  10
ATOM     10  C   UNL     1       0.856   1.947  -3.189  0.00  0.00    +0.151 C 
BRANCH  10  11
ATOM     11  C   UNL     1       0.762   2.183  -4.672  0.00  0.00    -0.028 A 
ATOM     12  C   UNL     1       1.501   3.210  -5.277  0.00  0.00    +0.005 A 
ATOM     13  C   UNL     1      -0.060   1.380  -5.477  0.00  0.00    +0.005 A 
ATOM     14  C   UNL     1       1.437   3.411  -6.658  0.00  0.00    +0.000 A 
ATOM     15  C   UNL     1      -0.122   1.584  -6.855  0.00  0.00    +0.000 A 
ATOM     16  C   UNL     1       0.629   2.598  -7.446  0.00  0.00    +0.000 A 
ENDBRANCH  10  11
ENDBRANCH   1  10
TORSDOF 2
ENDMDL
MODEL 2
REMARK VINA RESULT:    -5.899      3.374      5.243
REMARK INTER + INTRA:          -6.694
REMARK INTER:                  -6.556
REMARK INTRA:                  -0.138
REMARK UNBOUND:                -0.105
REMARK  Name = 1550473
REMARK  2 active torsions:
REMARK  status: ('A' for Active; 'I' for Inactive)
REMARK    1  A    between atoms: N_1  and  C_4
REMARK    2  A    between atoms: C_4  and  C_5
REMARK                            x       y       z     vdW  Elec       q    Type
REMARK                         _______ _______ _______ _____ _____    ______ ____
ROOT
ATOM      1  N   UNL     1       1.210   2.780  -1.965  0.00  0.00    -0.354 N 
ATOM      2  N   UNL     1       3.360   3.620  -2.150  0.00  0.00    -0.372 N 
ATOM      3  N   UNL     1       3.076   1.425  -1.548  0.00  0.00    -0.372 N 
ATOM      4  C   UNL     1       2.536   2.600  -1.885  0.00  0.00    +0.166 C 
ATOM      5  H   UNL     1       0.863   3.703  -2.196  0.00  0.00    +0.163 HD
ATOM      6  H   UNL     1       4.365   3.514  -2.102  0.00  0.00    +0.159 HD
ATOM      7  H   UNL     1       3.011   4.530  -2.426  0.00  0.00    +0.159 HD
ATOM      8  H   UNL     1       2.508   0.617  -1.330  0.00  0.00    +0.159 HD
ATOM      9  H   UNL     1       4.079   1.302  -1.483  0.00  0.00    +0.159 HD
ENDROOT
BRANCH   1  10
ATOM     10  C   UNL     1       0.227   1.720  -1.748  0.00  0.00    +0.151 C 
BRANCH  10  11
ATOM     11  C   UNL     1      -0.874   2.244  -0.869  0.00  0.00    -0.028 A 
ATOM     12  C   UNL     1      -2.217   1.985  -1.179  0.00  0.00    +0.005 A 
ATOM     13  C   UNL     1      -0.581   2.994   0.280  0.00  0.00    +0.005 A 
ATOM     14  C   UNL     1      -3.240   2.445  -0.346  0.00  0.00    +0.000 A 
ATOM     15  C   UNL     1      -1.605   3.453   1.109  0.00  0.00    +0.000 A 
ATOM     16  C   UNL     1      -2.934   3.177   0.797  0.00  0.00    +0.000 A 
ENDBRANCH  10  11
ENDBRANCH   1  10
TORSDOF 2
ENDMDL
MODEL 3
REMARK VINA RESULT:    -5.886      1.217      1.811
REMARK INTER + INTRA:          -6.679
REMARK INTER:                  -6.541
REMARK INTRA:                  -0.138
REMARK UNBOUND:                -0.105
REMARK  Name = 1550473
REMARK  2 active torsions:
REMARK  status: ('A' for Active; 'I' for Inactive)
REMARK    1  A    between atoms: N_1  and  C_4
REMARK    2  A    between atoms: C_4  and  C_5
REMARK                            x       y       z     vdW  Elec       q    Type
REMARK                         _______ _______ _______ _____ _____    ______ ____
ROOT
ATOM      1  N   UNL     1       2.035   1.753  -2.531  0.00  0.00    -0.354 N 
ATOM      2  N   UNL     1       4.285   2.277  -2.363  0.00  0.00    -0.372 N 
ATOM      3  N   UNL     1       2.783   3.960  -2.784  0.00  0.00    -0.372 N 
ATOM      4  C   UNL     1       3.019   2.662  -2.562  0.00  0.00    +0.166 C 
ATOM      5  H   UNL     1       2.283   0.781  -2.388  0.00  0.00    +0.163 HD
ATOM      6  H   UNL     1       5.048   2.941  -2.377  0.00  0.00    +0.159 HD
ATOM      7  H   UNL     1       4.525   1.311  -2.174  0.00  0.00    +0.159 HD
ATOM      8  H   UNL     1       1.850   4.314  -2.947  0.00  0.00    +0.159 HD
ATOM      9  H   UNL     1       3.534   4.638  -2.814  0.00  0.00    +0.159 HD
ENDROOT
BRANCH   1  10
ATOM     10  C   UNL     1       0.618   2.077  -2.682  0.00  0.00    +0.151 C 
BRANCH  10  11
ATOM     11  C   UNL     1       0.136   1.566  -4.012  0.00  0.00    -0.028 A 
ATOM     12  C   UNL     1       0.638   2.104  -5.206  0.00  0.00    +0.005 A 
ATOM     13  C   UNL     1      -0.819   0.540  -4.084  0.00  0.00    +0.005 A 
ATOM     14  C   UNL     1       0.213   1.609  -6.441  0.00  0.00    +0.000 A 
ATOM     15  C   UNL     1      -1.241   0.049  -5.320  0.00  0.00    +0.000 A 
ATOM     16  C   UNL     1      -0.724   0.582  -6.498  0.00  0.00    +0.000 A 
ENDBRANCH  10  11
ENDBRANCH   1  10
TORSDOF 2
ENDMDL
MODEL 4
REMARK VINA RESULT:    -5.768      1.828      2.355
REMARK INTER + INTRA:          -6.548
REMARK INTER:                  -6.438
REMARK INTRA:                  -0.111
REMARK UNBOUND:                -0.105
REMARK  Name = 1550473
REMARK  2 active torsions:
REMARK  status: ('A' for Active; 'I' for Inactive)
REMARK    1  A    between atoms: N_1  and  C_4
REMARK    2  A    between atoms: C_4  and  C_5
REMARK                            x       y       z     vdW  Elec       q    Type
REMARK                         _______ _______ _______ _____ _____    ______ ____
ROOT
ATOM      1  N   UNL     1      -0.385   1.896  -2.525  0.00  0.00    -0.354 N 
ATOM      2  N   UNL     1      -1.620   2.830  -0.803  0.00  0.00    -0.372 N 
ATOM      3  N   UNL     1       0.651   2.625  -0.554  0.00  0.00    -0.372 N 
ATOM      4  C   UNL     1      -0.441   2.444  -1.304  0.00  0.00    +0.166 C 
ATOM      5  H   UNL     1      -1.253   1.759  -3.031  0.00  0.00    +0.163 HD
ATOM      6  H   UNL     1      -1.693   3.250   0.114  0.00  0.00    +0.159 HD
ATOM      7  H   UNL     1      -2.480   2.734  -1.330  0.00  0.00    +0.159 HD
ATOM      8  H   UNL     1       1.571   2.350  -0.872  0.00  0.00    +0.159 HD
ATOM      9  H   UNL     1       0.597   3.033   0.371  0.00  0.00    +0.159 HD
ENDROOT
BRANCH   1  10
ATOM     10  C   UNL     1       0.855   1.491  -3.184  0.00  0.00    +0.151 C 
BRANCH  10  11
ATOM     11  C   UNL     1       0.819   1.941  -4.619  0.00  0.00    -0.028 A 
ATOM     12  C   UNL     1       1.561   3.056  -5.034  0.00  0.00    +0.005 A 
ATOM     13  C   UNL     1       0.049   1.253  -5.569  0.00  0.00    +0.005 A 
ATOM     14  C   UNL     1       1.552   3.457  -6.372  0.00  0.00    +0.000 A 
ATOM     15  C   UNL     1       0.042   1.656  -6.904  0.00  0.00    +0.000 A 
ATOM     16  C   UNL     1       0.795   2.756  -7.306  0.00  0.00    +0.000 A 
ENDBRANCH  10  11
ENDBRANCH   1  10
TORSDOF 2
ENDMDL
MODEL 5
REMARK VINA RESULT:    -5.366     14.985     16.989
REMARK INTER + INTRA:          -6.099
REMARK INTER:                  -5.929
REMARK INTRA:                  -0.170
REMARK UNBOUND:                -0.105
REMARK  Name = 1550473
REMARK  2 active torsions:
REMARK  status: ('A' for Active; 'I' for Inactive)
REMARK    1  A    between atoms: N_1  and  C_4
REMARK    2  A    between atoms: C_4  and  C_5
REMARK                            x       y       z     vdW  Elec       q    Type
REMARK                         _______ _______ _______ _____ _____    ______ ____
ROOT
ATOM      1  N   UNL     1      -4.708  -1.280   9.596  0.00  0.00    -0.354 N 
ATOM      2  N   UNL     1      -5.005  -0.144   7.600  0.00  0.00    -0.372 N 
ATOM      3  N   UNL     1      -3.037  -1.270   7.953  0.00  0.00    -0.372 N 
ATOM      4  C   UNL     1      -4.246  -0.906   8.396  0.00  0.00    +0.166 C 
ATOM      5  H   UNL     1      -5.621  -0.946   9.886  0.00  0.00    +0.163 HD
ATOM      6  H   UNL     1      -4.684   0.150   6.687  0.00  0.00    +0.159 HD
ATOM      7  H   UNL     1      -5.935   0.150   7.872  0.00  0.00    +0.159 HD
ATOM      8  H   UNL     1      -2.413  -1.840   8.509  0.00  0.00    +0.159 HD
ATOM      9  H   UNL     1      -2.694  -0.976   7.048  0.00  0.00    +0.159 HD
ENDROOT
BRANCH   1  10
ATOM     10  C   UNL     1      -3.983  -2.153  10.517  0.00  0.00    +0.151 C 
BRANCH  10  11
ATOM     11  C   UNL     1      -3.307  -1.311  11.564  0.00  0.00    -0.028 A 
ATOM     12  C   UNL     1      -4.002  -0.914  12.715  0.00  0.00    +0.005 A 
ATOM     13  C   UNL     1      -1.971  -0.911  11.412  0.00  0.00    +0.005 A 
ATOM     14  C   UNL     1      -3.366  -0.157  13.702  0.00  0.00    +0.000 A 
ATOM     15  C   UNL     1      -1.339  -0.155  12.399  0.00  0.00    +0.000 A 
ATOM     16  C   UNL     1      -2.036   0.220  13.545  0.00  0.00    +0.000 A 
ENDBRANCH  10  11
ENDBRANCH   1  10
TORSDOF 2
ENDMDL
MODEL 6
REMARK VINA RESULT:    -5.322      5.291      6.889
REMARK INTER + INTRA:          -6.050
REMARK INTER:                  -5.918
REMARK INTRA:                  -0.132
REMARK UNBOUND:                -0.105
REMARK  Name = 1550473
REMARK  2 active torsions:
REMARK  status: ('A' for Active; 'I' for Inactive)
REMARK    1  A    between atoms: N_1  and  C_4
REMARK    2  A    between atoms: C_4  and  C_5
REMARK                            x       y       z     vdW  Elec       q    Type
REMARK                         _______ _______ _______ _____ _____    ______ ____
ROOT
ATOM      1  N   UNL     1      -0.991   0.678 -10.048  0.00  0.00    -0.354 N 
ATOM      2  N   UNL     1      -1.590   0.657 -12.285  0.00  0.00    -0.372 N 
ATOM      3  N   UNL     1      -3.187   0.192 -10.704  0.00  0.00    -0.372 N 
ATOM      4  C   UNL     1      -1.921   0.508 -10.996  0.00  0.00    +0.166 C 
ATOM      5  H   UNL     1      -0.042   0.888 -10.336  0.00  0.00    +0.163 HD
ATOM      6  H   UNL     1      -2.271   0.538 -13.023  0.00  0.00    +0.159 HD
ATOM      7  H   UNL     1      -0.651   0.911 -12.568  0.00  0.00    +0.159 HD
ATOM      8  H   UNL     1      -3.500   0.061  -9.752  0.00  0.00    +0.159 HD
ATOM      9  H   UNL     1      -3.881   0.058 -11.429  0.00  0.00    +0.159 HD
ENDROOT
BRANCH   1  10
ATOM     10  C   UNL     1      -1.260   0.593  -8.613  0.00  0.00    +0.151 C 
BRANCH  10  11
ATOM     11  C   UNL     1      -0.341   1.533  -7.884  0.00  0.00    -0.028 A 
ATOM     12  C   UNL     1      -0.146   1.407  -6.500  0.00  0.00    +0.005 A 
ATOM     13  C   UNL     1       0.342   2.548  -8.571  0.00  0.00    +0.005 A 
ATOM     14  C   UNL     1       0.731   2.261  -5.827  0.00  0.00    +0.000 A 
ATOM     15  C   UNL     1       1.216   3.400  -7.895  0.00  0.00    +0.000 A 
ATOM     16  C   UNL     1       1.412   3.254  -6.523  0.00  0.00    +0.000 A 
ENDBRANCH  10  11
ENDBRANCH   1  10
TORSDOF 2
ENDMDL
MODEL 7
REMARK VINA RESULT:    -5.257      9.341     10.502
REMARK INTER + INTRA:          -5.977
REMARK INTER:                  -5.885
REMARK INTRA:                  -0.092
REMARK UNBOUND:                -0.105
REMARK  Name = 1550473
REMARK  2 active torsions:
REMARK  status: ('A' for Active; 'I' for Inactive)
REMARK    1  A    between atoms: N_1  and  C_4
REMARK    2  A    between atoms: C_4  and  C_5
REMARK                            x       y       z     vdW  Elec       q    Type
REMARK                         _______ _______ _______ _____ _____    ______ ____
ROOT
ATOM      1  N   UNL     1      -4.649   0.621   5.267  0.00  0.00    -0.354 N 
ATOM      2  N   UNL     1      -4.480   0.525   7.574  0.00  0.00    -0.372 N 
ATOM      3  N   UNL     1      -6.046  -0.780   6.522  0.00  0.00    -0.372 N 
ATOM      4  C   UNL     1      -5.062   0.121   6.439  0.00  0.00    +0.166 C 
ATOM      5  H   UNL     1      -3.919   1.324   5.273  0.00  0.00    +0.163 HD
ATOM      6  H   UNL     1      -4.768   0.163   8.474  0.00  0.00    +0.159 HD
ATOM      7  H   UNL     1      -3.719   1.194   7.575  0.00  0.00    +0.159 HD
ATOM      8  H   UNL     1      -6.530  -1.122   5.703  0.00  0.00    +0.159 HD
ATOM      9  H   UNL     1      -6.356  -1.146   7.414  0.00  0.00    +0.159 HD
ENDROOT
BRANCH   1  10
ATOM     10  C   UNL     1      -5.180   0.207   3.969  0.00  0.00    +0.151 C 
BRANCH  10  11
ATOM     11  C   UNL     1      -4.686   1.156   2.911  0.00  0.00    -0.028 A 
ATOM     12  C   UNL     1      -3.366   1.076   2.444  0.00  0.00    +0.005 A 
ATOM     13  C   UNL     1      -5.536   2.132   2.369  0.00  0.00    +0.005 A 
ATOM     14  C   UNL     1      -2.916   1.938   1.440  0.00  0.00    +0.000 A 
ATOM     15  C   UNL     1      -5.082   2.991   1.367  0.00  0.00    +0.000 A 
ATOM     16  C   UNL     1      -3.774   2.891   0.901  0.00  0.00    +0.000 A 
ENDBRANCH  10  11
ENDBRANCH   1  10
TORSDOF 2
ENDMDL
MODEL 8
REMARK VINA RESULT:    -4.971     18.269     19.691
REMARK INTER + INTRA:          -5.658
REMARK INTER:                  -5.477
REMARK INTRA:                  -0.181
REMARK UNBOUND:                -0.105
REMARK  Name = 1550473
REMARK  2 active torsions:
REMARK  status: ('A' for Active; 'I' for Inactive)
REMARK    1  A    between atoms: N_1  and  C_4
REMARK    2  A    between atoms: C_4  and  C_5
REMARK                            x       y       z     vdW  Elec       q    Type
REMARK                         _______ _______ _______ _____ _____    ______ ____
ROOT
ATOM      1  N   UNL     1      -2.981 -13.456 -11.347  0.00  0.00    -0.354 N 
ATOM      2  N   UNL     1      -1.606 -14.400  -9.740  0.00  0.00    -0.372 N 
ATOM      3  N   UNL     1      -1.094 -14.704 -11.956  0.00  0.00    -0.372 N 
ATOM      4  C   UNL     1      -1.901 -14.182 -11.027  0.00  0.00    +0.166 C 
ATOM      5  H   UNL     1      -3.570 -13.113 -10.597  0.00  0.00    +0.163 HD
ATOM      6  H   UNL     1      -0.796 -14.941  -9.469  0.00  0.00    +0.159 HD
ATOM      7  H   UNL     1      -2.171 -14.018  -8.992  0.00  0.00    +0.159 HD
ATOM      8  H   UNL     1      -1.264 -14.580 -12.945  0.00  0.00    +0.159 HD
ATOM      9  H   UNL     1      -0.285 -15.258 -11.704  0.00  0.00    +0.159 HD
ENDROOT
BRANCH   1  10
ATOM     10  C   UNL     1      -3.361 -13.114 -12.717  0.00  0.00    +0.151 C 
BRANCH  10  11
ATOM     11  C   UNL     1      -4.457 -14.040 -13.168  0.00  0.00    -0.028 A 
ATOM     12  C   UNL     1      -5.758 -13.902 -12.663  0.00  0.00    +0.005 A 
ATOM     13  C   UNL     1      -4.202 -15.053 -14.105  0.00  0.00    +0.005 A 
ATOM     14  C   UNL     1      -6.783 -14.743 -13.104  0.00  0.00    +0.000 A 
ATOM     15  C   UNL     1      -5.228 -15.891 -14.542  0.00  0.00    +0.000 A 
ATOM     16  C   UNL     1      -6.518 -15.733 -14.044  0.00  0.00    +0.000 A 
ENDBRANCH  10  11
ENDBRANCH   1  10
TORSDOF 2
ENDMDL
MODEL 9
REMARK VINA RESULT:    -4.930     18.382     19.658
REMARK INTER + INTRA:          -5.612
REMARK INTER:                  -5.484
REMARK INTRA:                  -0.128
REMARK UNBOUND:                -0.105
REMARK  Name = 1550473
REMARK  2 active torsions:
REMARK  status: ('A' for Active; 'I' for Inactive)
REMARK    1  A    between atoms: N_1  and  C_4
REMARK    2  A    between atoms: C_4  and  C_5
REMARK                            x       y       z     vdW  Elec       q    Type
REMARK                         _______ _______ _______ _____ _____    ______ ____
ROOT
ATOM      1  N   UNL     1       0.538  -2.170  15.739  0.00  0.00    -0.354 N 
ATOM      2  N   UNL     1       2.740  -2.434  16.407  0.00  0.00    -0.372 N 
ATOM      3  N   UNL     1       1.335  -4.246  16.479  0.00  0.00    -0.372 N 
ATOM      4  C   UNL     1       1.522  -2.951  16.205  0.00  0.00    +0.166 C 
ATOM      5  H   UNL     1       0.737  -1.189  15.579  0.00  0.00    +0.163 HD
ATOM      6  H   UNL     1       3.503  -2.999  16.754  0.00  0.00    +0.159 HD
ATOM      7  H   UNL     1       2.948  -1.464  16.202  0.00  0.00    +0.159 HD
ATOM      8  H   UNL     1       0.438  -4.696  16.354  0.00  0.00    +0.159 HD
ATOM      9  H   UNL     1       2.083  -4.826  16.839  0.00  0.00    +0.159 HD
ENDROOT
BRANCH   1  10
ATOM     10  C   UNL     1      -0.809  -2.648  15.434  0.00  0.00    +0.151 C 
BRANCH  10  11
ATOM     11  C   UNL     1      -1.409  -1.776  14.365  0.00  0.00    -0.028 A 
ATOM     12  C   UNL     1      -2.646  -2.104  13.790  0.00  0.00    +0.005 A 
ATOM     13  C   UNL     1      -0.748  -0.619  13.927  0.00  0.00    +0.005 A 
ATOM     14  C   UNL     1      -3.218  -1.278  12.819  0.00  0.00    +0.000 A 
ATOM     15  C   UNL     1      -1.322   0.202  12.956  0.00  0.00    +0.000 A 
ATOM     16  C   UNL     1      -2.558  -0.126  12.404  0.00  0.00    +0.000 A 
ENDBRANCH  10  11
ENDBRANCH   1  10
TORSDOF 2
ENDMDL
