MODEL 1
REMARK VINA RESULT:    -5.689      0.000      0.000
REMARK INTER + INTRA:          -6.469
REMARK INTER:                  -6.354
REMARK INTRA:                  -0.115
REMARK UNBOUND:                -0.115
REMARK  Name = 1550473
REMARK  2 active torsions:
REMARK  status: ('A' for Active; 'I' for Inactive)
REMARK    1  A    between atoms: N_1  and  C_4
REMARK    2  A    between atoms: C_4  and  C_5
REMARK                            x       y       z     vdW  Elec       q    Type
REMARK                         _______ _______ _______ _____ _____    ______ ____
ROOT
ATOM      1  N   UNL     1       7.240  -3.676  -7.678  0.00  0.00    -0.354 N 
ATOM      2  N   UNL     1       9.247  -3.761  -8.830  0.00  0.00    -0.372 N 
ATOM      3  N   UNL     1       8.951  -5.133  -7.015  0.00  0.00    -0.372 N 
ATOM      4  C   UNL     1       8.467  -4.191  -7.831  0.00  0.00    +0.166 C 
ATOM      5  H   UNL     1       6.943  -2.943  -8.312  0.00  0.00    +0.163 HD
ATOM      6  H   UNL     1      10.176  -4.134  -8.972  0.00  0.00    +0.159 HD
ATOM      7  H   UNL     1       8.931  -3.061  -9.490  0.00  0.00    +0.159 HD
ATOM      8  H   UNL     1       8.414  -5.496  -6.238  0.00  0.00    +0.159 HD
ATOM      9  H   UNL     1       9.883  -5.510  -7.134  0.00  0.00    +0.159 HD
ENDROOT
BRANCH   1  10
ATOM     10  C   UNL     1       6.291  -4.113  -6.655  0.00  0.00    +0.151 C 
BRANCH  10  11
ATOM     11  C   UNL     1       4.919  -4.199  -7.264  0.00  0.00    -0.028 A 
ATOM     12  C   UNL     1       4.024  -3.124  -7.159  0.00  0.00    +0.005 A 
ATOM     13  C   UNL     1       4.508  -5.352  -7.952  0.00  0.00    +0.005 A 
ATOM     14  C   UNL     1       2.760  -3.192  -7.750  0.00  0.00    +0.000 A 
ATOM     15  C   UNL     1       3.245  -5.416  -8.539  0.00  0.00    +0.000 A 
ATOM     16  C   UNL     1       2.372  -4.335  -8.441  0.00  0.00    +0.000 A 
ENDBRANCH  10  11
ENDBRANCH   1  10
TORSDOF 2
ENDMDL
MODEL 2
REMARK VINA RESULT:    -5.671      2.659      4.608
REMARK INTER + INTRA:          -6.449
REMARK INTER:                  -6.333
REMARK INTRA:                  -0.116
REMARK UNBOUND:                -0.115
REMARK  Name = 1550473
REMARK  2 active torsions:
REMARK  status: ('A' for Active; 'I' for Inactive)
REMARK    1  A    between atoms: N_1  and  C_4
REMARK    2  A    between atoms: C_4  and  C_5
REMARK                            x       y       z     vdW  Elec       q    Type
REMARK                         _______ _______ _______ _____ _____    ______ ____
ROOT
ATOM      1  N   UNL     1       5.069  -4.980  -6.197  0.00  0.00    -0.354 N 
ATOM      2  N   UNL     1       4.910  -3.750  -4.241  0.00  0.00    -0.372 N 
ATOM      3  N   UNL     1       3.777  -3.028  -6.101  0.00  0.00    -0.372 N 
ATOM      4  C   UNL     1       4.585  -3.926  -5.527  0.00  0.00    +0.166 C 
ATOM      5  H   UNL     1       5.701  -5.608  -5.714  0.00  0.00    +0.163 HD
ATOM      6  H   UNL     1       4.557  -2.966  -3.709  0.00  0.00    +0.159 HD
ATOM      7  H   UNL     1       5.505  -4.405  -3.747  0.00  0.00    +0.159 HD
ATOM      8  H   UNL     1       3.499  -3.100  -7.070  0.00  0.00    +0.159 HD
ATOM      9  H   UNL     1       3.423  -2.230  -5.588  0.00  0.00    +0.159 HD
ENDROOT
BRANCH   1  10
ATOM     10  C   UNL     1       4.734  -5.292  -7.585  0.00  0.00    +0.151 C 
BRANCH  10  11
ATOM     11  C   UNL     1       5.986  -5.241  -8.416  0.00  0.00    -0.028 A 
ATOM     12  C   UNL     1       6.085  -5.987  -9.601  0.00  0.00    +0.005 A 
ATOM     13  C   UNL     1       7.075  -4.446  -8.028  0.00  0.00    +0.005 A 
ATOM     14  C   UNL     1       7.236  -5.917 -10.389  0.00  0.00    +0.000 A 
ATOM     15  C   UNL     1       8.223  -4.380  -8.817  0.00  0.00    +0.000 A 
ATOM     16  C   UNL     1       8.302  -5.113  -9.999  0.00  0.00    +0.000 A 
ENDBRANCH  10  11
ENDBRANCH   1  10
TORSDOF 2
ENDMDL
MODEL 3
REMARK VINA RESULT:    -5.437      3.116      4.858
REMARK INTER + INTRA:          -6.188
REMARK INTER:                  -6.120
REMARK INTRA:                  -0.068
REMARK UNBOUND:                -0.115
REMARK  Name = 1550473
REMARK  2 active torsions:
REMARK  status: ('A' for Active; 'I' for Inactive)
REMARK    1  A    between atoms: N_1  and  C_4
REMARK    2  A    between atoms: C_4  and  C_5
REMARK                            x       y       z     vdW  Elec       q    Type
REMARK                         _______ _______ _______ _____ _____    ______ ____
ROOT
ATOM      1  N   UNL     1       3.590  -5.157  -6.366  0.00  0.00    -0.354 N 
ATOM      2  N   UNL     1       1.434  -5.985  -6.547  0.00  0.00    -0.372 N 
ATOM      3  N   UNL     1       1.880  -3.873  -7.327  0.00  0.00    -0.372 N 
ATOM      4  C   UNL     1       2.315  -4.997  -6.747  0.00  0.00    +0.166 C 
ATOM      5  H   UNL     1       3.849  -6.021  -5.904  0.00  0.00    +0.163 HD
ATOM      6  H   UNL     1       0.467  -5.894  -6.827  0.00  0.00    +0.159 HD
ATOM      7  H   UNL     1       1.707  -6.865  -6.127  0.00  0.00    +0.159 HD
ATOM      8  H   UNL     1       2.494  -3.088  -7.501  0.00  0.00    +0.159 HD
ATOM      9  H   UNL     1       0.913  -3.759  -7.604  0.00  0.00    +0.159 HD
ENDROOT
BRANCH   1  10
ATOM     10  C   UNL     1       4.639  -4.164  -6.587  0.00  0.00    +0.151 C 
BRANCH  10  11
ATOM     11  C   UNL     1       5.584  -4.673  -7.640  0.00  0.00    -0.028 A 
ATOM     12  C   UNL     1       6.898  -4.188  -7.713  0.00  0.00    +0.005 A 
ATOM     13  C   UNL     1       5.172  -5.645  -8.566  0.00  0.00    +0.005 A 
ATOM     14  C   UNL     1       7.784  -4.682  -8.673  0.00  0.00    +0.000 A 
ATOM     15  C   UNL     1       6.060  -6.135  -9.523  0.00  0.00    +0.000 A 
ATOM     16  C   UNL     1       7.367  -5.656  -9.575  0.00  0.00    +0.000 A 
ENDBRANCH  10  11
ENDBRANCH   1  10
TORSDOF 2
ENDMDL
MODEL 4
REMARK VINA RESULT:    -5.320      4.171      5.132
REMARK INTER + INTRA:          -6.057
REMARK INTER:                  -5.921
REMARK INTRA:                  -0.136
REMARK UNBOUND:                -0.115
REMARK  Name = 1550473
REMARK  2 active torsions:
REMARK  status: ('A' for Active; 'I' for Inactive)
REMARK    1  A    between atoms: N_1  and  C_4
REMARK    2  A    between atoms: C_4  and  C_5
REMARK                            x       y       z     vdW  Elec       q    Type
REMARK                         _______ _______ _______ _____ _____    ______ ____
ROOT
ATOM      1  N   UNL     1      11.491  -4.870  -9.322  0.00  0.00    -0.354 N 
ATOM      2  N   UNL     1      12.532  -2.855  -8.853  0.00  0.00    -0.372 N 
ATOM      3  N   UNL     1      12.120  -4.317  -7.134  0.00  0.00    -0.372 N 
ATOM      4  C   UNL     1      12.041  -4.028  -8.437  0.00  0.00    +0.166 C 
ATOM      5  H   UNL     1      11.434  -4.579 -10.291  0.00  0.00    +0.163 HD
ATOM      6  H   UNL     1      12.956  -2.201  -8.209  0.00  0.00    +0.159 HD
ATOM      7  H   UNL     1      12.515  -2.587  -9.830  0.00  0.00    +0.159 HD
ATOM      8  H   UNL     1      11.762  -5.184  -6.754  0.00  0.00    +0.159 HD
ATOM      9  H   UNL     1      12.530  -3.670  -6.471  0.00  0.00    +0.159 HD
ENDROOT
BRANCH   1  10
ATOM     10  C   UNL     1      10.975  -6.195  -8.980  0.00  0.00    +0.151 C 
BRANCH  10  11
ATOM     11  C   UNL     1       9.553  -6.306  -9.456  0.00  0.00    -0.028 A 
ATOM     12  C   UNL     1       8.953  -7.563  -9.619  0.00  0.00    +0.005 A 
ATOM     13  C   UNL     1       8.798  -5.158  -9.740  0.00  0.00    +0.005 A 
ATOM     14  C   UNL     1       7.623  -7.667 -10.032  0.00  0.00    +0.000 A 
ATOM     15  C   UNL     1       7.470  -5.265 -10.154  0.00  0.00    +0.000 A 
ATOM     16  C   UNL     1       6.882  -6.519 -10.297  0.00  0.00    +0.000 A 
ENDBRANCH  10  11
ENDBRANCH   1  10
TORSDOF 2
ENDMDL
MODEL 5
REMARK VINA RESULT:    -5.278      1.296      2.332
REMARK INTER + INTRA:          -6.009
REMARK INTER:                  -5.880
REMARK INTRA:                  -0.129
REMARK UNBOUND:                -0.115
REMARK  Name = 1550473
REMARK  2 active torsions:
REMARK  status: ('A' for Active; 'I' for Inactive)
REMARK    1  A    between atoms: N_1  and  C_4
REMARK    2  A    between atoms: C_4  and  C_5
REMARK                            x       y       z     vdW  Elec       q    Type
REMARK                         _______ _______ _______ _____ _____    ______ ____
ROOT
ATOM      1  N   UNL     1       8.569  -4.898  -7.345  0.00  0.00    -0.354 N 
ATOM      2  N   UNL     1      10.691  -5.802  -7.560  0.00  0.00    -0.372 N 
ATOM      3  N   UNL     1      10.241  -3.783  -8.552  0.00  0.00    -0.372 N 
ATOM      4  C   UNL     1       9.820  -4.820  -7.819  0.00  0.00    +0.166 C 
ATOM      5  H   UNL     1       8.304  -5.724  -6.822  0.00  0.00    +0.163 HD
ATOM      6  H   UNL     1      11.642  -5.769  -7.901  0.00  0.00    +0.159 HD
ATOM      7  H   UNL     1      10.436  -6.605  -6.998  0.00  0.00    +0.159 HD
ATOM      8  H   UNL     1       9.631  -3.012  -8.788  0.00  0.00    +0.159 HD
ATOM      9  H   UNL     1      11.185  -3.737  -8.912  0.00  0.00    +0.159 HD
ENDROOT
BRANCH   1  10
ATOM     10  C   UNL     1       7.560  -3.856  -7.526  0.00  0.00    +0.151 C 
BRANCH  10  11
ATOM     11  C   UNL     1       6.221  -4.503  -7.751  0.00  0.00    -0.028 A 
ATOM     12  C   UNL     1       6.074  -5.522  -8.704  0.00  0.00    +0.005 A 
ATOM     13  C   UNL     1       5.097  -4.106  -7.011  0.00  0.00    +0.005 A 
ATOM     14  C   UNL     1       4.838  -6.144  -8.893  0.00  0.00    +0.000 A 
ATOM     15  C   UNL     1       3.864  -4.729  -7.203  0.00  0.00    +0.000 A 
ATOM     16  C   UNL     1       3.735  -5.750  -8.142  0.00  0.00    +0.000 A 
ENDBRANCH  10  11
ENDBRANCH   1  10
TORSDOF 2
ENDMDL
MODEL 6
REMARK VINA RESULT:    -4.950      5.339      8.997
REMARK INTER + INTRA:          -5.643
REMARK INTER:                  -5.551
REMARK INTRA:                  -0.092
REMARK UNBOUND:                -0.115
REMARK  Name = 1550473
REMARK  2 active torsions:
REMARK  status: ('A' for Active; 'I' for Inactive)
REMARK    1  A    between atoms: N_1  and  C_4
REMARK    2  A    between atoms: C_4  and  C_5
REMARK                            x       y       z     vdW  Elec       q    Type
REMARK                         _______ _______ _______ _____ _____    ______ ____
ROOT
ATOM      1  N   UNL     1      11.596  -4.516  -7.316  0.00  0.00    -0.354 N 
ATOM      2  N   UNL     1       9.415  -5.274  -7.134  0.00  0.00    -0.372 N 
ATOM      3  N   UNL     1       9.943  -3.809  -8.820  0.00  0.00    -0.372 N 
ATOM      4  C   UNL     1      10.332  -4.526  -7.760  0.00  0.00    +0.166 C 
ATOM      5  H   UNL     1      11.820  -5.058  -6.489  0.00  0.00    +0.163 HD
ATOM      6  H   UNL     1       8.454  -5.305  -7.449  0.00  0.00    +0.159 HD
ATOM      7  H   UNL     1       9.652  -5.851  -6.336  0.00  0.00    +0.159 HD
ATOM      8  H   UNL     1      10.585  -3.220  -9.332  0.00  0.00    +0.159 HD
ATOM      9  H   UNL     1       8.983  -3.818  -9.142  0.00  0.00    +0.159 HD
ENDROOT
BRANCH   1  10
ATOM     10  C   UNL     1      12.682  -3.778  -7.958  0.00  0.00    +0.151 C 
BRANCH  10  11
ATOM     11  C   UNL     1      13.872  -3.756  -7.038  0.00  0.00    -0.028 A 
ATOM     12  C   UNL     1      14.101  -2.658  -6.197  0.00  0.00    +0.005 A 
ATOM     13  C   UNL     1      14.770  -4.833  -6.999  0.00  0.00    +0.005 A 
ATOM     14  C   UNL     1      15.189  -2.650  -5.321  0.00  0.00    +0.000 A 
ATOM     15  C   UNL     1      15.856  -4.821  -6.124  0.00  0.00    +0.000 A 
ATOM     16  C   UNL     1      16.063  -3.731  -5.283  0.00  0.00    +0.000 A 
ENDBRANCH  10  11
ENDBRANCH   1  10
TORSDOF 2
ENDMDL
MODEL 7
REMARK VINA RESULT:    -4.863      6.869      8.536
REMARK INTER + INTRA:          -5.546
REMARK INTER:                  -5.416
REMARK INTRA:                  -0.130
REMARK UNBOUND:                -0.115
REMARK  Name = 1550473
REMARK  2 active torsions:
REMARK  status: ('A' for Active; 'I' for Inactive)
REMARK    1  A    between atoms: N_1  and  C_4
REMARK    2  A    between atoms: C_4  and  C_5
REMARK                            x       y       z     vdW  Elec       q    Type
REMARK                         _______ _______ _______ _____ _____    ______ ____
ROOT
ATOM      1  N   UNL     1      11.966  -4.657  -9.692  0.00  0.00    -0.354 N 
ATOM      2  N   UNL     1      12.568  -2.702  -8.606  0.00  0.00    -0.372 N 
ATOM      3  N   UNL     1      11.933  -4.516  -7.353  0.00  0.00    -0.372 N 
ATOM      4  C   UNL     1      12.151  -3.972  -8.556  0.00  0.00    +0.166 C 
ATOM      5  H   UNL     1      12.120  -4.178 -10.573  0.00  0.00    +0.163 HD
ATOM      6  H   UNL     1      12.720  -2.161  -7.765  0.00  0.00    +0.159 HD
ATOM      7  H   UNL     1      12.765  -2.240  -9.486  0.00  0.00    +0.159 HD
ATOM      8  H   UNL     1      11.611  -5.469  -7.247  0.00  0.00    +0.159 HD
ATOM      9  H   UNL     1      12.068  -3.988  -6.501  0.00  0.00    +0.159 HD
ENDROOT
BRANCH   1  10
ATOM     10  C   UNL     1      11.566  -6.062  -9.745  0.00  0.00    +0.151 C 
BRANCH  10  11
ATOM     11  C   UNL     1      12.212  -6.712 -10.937  0.00  0.00    -0.028 A 
ATOM     12  C   UNL     1      12.196  -8.107 -11.083  0.00  0.00    +0.005 A 
ATOM     13  C   UNL     1      12.836  -5.939 -11.928  0.00  0.00    +0.005 A 
ATOM     14  C   UNL     1      12.770  -8.710 -12.205  0.00  0.00    +0.000 A 
ATOM     15  C   UNL     1      13.409  -6.544 -13.046  0.00  0.00    +0.000 A 
ATOM     16  C   UNL     1      13.373  -7.930 -13.186  0.00  0.00    +0.000 A 
ENDBRANCH  10  11
ENDBRANCH   1  10
TORSDOF 2
ENDMDL
MODEL 8
REMARK VINA RESULT:    -4.660     22.251     23.048
REMARK INTER + INTRA:          -5.319
REMARK INTER:                  -5.176
REMARK INTRA:                  -0.143
REMARK UNBOUND:                -0.115
REMARK  Name = 1550473
REMARK  2 active torsions:
REMARK  status: ('A' for Active; 'I' for Inactive)
REMARK    1  A    between atoms: N_1  and  C_4
REMARK    2  A    between atoms: C_4  and  C_5
REMARK                            x       y       z     vdW  Elec       q    Type
REMARK                         _______ _______ _______ _____ _____    ______ ____
ROOT
ATOM      1  N   UNL     1      -7.713  14.481  -7.599  0.00  0.00    -0.354 N 
ATOM      2  N   UNL     1      -8.810  12.461  -7.883  0.00  0.00    -0.372 N 
ATOM      3  N   UNL     1      -8.119  13.062  -5.779  0.00  0.00    -0.372 N 
ATOM      4  C   UNL     1      -8.206  13.348  -7.082  0.00  0.00    +0.166 C 
ATOM      5  H   UNL     1      -7.784  14.624  -8.600  0.00  0.00    +0.163 HD
ATOM      6  H   UNL     1      -9.195  11.599  -7.521  0.00  0.00    +0.159 HD
ATOM      7  H   UNL     1      -8.921  12.628  -8.876  0.00  0.00    +0.159 HD
ATOM      8  H   UNL     1      -7.670  13.687  -5.123  0.00  0.00    +0.159 HD
ATOM      9  H   UNL     1      -8.488  12.199  -5.400  0.00  0.00    +0.159 HD
ENDROOT
BRANCH   1  10
ATOM     10  C   UNL     1      -7.084  15.536  -6.806  0.00  0.00    +0.151 C 
BRANCH  10  11
ATOM     11  C   UNL     1      -5.719  15.825  -7.367  0.00  0.00    -0.028 A 
ATOM     12  C   UNL     1      -5.232  15.100  -8.464  0.00  0.00    +0.005 A 
ATOM     13  C   UNL     1      -4.910  16.827  -6.809  0.00  0.00    +0.005 A 
ATOM     14  C   UNL     1      -3.976  15.389  -9.004  0.00  0.00    +0.000 A 
ATOM     15  C   UNL     1      -3.657  17.111  -7.350  0.00  0.00    +0.000 A 
ATOM     16  C   UNL     1      -3.191  16.394  -8.450  0.00  0.00    +0.000 A 
ENDBRANCH  10  11
ENDBRANCH   1  10
TORSDOF 2
ENDMDL
MODEL 9
REMARK VINA RESULT:    -4.543      3.775      4.948
REMARK INTER + INTRA:          -5.189
REMARK INTER:                  -5.078
REMARK INTRA:                  -0.111
REMARK UNBOUND:                -0.115
REMARK  Name = 1550473
REMARK  2 active torsions:
REMARK  status: ('A' for Active; 'I' for Inactive)
REMARK    1  A    between atoms: N_1  and  C_4
REMARK    2  A    between atoms: C_4  and  C_5
REMARK                            x       y       z     vdW  Elec       q    Type
REMARK                         _______ _______ _______ _____ _____    ______ ____
ROOT
ATOM      1  N   UNL     1       6.226  -8.022  -9.777  0.00  0.00    -0.354 N 
ATOM      2  N   UNL     1       5.857 -10.298  -9.557  0.00  0.00    -0.372 N 
ATOM      3  N   UNL     1       7.342  -9.563 -11.145  0.00  0.00    -0.372 N 
ATOM      4  C   UNL     1       6.479  -9.280 -10.163  0.00  0.00    +0.166 C 
ATOM      5  H   UNL     1       5.539  -7.872  -9.047  0.00  0.00    +0.163 HD
ATOM      6  H   UNL     1       6.031 -11.258  -9.825  0.00  0.00    +0.159 HD
ATOM      7  H   UNL     1       5.206 -10.148  -8.797  0.00  0.00    +0.159 HD
ATOM      8  H   UNL     1       7.839  -8.840 -11.647  0.00  0.00    +0.159 HD
ATOM      9  H   UNL     1       7.520 -10.517 -11.435  0.00  0.00    +0.159 HD
ENDROOT
BRANCH   1  10
ATOM     10  C   UNL     1       6.890  -6.846 -10.335  0.00  0.00    +0.151 C 
BRANCH  10  11
ATOM     11  C   UNL     1       6.909  -5.755  -9.301  0.00  0.00    -0.028 A 
ATOM     12  C   UNL     1       5.772  -5.492  -8.522  0.00  0.00    +0.005 A 
ATOM     13  C   UNL     1       8.062  -4.983  -9.090  0.00  0.00    +0.005 A 
ATOM     14  C   UNL     1       5.799  -4.499  -7.540  0.00  0.00    +0.000 A 
ATOM     15  C   UNL     1       8.084  -3.992  -8.109  0.00  0.00    +0.000 A 
ATOM     16  C   UNL     1       6.953  -3.752  -7.333  0.00  0.00    +0.000 A 
ENDBRANCH  10  11
ENDBRANCH   1  10
TORSDOF 2
ENDMDL
