MODEL 1
REMARK VINA RESULT:    -5.690      0.000      0.000
REMARK INTER + INTRA:          -6.481
REMARK INTER:                  -6.356
REMARK INTRA:                  -0.126
REMARK UNBOUND:                -0.126
REMARK  Name = 1550473
REMARK  2 active torsions:
REMARK  status: ('A' for Active; 'I' for Inactive)
REMARK    1  A    between atoms: N_1  and  C_4
REMARK    2  A    between atoms: C_4  and  C_5
REMARK                            x       y       z     vdW  Elec       q    Type
REMARK                         _______ _______ _______ _____ _____    ______ ____
ROOT
ATOM      1  N   UNL     1     -34.571  -5.120   0.451  0.00  0.00    -0.354 N 
ATOM      2  N   UNL     1     -36.736  -4.567  -0.157  0.00  0.00    -0.372 N 
ATOM      3  N   UNL     1     -35.002  -3.284  -0.940  0.00  0.00    -0.372 N 
ATOM      4  C   UNL     1     -35.421  -4.325  -0.212  0.00  0.00    +0.166 C 
ATOM      5  H   UNL     1     -34.953  -5.875   1.009  0.00  0.00    +0.163 HD
ATOM      6  H   UNL     1     -37.401  -3.987  -0.650  0.00  0.00    +0.159 HD
ATOM      7  H   UNL     1     -37.112  -5.350   0.364  0.00  0.00    +0.159 HD
ATOM      8  H   UNL     1     -34.023  -3.044  -1.017  0.00  0.00    +0.159 HD
ATOM      9  H   UNL     1     -35.654  -2.684  -1.431  0.00  0.00    +0.159 HD
ENDROOT
BRANCH   1  10
ATOM     10  C   UNL     1     -33.117  -4.975   0.413  0.00  0.00    +0.151 C 
BRANCH  10  11
ATOM     11  C   UNL     1     -32.525  -5.635   1.628  0.00  0.00    -0.028 A 
ATOM     12  C   UNL     1     -33.281  -5.776   2.800  0.00  0.00    +0.005 A 
ATOM     13  C   UNL     1     -31.211  -6.127   1.610  0.00  0.00    +0.005 A 
ATOM     14  C   UNL     1     -32.742  -6.416   3.919  0.00  0.00    +0.000 A 
ATOM     15  C   UNL     1     -30.676  -6.764   2.730  0.00  0.00    +0.000 A 
ATOM     16  C   UNL     1     -31.443  -6.911   3.883  0.00  0.00    +0.000 A 
ENDBRANCH  10  11
ENDBRANCH   1  10
TORSDOF 2
ENDMDL
MODEL 2
REMARK VINA RESULT:    -5.425      3.429      4.651
REMARK INTER + INTRA:          -6.186
REMARK INTER:                  -6.075
REMARK INTRA:                  -0.111
REMARK UNBOUND:                -0.126
REMARK  Name = 1550473
REMARK  2 active torsions:
REMARK  status: ('A' for Active; 'I' for Inactive)
REMARK    1  A    between atoms: N_1  and  C_4
REMARK    2  A    between atoms: C_4  and  C_5
REMARK                            x       y       z     vdW  Elec       q    Type
REMARK                         _______ _______ _______ _____ _____    ______ ____
ROOT
ATOM      1  N   UNL     1     -30.160  -6.834  -0.243  0.00  0.00    -0.354 N 
ATOM      2  N   UNL     1     -30.008  -8.016  -2.229  0.00  0.00    -0.372 N 
ATOM      3  N   UNL     1     -28.188  -7.955  -0.833  0.00  0.00    -0.372 N 
ATOM      4  C   UNL     1     -29.450  -7.594  -1.088  0.00  0.00    +0.166 C 
ATOM      5  H   UNL     1     -31.102  -6.570  -0.508  0.00  0.00    +0.163 HD
ATOM      6  H   UNL     1     -29.499  -8.593  -2.884  0.00  0.00    +0.159 HD
ATOM      7  H   UNL     1     -30.965  -7.789  -2.470  0.00  0.00    +0.159 HD
ATOM      8  H   UNL     1     -27.707  -7.664   0.008  0.00  0.00    +0.159 HD
ATOM      9  H   UNL     1     -27.658  -8.522  -1.482  0.00  0.00    +0.159 HD
ENDROOT
BRANCH   1  10
ATOM     10  C   UNL     1     -29.663  -6.367   1.050  0.00  0.00    +0.151 C 
BRANCH  10  11
ATOM     11  C   UNL     1     -30.786  -6.405   2.050  0.00  0.00    -0.028 A 
ATOM     12  C   UNL     1     -30.618  -7.047   3.286  0.00  0.00    +0.005 A 
ATOM     13  C   UNL     1     -32.019  -5.795   1.770  0.00  0.00    +0.005 A 
ATOM     14  C   UNL     1     -31.651  -7.057   4.226  0.00  0.00    +0.000 A 
ATOM     15  C   UNL     1     -33.048  -5.808   2.712  0.00  0.00    +0.000 A 
ATOM     16  C   UNL     1     -32.862  -6.436   3.941  0.00  0.00    +0.000 A 
ENDBRANCH  10  11
ENDBRANCH   1  10
TORSDOF 2
ENDMDL
MODEL 3
REMARK VINA RESULT:    -5.117     19.692     20.663
REMARK INTER + INTRA:          -5.841
REMARK INTER:                  -5.717
REMARK INTRA:                  -0.124
REMARK UNBOUND:                -0.126
REMARK  Name = 1550473
REMARK  2 active torsions:
REMARK  status: ('A' for Active; 'I' for Inactive)
REMARK    1  A    between atoms: N_1  and  C_4
REMARK    2  A    between atoms: C_4  and  C_5
REMARK                            x       y       z     vdW  Elec       q    Type
REMARK                         _______ _______ _______ _____ _____    ______ ____
ROOT
ATOM      1  N   UNL     1     -23.871 -14.608 -13.506  0.00  0.00    -0.354 N 
ATOM      2  N   UNL     1     -21.595 -14.202 -13.365  0.00  0.00    -0.372 N 
ATOM      3  N   UNL     1     -22.801 -14.439 -11.428  0.00  0.00    -0.372 N 
ATOM      4  C   UNL     1     -22.771 -14.419 -12.764  0.00  0.00    +0.166 C 
ATOM      5  H   UNL     1     -23.787 -14.551 -14.514  0.00  0.00    +0.163 HD
ATOM      6  H   UNL     1     -20.748 -14.060 -12.832  0.00  0.00    +0.159 HD
ATOM      7  H   UNL     1     -21.506 -14.192 -14.374  0.00  0.00    +0.159 HD
ATOM      8  H   UNL     1     -23.658 -14.592 -10.913  0.00  0.00    +0.159 HD
ATOM      9  H   UNL     1     -21.966 -14.287 -10.876  0.00  0.00    +0.159 HD
ENDROOT
BRANCH   1  10
ATOM     10  C   UNL     1     -25.190 -14.905 -12.951  0.00  0.00    +0.151 C 
BRANCH  10  11
ATOM     11  C   UNL     1     -26.040 -15.539 -14.017  0.00  0.00    -0.028 A 
ATOM     12  C   UNL     1     -27.436 -15.401 -13.991  0.00  0.00    +0.005 A 
ATOM     13  C   UNL     1     -25.456 -16.275 -15.059  0.00  0.00    +0.005 A 
ATOM     14  C   UNL     1     -28.223 -15.965 -14.998  0.00  0.00    +0.000 A 
ATOM     15  C   UNL     1     -26.246 -16.837 -16.062  0.00  0.00    +0.000 A 
ATOM     16  C   UNL     1     -27.629 -16.680 -16.032  0.00  0.00    +0.000 A 
ENDBRANCH  10  11
ENDBRANCH   1  10
TORSDOF 2
ENDMDL
MODEL 4
REMARK VINA RESULT:    -5.054     20.298     21.283
REMARK INTER + INTRA:          -5.770
REMARK INTER:                  -5.639
REMARK INTRA:                  -0.131
REMARK UNBOUND:                -0.126
REMARK  Name = 1550473
REMARK  2 active torsions:
REMARK  status: ('A' for Active; 'I' for Inactive)
REMARK    1  A    between atoms: N_1  and  C_4
REMARK    2  A    between atoms: C_4  and  C_5
REMARK                            x       y       z     vdW  Elec       q    Type
REMARK                         _______ _______ _______ _____ _____    ______ ____
ROOT
ATOM      1  N   UNL     1     -24.094 -14.714 -13.362  0.00  0.00    -0.354 N 
ATOM      2  N   UNL     1     -23.178 -14.314 -11.272  0.00  0.00    -0.372 N 
ATOM      3  N   UNL     1     -21.844 -15.194 -12.918  0.00  0.00    -0.372 N 
ATOM      4  C   UNL     1     -23.043 -14.744 -12.532  0.00  0.00    +0.166 C 
ATOM      5  H   UNL     1     -24.984 -14.390 -12.999  0.00  0.00    +0.163 HD
ATOM      6  H   UNL     1     -22.402 -14.322 -10.625  0.00  0.00    +0.159 HD
ATOM      7  H   UNL     1     -24.057 -13.948 -10.926  0.00  0.00    +0.159 HD
ATOM      8  H   UNL     1     -21.677 -15.538 -13.855  0.00  0.00    +0.159 HD
ATOM      9  H   UNL     1     -21.057 -15.220 -12.281  0.00  0.00    +0.159 HD
ENDROOT
BRANCH   1  10
ATOM     10  C   UNL     1     -24.038 -15.109 -14.768  0.00  0.00    +0.151 C 
BRANCH  10  11
ATOM     11  C   UNL     1     -25.091 -16.151 -15.028  0.00  0.00    -0.028 A 
ATOM     12  C   UNL     1     -24.771 -17.331 -15.714  0.00  0.00    +0.005 A 
ATOM     13  C   UNL     1     -26.410 -15.966 -14.585  0.00  0.00    +0.005 A 
ATOM     14  C   UNL     1     -25.742 -18.313 -15.929  0.00  0.00    +0.000 A 
ATOM     15  C   UNL     1     -27.377 -16.948 -14.802  0.00  0.00    +0.000 A 
ATOM     16  C   UNL     1     -27.042 -18.122 -15.472  0.00  0.00    +0.000 A 
ENDBRANCH  10  11
ENDBRANCH   1  10
TORSDOF 2
ENDMDL
MODEL 5
REMARK VINA RESULT:    -5.019      1.125      2.071
REMARK INTER + INTRA:          -5.732
REMARK INTER:                  -5.724
REMARK INTRA:                  -0.008
REMARK UNBOUND:                -0.126
REMARK  Name = 1550473
REMARK  2 active torsions:
REMARK  status: ('A' for Active; 'I' for Inactive)
REMARK    1  A    between atoms: N_1  and  C_4
REMARK    2  A    between atoms: C_4  and  C_5
REMARK                            x       y       z     vdW  Elec       q    Type
REMARK                         _______ _______ _______ _____ _____    ______ ____
ROOT
ATOM      1  N   UNL     1     -33.990  -5.032   0.352  0.00  0.00    -0.354 N 
ATOM      2  N   UNL     1     -35.940  -6.106  -0.287  0.00  0.00    -0.372 N 
ATOM      3  N   UNL     1     -33.925  -7.116  -0.718  0.00  0.00    -0.372 N 
ATOM      4  C   UNL     1     -34.604  -6.080  -0.215  0.00  0.00    +0.166 C 
ATOM      5  H   UNL     1     -34.561  -4.264   0.688  0.00  0.00    +0.163 HD
ATOM      6  H   UNL     1     -36.431  -6.885  -0.706  0.00  0.00    +0.159 HD
ATOM      7  H   UNL     1     -36.509  -5.358   0.090  0.00  0.00    +0.159 HD
ATOM      8  H   UNL     1     -32.915  -7.154  -0.700  0.00  0.00    +0.159 HD
ATOM      9  H   UNL     1     -34.398  -7.899  -1.152  0.00  0.00    +0.159 HD
ENDROOT
BRANCH   1  10
ATOM     10  C   UNL     1     -32.543  -4.930   0.530  0.00  0.00    +0.151 C 
BRANCH  10  11
ATOM     11  C   UNL     1     -32.144  -5.696   1.761  0.00  0.00    -0.028 A 
ATOM     12  C   UNL     1     -30.892  -6.325   1.833  0.00  0.00    +0.005 A 
ATOM     13  C   UNL     1     -33.010  -5.791   2.861  0.00  0.00    +0.005 A 
ATOM     14  C   UNL     1     -30.509  -7.011   2.988  0.00  0.00    +0.000 A 
ATOM     15  C   UNL     1     -32.624  -6.478   4.012  0.00  0.00    +0.000 A 
ATOM     16  C   UNL     1     -31.372  -7.085   4.076  0.00  0.00    +0.000 A 
ENDBRANCH  10  11
ENDBRANCH   1  10
TORSDOF 2
ENDMDL
MODEL 6
REMARK VINA RESULT:    -5.007     19.640     20.571
REMARK INTER + INTRA:          -5.718
REMARK INTER:                  -5.580
REMARK INTRA:                  -0.138
REMARK UNBOUND:                -0.126
REMARK  Name = 1550473
REMARK  2 active torsions:
REMARK  status: ('A' for Active; 'I' for Inactive)
REMARK    1  A    between atoms: N_1  and  C_4
REMARK    2  A    between atoms: C_4  and  C_5
REMARK                            x       y       z     vdW  Elec       q    Type
REMARK                         _______ _______ _______ _____ _____    ______ ____
ROOT
ATOM      1  N   UNL     1     -23.518 -16.513 -13.617  0.00  0.00    -0.354 N 
ATOM      2  N   UNL     1     -21.422 -15.593 -13.261  0.00  0.00    -0.372 N 
ATOM      3  N   UNL     1     -22.303 -15.557 -15.379  0.00  0.00    -0.372 N 
ATOM      4  C   UNL     1     -22.428 -15.894 -14.091  0.00  0.00    +0.166 C 
ATOM      5  H   UNL     1     -23.538 -16.768 -12.637  0.00  0.00    +0.163 HD
ATOM      6  H   UNL     1     -20.589 -15.123 -13.588  0.00  0.00    +0.159 HD
ATOM      7  H   UNL     1     -21.465 -15.808 -12.272  0.00  0.00    +0.159 HD
ATOM      8  H   UNL     1     -23.024 -15.762 -16.058  0.00  0.00    +0.159 HD
ATOM      9  H   UNL     1     -21.472 -15.097 -15.729  0.00  0.00    +0.159 HD
ENDROOT
BRANCH   1  10
ATOM     10  C   UNL     1     -24.691 -16.837 -14.427  0.00  0.00    +0.151 C 
BRANCH  10  11
ATOM     11  C   UNL     1     -25.926 -16.355 -13.717  0.00  0.00    -0.028 A 
ATOM     12  C   UNL     1     -26.087 -14.995 -13.412  0.00  0.00    +0.005 A 
ATOM     13  C   UNL     1     -26.941 -17.252 -13.351  0.00  0.00    +0.005 A 
ATOM     14  C   UNL     1     -27.247 -14.543 -12.779  0.00  0.00    +0.000 A 
ATOM     15  C   UNL     1     -28.098 -16.796 -12.719  0.00  0.00    +0.000 A 
ATOM     16  C   UNL     1     -28.251 -15.441 -12.435  0.00  0.00    +0.000 A 
ENDBRANCH  10  11
ENDBRANCH   1  10
TORSDOF 2
ENDMDL
MODEL 7
REMARK VINA RESULT:    -4.959     38.186     39.381
REMARK INTER + INTRA:          -5.664
REMARK INTER:                  -5.534
REMARK INTRA:                  -0.131
REMARK UNBOUND:                -0.126
REMARK  Name = 1550473
REMARK  2 active torsions:
REMARK  status: ('A' for Active; 'I' for Inactive)
REMARK    1  A    between atoms: N_1  and  C_4
REMARK    2  A    between atoms: C_4  and  C_5
REMARK                            x       y       z     vdW  Elec       q    Type
REMARK                         _______ _______ _______ _____ _____    ______ ____
ROOT
ATOM      1  N   UNL     1       3.083   8.248  -9.169  0.00  0.00    -0.354 N 
ATOM      2  N   UNL     1       4.246   9.892  -8.026  0.00  0.00    -0.372 N 
ATOM      3  N   UNL     1       2.049  10.264  -8.571  0.00  0.00    -0.372 N 
ATOM      4  C   UNL     1       3.116   9.458  -8.597  0.00  0.00    +0.166 C 
ATOM      5  H   UNL     1       3.934   7.698  -9.182  0.00  0.00    +0.163 HD
ATOM      6  H   UNL     1       4.301  10.799  -7.583  0.00  0.00    +0.159 HD
ATOM      7  H   UNL     1       5.083   9.321  -8.000  0.00  0.00    +0.159 HD
ATOM      8  H   UNL     1       1.167   9.998  -8.989  0.00  0.00    +0.159 HD
ATOM      9  H   UNL     1       2.087  11.180  -8.142  0.00  0.00    +0.159 HD
ENDROOT
BRANCH   1  10
ATOM     10  C   UNL     1       1.887   7.660  -9.771  0.00  0.00    +0.151 C 
BRANCH  10  11
ATOM     11  C   UNL     1       1.941   6.166  -9.613  0.00  0.00    -0.028 A 
ATOM     12  C   UNL     1       3.080   5.548  -9.075  0.00  0.00    +0.005 A 
ATOM     13  C   UNL     1       0.856   5.362  -9.994  0.00  0.00    +0.005 A 
ATOM     14  C   UNL     1       3.119   4.162  -8.901  0.00  0.00    +0.000 A 
ATOM     15  C   UNL     1       0.899   3.979  -9.819  0.00  0.00    +0.000 A 
ATOM     16  C   UNL     1       2.030   3.380  -9.270  0.00  0.00    +0.000 A 
ENDBRANCH  10  11
ENDBRANCH   1  10
TORSDOF 2
ENDMDL
MODEL 8
REMARK VINA RESULT:    -4.893     25.960     27.093
REMARK INTER + INTRA:          -5.591
REMARK INTER:                  -5.483
REMARK INTRA:                  -0.108
REMARK UNBOUND:                -0.126
REMARK  Name = 1550473
REMARK  2 active torsions:
REMARK  status: ('A' for Active; 'I' for Inactive)
REMARK    1  A    between atoms: N_1  and  C_4
REMARK    2  A    between atoms: C_4  and  C_5
REMARK                            x       y       z     vdW  Elec       q    Type
REMARK                         _______ _______ _______ _____ _____    ______ ____
ROOT
ATOM      1  N   UNL     1      -5.725  -6.478   1.066  0.00  0.00    -0.354 N 
ATOM      2  N   UNL     1      -4.247  -5.262  -0.239  0.00  0.00    -0.372 N 
ATOM      3  N   UNL     1      -6.493  -5.133  -0.693  0.00  0.00    -0.372 N 
ATOM      4  C   UNL     1      -5.500  -5.632   0.052  0.00  0.00    +0.166 C 
ATOM      5  H   UNL     1      -4.927  -6.844   1.572  0.00  0.00    +0.163 HD
ATOM      6  H   UNL     1      -4.047  -4.622  -0.996  0.00  0.00    +0.159 HD
ATOM      7  H   UNL     1      -3.455  -5.594   0.298  0.00  0.00    +0.159 HD
ATOM      8  H   UNL     1      -7.460  -5.377  -0.529  0.00  0.00    +0.159 HD
ATOM      9  H   UNL     1      -6.312  -4.500  -1.462  0.00  0.00    +0.159 HD
ENDROOT
BRANCH   1  10
ATOM     10  C   UNL     1      -7.055  -6.901   1.498  0.00  0.00    +0.151 C 
BRANCH  10  11
ATOM     11  C   UNL     1      -7.039  -7.130   2.985  0.00  0.00    -0.028 A 
ATOM     12  C   UNL     1      -6.070  -7.960   3.567  0.00  0.00    +0.005 A 
ATOM     13  C   UNL     1      -7.987  -6.515   3.817  0.00  0.00    +0.005 A 
ATOM     14  C   UNL     1      -6.036  -8.149   4.950  0.00  0.00    +0.000 A 
ATOM     15  C   UNL     1      -7.950  -6.707   5.198  0.00  0.00    +0.000 A 
ATOM     16  C   UNL     1      -6.973  -7.521   5.764  0.00  0.00    +0.000 A 
ENDBRANCH  10  11
ENDBRANCH   1  10
TORSDOF 2
ENDMDL
MODEL 9
REMARK VINA RESULT:    -4.732     24.407     25.563
REMARK INTER + INTRA:          -5.411
REMARK INTER:                  -5.231
REMARK INTRA:                  -0.180
REMARK UNBOUND:                -0.126
REMARK  Name = 1550473
REMARK  2 active torsions:
REMARK  status: ('A' for Active; 'I' for Inactive)
REMARK    1  A    between atoms: N_1  and  C_4
REMARK    2  A    between atoms: C_4  and  C_5
REMARK                            x       y       z     vdW  Elec       q    Type
REMARK                         _______ _______ _______ _____ _____    ______ ____
ROOT
ATOM      1  N   UNL     1     -10.566   5.932   0.456  0.00  0.00    -0.354 N 
ATOM      2  N   UNL     1     -11.805   6.970   2.116  0.00  0.00    -0.372 N 
ATOM      3  N   UNL     1     -12.717   5.180   1.005  0.00  0.00    -0.372 N 
ATOM      4  C   UNL     1     -11.690   6.019   1.181  0.00  0.00    +0.166 C 
ATOM      5  H   UNL     1      -9.836   6.617   0.617  0.00  0.00    +0.163 HD
ATOM      6  H   UNL     1     -12.639   7.057   2.680  0.00  0.00    +0.159 HD
ATOM      7  H   UNL     1     -11.056   7.624   2.305  0.00  0.00    +0.159 HD
ATOM      8  H   UNL     1     -12.695   4.445   0.312  0.00  0.00    +0.159 HD
ATOM      9  H   UNL     1     -13.565   5.259   1.552  0.00  0.00    +0.159 HD
ENDROOT
BRANCH   1  10
ATOM     10  C   UNL     1     -10.319   4.900  -0.549  0.00  0.00    +0.151 C 
BRANCH  10  11
ATOM     11  C   UNL     1      -9.375   3.877   0.019  0.00  0.00    -0.028 A 
ATOM     12  C   UNL     1      -8.006   4.159   0.137  0.00  0.00    +0.005 A 
ATOM     13  C   UNL     1      -9.844   2.625   0.448  0.00  0.00    +0.005 A 
ATOM     14  C   UNL     1      -7.133   3.220   0.693  0.00  0.00    +0.000 A 
ATOM     15  C   UNL     1      -8.969   1.690   1.001  0.00  0.00    +0.000 A 
ATOM     16  C   UNL     1      -7.614   1.989   1.126  0.00  0.00    +0.000 A 
ENDBRANCH  10  11
ENDBRANCH   1  10
TORSDOF 2
ENDMDL
