MODEL 1
REMARK VINA RESULT:    -5.597      0.000      0.000
REMARK INTER + INTRA:          -6.345
REMARK INTER:                  -6.252
REMARK INTRA:                  -0.094
REMARK UNBOUND:                -0.094
REMARK  Name = 1550473
REMARK  2 active torsions:
REMARK  status: ('A' for Active; 'I' for Inactive)
REMARK    1  A    between atoms: N_1  and  C_4
REMARK    2  A    between atoms: C_4  and  C_5
REMARK                            x       y       z     vdW  Elec       q    Type
REMARK                         _______ _______ _______ _____ _____    ______ ____
ROOT
ATOM      1  N   UNL     1      -4.347  15.862   7.029  0.00  0.00    -0.354 N 
ATOM      2  N   UNL     1      -5.812  17.369   8.002  0.00  0.00    -0.372 N 
ATOM      3  N   UNL     1      -3.776  17.002   8.995  0.00  0.00    -0.372 N 
ATOM      4  C   UNL     1      -4.633  16.735   8.004  0.00  0.00    +0.166 C 
ATOM      5  H   UNL     1      -5.051  15.681   6.323  0.00  0.00    +0.163 HD
ATOM      6  H   UNL     1      -6.055  18.035   8.722  0.00  0.00    +0.159 HD
ATOM      7  H   UNL     1      -6.496  17.220   7.270  0.00  0.00    +0.159 HD
ATOM      8  H   UNL     1      -2.873  16.553   9.058  0.00  0.00    +0.159 HD
ATOM      9  H   UNL     1      -4.006  17.657   9.732  0.00  0.00    +0.159 HD
ENDROOT
BRANCH   1  10
ATOM     10  C   UNL     1      -3.070  15.159   6.910  0.00  0.00    +0.151 C 
BRANCH  10  11
ATOM     11  C   UNL     1      -3.256  13.950   6.036  0.00  0.00    -0.028 A 
ATOM     12  C   UNL     1      -3.133  14.053   4.642  0.00  0.00    +0.005 A 
ATOM     13  C   UNL     1      -3.548  12.696   6.595  0.00  0.00    +0.005 A 
ATOM     14  C   UNL     1      -3.275  12.924   3.832  0.00  0.00    +0.000 A 
ATOM     15  C   UNL     1      -3.690  11.572   5.783  0.00  0.00    +0.000 A 
ATOM     16  C   UNL     1      -3.551  11.685   4.402  0.00  0.00    +0.000 A 
ENDBRANCH  10  11
ENDBRANCH   1  10
TORSDOF 2
ENDMDL
MODEL 2
REMARK VINA RESULT:    -5.584     12.777     13.702
REMARK INTER + INTRA:          -6.331
REMARK INTER:                  -6.338
REMARK INTRA:                   0.008
REMARK UNBOUND:                -0.094
REMARK  Name = 1550473
REMARK  2 active torsions:
REMARK  status: ('A' for Active; 'I' for Inactive)
REMARK    1  A    between atoms: N_1  and  C_4
REMARK    2  A    between atoms: C_4  and  C_5
REMARK                            x       y       z     vdW  Elec       q    Type
REMARK                         _______ _______ _______ _____ _____    ______ ____
ROOT
ATOM      1  N   UNL     1       8.387   9.934   1.505  0.00  0.00    -0.354 N 
ATOM      2  N   UNL     1      10.251   8.914   2.425  0.00  0.00    -0.372 N 
ATOM      3  N   UNL     1       8.625   9.724   3.827  0.00  0.00    -0.372 N 
ATOM      4  C   UNL     1       9.074   9.531   2.582  0.00  0.00    +0.166 C 
ATOM      5  H   UNL     1       8.796   9.786   0.590  0.00  0.00    +0.163 HD
ATOM      6  H   UNL     1      10.790   8.595   3.219  0.00  0.00    +0.159 HD
ATOM      7  H   UNL     1      10.636   8.725   1.507  0.00  0.00    +0.159 HD
ATOM      8  H   UNL     1       7.746  10.189   4.013  0.00  0.00    +0.159 HD
ATOM      9  H   UNL     1       9.156   9.423   4.634  0.00  0.00    +0.159 HD
ENDROOT
BRANCH   1  10
ATOM     10  C   UNL     1       7.071  10.568   1.565  0.00  0.00    +0.151 C 
BRANCH  10  11
ATOM     11  C   UNL     1       7.231  12.052   1.382  0.00  0.00    -0.028 A 
ATOM     12  C   UNL     1       6.452  12.742   0.443  0.00  0.00    +0.005 A 
ATOM     13  C   UNL     1       8.157  12.775   2.150  0.00  0.00    +0.005 A 
ATOM     14  C   UNL     1       6.579  14.126   0.294  0.00  0.00    +0.000 A 
ATOM     15  C   UNL     1       8.282  14.155   1.998  0.00  0.00    +0.000 A 
ATOM     16  C   UNL     1       7.492  14.831   1.072  0.00  0.00    +0.000 A 
ENDBRANCH  10  11
ENDBRANCH   1  10
TORSDOF 2
ENDMDL
MODEL 3
REMARK VINA RESULT:    -5.452      2.142      2.810
REMARK INTER + INTRA:          -6.183
REMARK INTER:                  -6.005
REMARK INTRA:                  -0.178
REMARK UNBOUND:                -0.094
REMARK  Name = 1550473
REMARK  2 active torsions:
REMARK  status: ('A' for Active; 'I' for Inactive)
REMARK    1  A    between atoms: N_1  and  C_4
REMARK    2  A    between atoms: C_4  and  C_5
REMARK                            x       y       z     vdW  Elec       q    Type
REMARK                         _______ _______ _______ _____ _____    ______ ____
ROOT
ATOM      1  N   UNL     1      -1.658  15.013   7.498  0.00  0.00    -0.354 N 
ATOM      2  N   UNL     1       0.536  15.749   7.585  0.00  0.00    -0.372 N 
ATOM      3  N   UNL     1      -0.854  16.595   5.967  0.00  0.00    -0.372 N 
ATOM      4  C   UNL     1      -0.674  15.782   7.014  0.00  0.00    +0.166 C 
ATOM      5  H   UNL     1      -1.449  14.396   8.274  0.00  0.00    +0.163 HD
ATOM      6  H   UNL     1       1.297  16.321   7.244  0.00  0.00    +0.159 HD
ATOM      7  H   UNL     1       0.730  15.166   8.390  0.00  0.00    +0.159 HD
ATOM      8  H   UNL     1      -1.742  16.661   5.488  0.00  0.00    +0.159 HD
ATOM      9  H   UNL     1      -0.101  17.166   5.604  0.00  0.00    +0.159 HD
ENDROOT
BRANCH   1  10
ATOM     10  C   UNL     1      -3.026  15.014   6.982  0.00  0.00    +0.151 C 
BRANCH  10  11
ATOM     11  C   UNL     1      -3.216  13.817   6.091  0.00  0.00    -0.028 A 
ATOM     12  C   UNL     1      -3.065  13.932   4.702  0.00  0.00    +0.005 A 
ATOM     13  C   UNL     1      -3.542  12.564   6.632  0.00  0.00    +0.005 A 
ATOM     14  C   UNL     1      -3.212  12.815   3.877  0.00  0.00    +0.000 A 
ATOM     15  C   UNL     1      -3.689  11.450   5.805  0.00  0.00    +0.000 A 
ATOM     16  C   UNL     1      -3.521  11.576   4.428  0.00  0.00    +0.000 A 
ENDBRANCH  10  11
ENDBRANCH   1  10
TORSDOF 2
ENDMDL
MODEL 4
REMARK VINA RESULT:    -5.450     13.251     13.875
REMARK INTER + INTRA:          -6.181
REMARK INTER:                  -6.086
REMARK INTRA:                  -0.095
REMARK UNBOUND:                -0.094
REMARK  Name = 1550473
REMARK  2 active torsions:
REMARK  status: ('A' for Active; 'I' for Inactive)
REMARK    1  A    between atoms: N_1  and  C_4
REMARK    2  A    between atoms: C_4  and  C_5
REMARK                            x       y       z     vdW  Elec       q    Type
REMARK                         _______ _______ _______ _____ _____    ______ ____
ROOT
ATOM      1  N   UNL     1      10.009  13.406   6.007  0.00  0.00    -0.354 N 
ATOM      2  N   UNL     1       9.965  13.651   8.310  0.00  0.00    -0.372 N 
ATOM      3  N   UNL     1      11.875  14.218   7.170  0.00  0.00    -0.372 N 
ATOM      4  C   UNL     1      10.619  13.757   7.147  0.00  0.00    +0.166 C 
ATOM      5  H   UNL     1       9.067  13.036   6.060  0.00  0.00    +0.163 HD
ATOM      6  H   UNL     1      10.399  13.912   9.185  0.00  0.00    +0.159 HD
ATOM      7  H   UNL     1       9.008  13.324   8.355  0.00  0.00    +0.159 HD
ATOM      8  H   UNL     1      12.425  14.316   6.327  0.00  0.00    +0.159 HD
ATOM      9  H   UNL     1      12.330  14.473   8.038  0.00  0.00    +0.159 HD
ENDROOT
BRANCH   1  10
ATOM     10  C   UNL     1      10.614  13.534   4.683  0.00  0.00    +0.151 C 
BRANCH  10  11
ATOM     11  C   UNL     1       9.659  12.998   3.652  0.00  0.00    -0.028 A 
ATOM     12  C   UNL     1       9.439  11.618   3.535  0.00  0.00    +0.005 A 
ATOM     13  C   UNL     1       8.966  13.865   2.794  0.00  0.00    +0.005 A 
ATOM     14  C   UNL     1       8.529  11.121   2.598  0.00  0.00    +0.000 A 
ATOM     15  C   UNL     1       8.059  13.366   1.860  0.00  0.00    +0.000 A 
ATOM     16  C   UNL     1       7.839  11.994   1.764  0.00  0.00    +0.000 A 
ENDBRANCH  10  11
ENDBRANCH   1  10
TORSDOF 2
ENDMDL
MODEL 5
REMARK VINA RESULT:    -5.313     12.930     13.591
REMARK INTER + INTRA:          -6.028
REMARK INTER:                  -5.917
REMARK INTRA:                  -0.111
REMARK UNBOUND:                -0.094
REMARK  Name = 1550473
REMARK  2 active torsions:
REMARK  status: ('A' for Active; 'I' for Inactive)
REMARK    1  A    between atoms: N_1  and  C_4
REMARK    2  A    between atoms: C_4  and  C_5
REMARK                            x       y       z     vdW  Elec       q    Type
REMARK                         _______ _______ _______ _____ _____    ______ ____
ROOT
ATOM      1  N   UNL     1       9.810  12.664   4.599  0.00  0.00    -0.354 N 
ATOM      2  N   UNL     1      10.095  14.165   6.340  0.00  0.00    -0.372 N 
ATOM      3  N   UNL     1      11.699  14.047   4.703  0.00  0.00    -0.372 N 
ATOM      4  C   UNL     1      10.535  13.616   5.201  0.00  0.00    +0.166 C 
ATOM      5  H   UNL     1       8.952  12.359   5.044  0.00  0.00    +0.163 HD
ATOM      6  H   UNL     1      10.619  14.888   6.815  0.00  0.00    +0.159 HD
ATOM      7  H   UNL     1       9.214  13.892   6.757  0.00  0.00    +0.159 HD
ATOM      8  H   UNL     1      12.089  13.669   3.850  0.00  0.00    +0.159 HD
ATOM      9  H   UNL     1      12.244  14.761   5.170  0.00  0.00    +0.159 HD
ENDROOT
BRANCH   1  10
ATOM     10  C   UNL     1      10.174  12.039   3.329  0.00  0.00    +0.151 C 
BRANCH  10  11
ATOM     11  C   UNL     1       8.920  11.708   2.567  0.00  0.00    -0.028 A 
ATOM     12  C   UNL     1       8.167  12.724   1.960  0.00  0.00    +0.005 A 
ATOM     13  C   UNL     1       8.483  10.380   2.445  0.00  0.00    +0.005 A 
ATOM     14  C   UNL     1       7.019  12.414   1.227  0.00  0.00    +0.000 A 
ATOM     15  C   UNL     1       7.335  10.075   1.713  0.00  0.00    +0.000 A 
ATOM     16  C   UNL     1       6.605  11.092   1.103  0.00  0.00    +0.000 A 
ENDBRANCH  10  11
ENDBRANCH   1  10
TORSDOF 2
ENDMDL
MODEL 6
REMARK VINA RESULT:    -5.250     19.853     20.435
REMARK INTER + INTRA:          -5.958
REMARK INTER:                  -5.829
REMARK INTRA:                  -0.129
REMARK UNBOUND:                -0.094
REMARK  Name = 1550473
REMARK  2 active torsions:
REMARK  status: ('A' for Active; 'I' for Inactive)
REMARK    1  A    between atoms: N_1  and  C_4
REMARK    2  A    between atoms: C_4  and  C_5
REMARK                            x       y       z     vdW  Elec       q    Type
REMARK                         _______ _______ _______ _____ _____    ______ ____
ROOT
ATOM      1  N   UNL     1      -3.719  -3.302  -3.982  0.00  0.00    -0.354 N 
ATOM      2  N   UNL     1      -1.514  -4.012  -4.014  0.00  0.00    -0.372 N 
ATOM      3  N   UNL     1      -1.980  -1.815  -4.484  0.00  0.00    -0.372 N 
ATOM      4  C   UNL     1      -2.418  -3.036  -4.161  0.00  0.00    +0.166 C 
ATOM      5  H   UNL     1      -3.990  -4.255  -3.767  0.00  0.00    +0.163 HD
ATOM      6  H   UNL     1      -0.526  -3.840  -4.139  0.00  0.00    +0.159 HD
ATOM      7  H   UNL     1      -1.784  -4.953  -3.754  0.00  0.00    +0.159 HD
ATOM      8  H   UNL     1      -2.611  -1.036  -4.615  0.00  0.00    +0.159 HD
ATOM      9  H   UNL     1      -0.995  -1.625  -4.625  0.00  0.00    +0.159 HD
ENDROOT
BRANCH   1  10
ATOM     10  C   UNL     1      -4.779  -2.299  -4.065  0.00  0.00    +0.151 C 
BRANCH  10  11
ATOM     11  C   UNL     1      -5.936  -2.734  -3.209  0.00  0.00    -0.028 A 
ATOM     12  C   UNL     1      -7.207  -2.171  -3.391  0.00  0.00    +0.005 A 
ATOM     13  C   UNL     1      -5.768  -3.712  -2.217  0.00  0.00    +0.005 A 
ATOM     14  C   UNL     1      -8.289  -2.597  -2.616  0.00  0.00    +0.000 A 
ATOM     15  C   UNL     1      -6.850  -4.134  -1.444  0.00  0.00    +0.000 A 
ATOM     16  C   UNL     1      -8.111  -3.577  -1.646  0.00  0.00    +0.000 A 
ENDBRANCH  10  11
ENDBRANCH   1  10
TORSDOF 2
ENDMDL
MODEL 7
REMARK VINA RESULT:    -5.206     13.283     14.050
REMARK INTER + INTRA:          -5.909
REMARK INTER:                  -5.796
REMARK INTRA:                  -0.113
REMARK UNBOUND:                -0.094
REMARK  Name = 1550473
REMARK  2 active torsions:
REMARK  status: ('A' for Active; 'I' for Inactive)
REMARK    1  A    between atoms: N_1  and  C_4
REMARK    2  A    between atoms: C_4  and  C_5
REMARK                            x       y       z     vdW  Elec       q    Type
REMARK                         _______ _______ _______ _____ _____    ______ ____
ROOT
ATOM      1  N   UNL     1      10.596  12.490   3.204  0.00  0.00    -0.354 N 
ATOM      2  N   UNL     1      12.319  14.029   3.366  0.00  0.00    -0.372 N 
ATOM      3  N   UNL     1      10.882  13.784   5.137  0.00  0.00    -0.372 N 
ATOM      4  C   UNL     1      11.253  13.425   3.903  0.00  0.00    +0.166 C 
ATOM      5  H   UNL     1      10.909  12.285   2.262  0.00  0.00    +0.163 HD
ATOM      6  H   UNL     1      12.837  14.735   3.871  0.00  0.00    +0.159 HD
ATOM      7  H   UNL     1      12.658  13.789   2.442  0.00  0.00    +0.159 HD
ATOM      8  H   UNL     1      10.082  13.370   5.597  0.00  0.00    +0.159 HD
ATOM      9  H   UNL     1      11.380  14.498   5.654  0.00  0.00    +0.159 HD
ENDROOT
BRANCH   1  10
ATOM     10  C   UNL     1       9.455  11.735   3.719  0.00  0.00    +0.151 C 
BRANCH  10  11
ATOM     11  C   UNL     1       8.548  11.374   2.575  0.00  0.00    -0.028 A 
ATOM     12  C   UNL     1       8.354  10.032   2.216  0.00  0.00    +0.005 A 
ATOM     13  C   UNL     1       7.875  12.369   1.850  0.00  0.00    +0.005 A 
ATOM     14  C   UNL     1       7.488   9.695   1.173  0.00  0.00    +0.000 A 
ATOM     15  C   UNL     1       7.012  12.028   0.808  0.00  0.00    +0.000 A 
ATOM     16  C   UNL     1       6.817  10.691   0.472  0.00  0.00    +0.000 A 
ENDBRANCH  10  11
ENDBRANCH   1  10
TORSDOF 2
ENDMDL
MODEL 8
REMARK VINA RESULT:    -5.063     24.571     25.758
REMARK INTER + INTRA:          -5.749
REMARK INTER:                  -5.571
REMARK INTRA:                  -0.177
REMARK UNBOUND:                -0.094
REMARK  Name = 1550473
REMARK  2 active torsions:
REMARK  status: ('A' for Active; 'I' for Inactive)
REMARK    1  A    between atoms: N_1  and  C_4
REMARK    2  A    between atoms: C_4  and  C_5
REMARK                            x       y       z     vdW  Elec       q    Type
REMARK                         _______ _______ _______ _____ _____    ______ ____
ROOT
ATOM      1  N   UNL     1      -6.820  -9.624  -0.531  0.00  0.00    -0.354 N 
ATOM      2  N   UNL     1      -7.089  -8.386   1.408  0.00  0.00    -0.372 N 
ATOM      3  N   UNL     1      -6.260 -10.520   1.561  0.00  0.00    -0.372 N 
ATOM      4  C   UNL     1      -6.720  -9.520   0.801  0.00  0.00    +0.166 C 
ATOM      5  H   UNL     1      -7.206  -8.842  -1.047  0.00  0.00    +0.163 HD
ATOM      6  H   UNL     1      -7.022  -8.277   2.411  0.00  0.00    +0.159 HD
ATOM      7  H   UNL     1      -7.431  -7.589   0.885  0.00  0.00    +0.159 HD
ATOM      8  H   UNL     1      -5.971 -11.404   1.165  0.00  0.00    +0.159 HD
ATOM      9  H   UNL     1      -6.196 -10.434   2.568  0.00  0.00    +0.159 HD
ENDROOT
BRANCH   1  10
ATOM     10  C   UNL     1      -6.396 -10.797  -1.293  0.00  0.00    +0.151 C 
BRANCH  10  11
ATOM     11  C   UNL     1      -5.050 -10.523  -1.907  0.00  0.00    -0.028 A 
ATOM     12  C   UNL     1      -4.954  -9.912  -3.166  0.00  0.00    +0.005 A 
ATOM     13  C   UNL     1      -3.869 -10.867  -1.233  0.00  0.00    +0.005 A 
ATOM     14  C   UNL     1      -3.704  -9.629  -3.724  0.00  0.00    +0.000 A 
ATOM     15  C   UNL     1      -2.623 -10.584  -1.793  0.00  0.00    +0.000 A 
ATOM     16  C   UNL     1      -2.541  -9.963  -3.037  0.00  0.00    +0.000 A 
ENDBRANCH  10  11
ENDBRANCH   1  10
TORSDOF 2
ENDMDL
MODEL 9
REMARK VINA RESULT:    -4.988     13.233     14.015
REMARK INTER + INTRA:          -5.665
REMARK INTER:                  -5.485
REMARK INTRA:                  -0.180
REMARK UNBOUND:                -0.094
REMARK  Name = 1550473
REMARK  2 active torsions:
REMARK  status: ('A' for Active; 'I' for Inactive)
REMARK    1  A    between atoms: N_1  and  C_4
REMARK    2  A    between atoms: C_4  and  C_5
REMARK                            x       y       z     vdW  Elec       q    Type
REMARK                         _______ _______ _______ _____ _____    ______ ____
ROOT
ATOM      1  N   UNL     1      10.331  13.791   1.914  0.00  0.00    -0.354 N 
ATOM      2  N   UNL     1      11.562  14.700   0.175  0.00  0.00    -0.372 N 
ATOM      3  N   UNL     1       9.351  15.275   0.387  0.00  0.00    -0.372 N 
ATOM      4  C   UNL     1      10.404  14.584   0.836  0.00  0.00    +0.166 C 
ATOM      5  H   UNL     1      11.157  13.270   2.185  0.00  0.00    +0.163 HD
ATOM      6  H   UNL     1      11.649  15.293  -0.639  0.00  0.00    +0.159 HD
ATOM      7  H   UNL     1      12.398  14.214   0.476  0.00  0.00    +0.159 HD
ATOM      8  H   UNL     1       8.447  15.226   0.837  0.00  0.00    +0.159 HD
ATOM      9  H   UNL     1       9.415  15.865  -0.433  0.00  0.00    +0.159 HD
ENDROOT
BRANCH   1  10
ATOM     10  C   UNL     1       9.131  13.637   2.735  0.00  0.00    +0.151 C 
BRANCH  10  11
ATOM     11  C   UNL     1       8.471  12.328   2.399  0.00  0.00    -0.028 A 
ATOM     12  C   UNL     1       7.428  12.277   1.463  0.00  0.00    +0.005 A 
ATOM     13  C   UNL     1       8.888  11.135   3.010  0.00  0.00    +0.005 A 
ATOM     14  C   UNL     1       6.834  11.057   1.129  0.00  0.00    +0.000 A 
ATOM     15  C   UNL     1       8.292   9.920   2.674  0.00  0.00    +0.000 A 
ATOM     16  C   UNL     1       7.267   9.881   1.731  0.00  0.00    +0.000 A 
ENDBRANCH  10  11
ENDBRANCH   1  10
TORSDOF 2
ENDMDL
