MODEL 1
REMARK VINA RESULT:    -7.057      0.000      0.000
REMARK INTER + INTRA:          -8.015
REMARK INTER:                  -7.883
REMARK INTRA:                  -0.133
REMARK UNBOUND:                -0.133
REMARK  Name = 1550473
REMARK  2 active torsions:
REMARK  status: ('A' for Active; 'I' for Inactive)
REMARK    1  A    between atoms: N_1  and  C_4
REMARK    2  A    between atoms: C_4  and  C_5
REMARK                            x       y       z     vdW  Elec       q    Type
REMARK                         _______ _______ _______ _____ _____    ______ ____
ROOT
ATOM      1  N   UNL     1      -4.175  -1.233   2.973  0.00  0.00    -0.354 N 
ATOM      2  N   UNL     1      -3.018  -3.110   3.680  0.00  0.00    -0.372 N 
ATOM      3  N   UNL     1      -3.574  -2.920   1.462  0.00  0.00    -0.372 N 
ATOM      4  C   UNL     1      -3.597  -2.410   2.698  0.00  0.00    +0.166 C 
ATOM      5  H   UNL     1      -4.186  -0.915   3.935  0.00  0.00    +0.163 HD
ATOM      6  H   UNL     1      -2.570  -4.000   3.502  0.00  0.00    +0.159 HD
ATOM      7  H   UNL     1      -2.989  -2.769   4.633  0.00  0.00    +0.159 HD
ATOM      8  H   UNL     1      -3.998  -2.444   0.678  0.00  0.00    +0.159 HD
ATOM      9  H   UNL     1      -3.141  -3.814   1.266  0.00  0.00    +0.159 HD
ENDROOT
BRANCH   1  10
ATOM     10  C   UNL     1      -4.786  -0.367   1.966  0.00  0.00    +0.151 C 
BRANCH  10  11
ATOM     11  C   UNL     1      -6.217  -0.105   2.347  0.00  0.00    -0.028 A 
ATOM     12  C   UNL     1      -7.258  -0.405   1.456  0.00  0.00    +0.005 A 
ATOM     13  C   UNL     1      -6.540   0.438   3.601  0.00  0.00    +0.005 A 
ATOM     14  C   UNL     1      -8.589  -0.189   1.821  0.00  0.00    +0.000 A 
ATOM     15  C   UNL     1      -7.870   0.653   3.961  0.00  0.00    +0.000 A 
ATOM     16  C   UNL     1      -8.894   0.336   3.072  0.00  0.00    +0.000 A 
ENDBRANCH  10  11
ENDBRANCH   1  10
TORSDOF 2
ENDMDL
MODEL 2
REMARK VINA RESULT:    -6.230      1.350      1.678
REMARK INTER + INTRA:          -7.091
REMARK INTER:                  -6.988
REMARK INTRA:                  -0.103
REMARK UNBOUND:                -0.133
REMARK  Name = 1550473
REMARK  2 active torsions:
REMARK  status: ('A' for Active; 'I' for Inactive)
REMARK    1  A    between atoms: N_1  and  C_4
REMARK    2  A    between atoms: C_4  and  C_5
REMARK                            x       y       z     vdW  Elec       q    Type
REMARK                         _______ _______ _______ _____ _____    ______ ____
ROOT
ATOM      1  N   UNL     1      -4.824  -0.208   2.323  0.00  0.00    -0.354 N 
ATOM      2  N   UNL     1      -3.680  -1.927   3.374  0.00  0.00    -0.372 N 
ATOM      3  N   UNL     1      -4.061  -2.066   1.116  0.00  0.00    -0.372 N 
ATOM      4  C   UNL     1      -4.196  -1.390   2.261  0.00  0.00    +0.166 C 
ATOM      5  H   UNL     1      -4.919   0.239   3.228  0.00  0.00    +0.163 HD
ATOM      6  H   UNL     1      -3.198  -2.816   3.358  0.00  0.00    +0.159 HD
ATOM      7  H   UNL     1      -3.737  -1.455   4.269  0.00  0.00    +0.159 HD
ATOM      8  H   UNL     1      -4.434  -1.719   0.242  0.00  0.00    +0.159 HD
ATOM      9  H   UNL     1      -3.593  -2.963   1.081  0.00  0.00    +0.159 HD
ENDROOT
BRANCH   1  10
ATOM     10  C   UNL     1      -5.374   0.487   1.161  0.00  0.00    +0.151 C 
BRANCH  10  11
ATOM     11  C   UNL     1      -6.870   0.552   1.290  0.00  0.00    -0.028 A 
ATOM     12  C   UNL     1      -7.611   1.475   0.537  0.00  0.00    +0.005 A 
ATOM     13  C   UNL     1      -7.555  -0.311   2.159  0.00  0.00    +0.005 A 
ATOM     14  C   UNL     1      -9.004   1.516   0.634  0.00  0.00    +0.000 A 
ATOM     15  C   UNL     1      -8.946  -0.267   2.254  0.00  0.00    +0.000 A 
ATOM     16  C   UNL     1      -9.670   0.645   1.490  0.00  0.00    +0.000 A 
ENDBRANCH  10  11
ENDBRANCH   1  10
TORSDOF 2
ENDMDL
MODEL 3
REMARK VINA RESULT:    -5.953      3.370      4.476
REMARK INTER + INTRA:          -6.781
REMARK INTER:                  -6.677
REMARK INTRA:                  -0.105
REMARK UNBOUND:                -0.133
REMARK  Name = 1550473
REMARK  2 active torsions:
REMARK  status: ('A' for Active; 'I' for Inactive)
REMARK    1  A    between atoms: N_1  and  C_4
REMARK    2  A    between atoms: C_4  and  C_5
REMARK                            x       y       z     vdW  Elec       q    Type
REMARK                         _______ _______ _______ _____ _____    ______ ____
ROOT
ATOM      1  N   UNL     1      -6.680   0.968   5.128  0.00  0.00    -0.354 N 
ATOM      2  N   UNL     1      -6.074   2.409   6.837  0.00  0.00    -0.372 N 
ATOM      3  N   UNL     1      -5.985   3.159   4.671  0.00  0.00    -0.372 N 
ATOM      4  C   UNL     1      -6.250   2.171   5.532  0.00  0.00    +0.166 C 
ATOM      5  H   UNL     1      -6.833   0.252   5.829  0.00  0.00    +0.163 HD
ATOM      6  H   UNL     1      -5.753   3.308   7.172  0.00  0.00    +0.159 HD
ATOM      7  H   UNL     1      -6.272   1.706   7.539  0.00  0.00    +0.159 HD
ATOM      8  H   UNL     1      -6.092   3.042   3.672  0.00  0.00    +0.159 HD
ATOM      9  H   UNL     1      -5.653   4.062   4.986  0.00  0.00    +0.159 HD
ENDROOT
BRANCH   1  10
ATOM     10  C   UNL     1      -6.955   0.624   3.734  0.00  0.00    +0.151 C 
BRANCH  10  11
ATOM     11  C   UNL     1      -8.431   0.383   3.570  0.00  0.00    -0.028 A 
ATOM     12  C   UNL     1      -9.320   0.672   4.615  0.00  0.00    +0.005 A 
ATOM     13  C   UNL     1      -8.946  -0.128   2.369  0.00  0.00    +0.005 A 
ATOM     14  C   UNL     1     -10.694   0.477   4.453  0.00  0.00    +0.000 A 
ATOM     15  C   UNL     1     -10.318  -0.322   2.211  0.00  0.00    +0.000 A 
ATOM     16  C   UNL     1     -11.192  -0.017   3.252  0.00  0.00    +0.000 A 
ENDBRANCH  10  11
ENDBRANCH   1  10
TORSDOF 2
ENDMDL
MODEL 4
REMARK VINA RESULT:    -5.825      4.510      6.133
REMARK INTER + INTRA:          -6.638
REMARK INTER:                  -6.516
REMARK INTRA:                  -0.122
REMARK UNBOUND:                -0.133
REMARK  Name = 1550473
REMARK  2 active torsions:
REMARK  status: ('A' for Active; 'I' for Inactive)
REMARK    1  A    between atoms: N_1  and  C_4
REMARK    2  A    between atoms: C_4  and  C_5
REMARK                            x       y       z     vdW  Elec       q    Type
REMARK                         _______ _______ _______ _____ _____    ______ ____
ROOT
ATOM      1  N   UNL     1     -10.202   1.729   4.708  0.00  0.00    -0.354 N 
ATOM      2  N   UNL     1     -12.329   2.607   4.971  0.00  0.00    -0.372 N 
ATOM      3  N   UNL     1     -11.507   1.190   6.579  0.00  0.00    -0.372 N 
ATOM      4  C   UNL     1     -11.332   1.835   5.420  0.00  0.00    +0.166 C 
ATOM      5  H   UNL     1     -10.143   2.219   3.823  0.00  0.00    +0.163 HD
ATOM      6  H   UNL     1     -13.192   2.709   5.488  0.00  0.00    +0.159 HD
ATOM      7  H   UNL     1     -12.249   3.132   4.109  0.00  0.00    +0.159 HD
ATOM      8  H   UNL     1     -10.795   0.587   6.969  0.00  0.00    +0.159 HD
ATOM      9  H   UNL     1     -12.368   1.270   7.105  0.00  0.00    +0.159 HD
ENDROOT
BRANCH   1  10
ATOM     10  C   UNL     1      -9.036   0.957   5.135  0.00  0.00    +0.151 C 
BRANCH  10  11
ATOM     11  C   UNL     1      -8.266   0.518   3.920  0.00  0.00    -0.028 A 
ATOM     12  C   UNL     1      -8.937   0.020   2.794  0.00  0.00    +0.005 A 
ATOM     13  C   UNL     1      -6.866   0.603   3.887  0.00  0.00    +0.005 A 
ATOM     14  C   UNL     1      -8.224  -0.360   1.654  0.00  0.00    +0.000 A 
ATOM     15  C   UNL     1      -6.158   0.221   2.747  0.00  0.00    +0.000 A 
ATOM     16  C   UNL     1      -6.838  -0.258   1.630  0.00  0.00    +0.000 A 
ENDBRANCH  10  11
ENDBRANCH   1  10
TORSDOF 2
ENDMDL
MODEL 5
REMARK VINA RESULT:    -5.553     18.141     20.034
REMARK INTER + INTRA:          -6.335
REMARK INTER:                  -6.200
REMARK INTRA:                  -0.134
REMARK UNBOUND:                -0.133
REMARK  Name = 1550473
REMARK  2 active torsions:
REMARK  status: ('A' for Active; 'I' for Inactive)
REMARK    1  A    between atoms: N_1  and  C_4
REMARK    2  A    between atoms: C_4  and  C_5
REMARK                            x       y       z     vdW  Elec       q    Type
REMARK                         _______ _______ _______ _____ _____    ______ ____
ROOT
ATOM      1  N   UNL     1      14.547  -0.964   8.878  0.00  0.00    -0.354 N 
ATOM      2  N   UNL     1      15.891  -2.636   9.752  0.00  0.00    -0.372 N 
ATOM      3  N   UNL     1      16.346  -0.452  10.290  0.00  0.00    -0.372 N 
ATOM      4  C   UNL     1      15.588  -1.337   9.636  0.00  0.00    +0.166 C 
ATOM      5  H   UNL     1      14.030  -1.681   8.384  0.00  0.00    +0.163 HD
ATOM      6  H   UNL     1      16.668  -2.948  10.319  0.00  0.00    +0.159 HD
ATOM      7  H   UNL     1      15.344  -3.354   9.293  0.00  0.00    +0.159 HD
ATOM      8  H   UNL     1      16.174   0.543  10.239  0.00  0.00    +0.159 HD
ATOM      9  H   UNL     1      17.136  -0.744  10.853  0.00  0.00    +0.159 HD
ENDROOT
BRANCH   1  10
ATOM     10  C   UNL     1      14.100   0.420   8.728  0.00  0.00    +0.151 C 
BRANCH  10  11
ATOM     11  C   UNL     1      12.598   0.446   8.666  0.00  0.00    -0.028 A 
ATOM     12  C   UNL     1      11.844  -0.610   9.198  0.00  0.00    +0.005 A 
ATOM     13  C   UNL     1      11.922   1.528   8.081  0.00  0.00    +0.005 A 
ATOM     14  C   UNL     1      10.448  -0.571   9.167  0.00  0.00    +0.000 A 
ATOM     15  C   UNL     1      10.528   1.562   8.051  0.00  0.00    +0.000 A 
ATOM     16  C   UNL     1       9.791   0.514   8.597  0.00  0.00    +0.000 A 
ENDBRANCH  10  11
ENDBRANCH   1  10
TORSDOF 2
ENDMDL
MODEL 6
REMARK VINA RESULT:    -5.496     17.733     19.125
REMARK INTER + INTRA:          -6.271
REMARK INTER:                  -6.127
REMARK INTRA:                  -0.143
REMARK UNBOUND:                -0.133
REMARK  Name = 1550473
REMARK  2 active torsions:
REMARK  status: ('A' for Active; 'I' for Inactive)
REMARK    1  A    between atoms: N_1  and  C_4
REMARK    2  A    between atoms: C_4  and  C_5
REMARK                            x       y       z     vdW  Elec       q    Type
REMARK                         _______ _______ _______ _____ _____    ______ ____
ROOT
ATOM      1  N   UNL     1      13.405  -1.762   8.527  0.00  0.00    -0.354 N 
ATOM      2  N   UNL     1      13.421  -4.070   8.726  0.00  0.00    -0.372 N 
ATOM      3  N   UNL     1      13.834  -2.793  10.588  0.00  0.00    -0.372 N 
ATOM      4  C   UNL     1      13.554  -2.859   9.282  0.00  0.00    +0.166 C 
ATOM      5  H   UNL     1      13.223  -1.880   7.537  0.00  0.00    +0.163 HD
ATOM      6  H   UNL     1      13.524  -4.915   9.271  0.00  0.00    +0.159 HD
ATOM      7  H   UNL     1      13.194  -4.184   7.746  0.00  0.00    +0.159 HD
ATOM      8  H   UNL     1      13.953  -1.910  11.066  0.00  0.00    +0.159 HD
ATOM      9  H   UNL     1      13.953  -3.628  11.147  0.00  0.00    +0.159 HD
ENDROOT
BRANCH   1  10
ATOM     10  C   UNL     1      13.477  -0.397   9.046  0.00  0.00    +0.151 C 
BRANCH  10  11
ATOM     11  C   UNL     1      12.196   0.320   8.719  0.00  0.00    -0.028 A 
ATOM     12  C   UNL     1      12.221   1.556   8.056  0.00  0.00    +0.005 A 
ATOM     13  C   UNL     1      10.954  -0.234   9.065  0.00  0.00    +0.005 A 
ATOM     14  C   UNL     1      11.031   2.208   7.726  0.00  0.00    +0.000 A 
ATOM     15  C   UNL     1       9.767   0.421   8.734  0.00  0.00    +0.000 A 
ATOM     16  C   UNL     1       9.806   1.641   8.062  0.00  0.00    +0.000 A 
ENDBRANCH  10  11
ENDBRANCH   1  10
TORSDOF 2
ENDMDL
MODEL 7
REMARK VINA RESULT:    -5.459     20.620     22.450
REMARK INTER + INTRA:          -6.230
REMARK INTER:                  -6.098
REMARK INTRA:                  -0.132
REMARK UNBOUND:                -0.133
REMARK  Name = 1550473
REMARK  2 active torsions:
REMARK  status: ('A' for Active; 'I' for Inactive)
REMARK    1  A    between atoms: N_1  and  C_4
REMARK    2  A    between atoms: C_4  and  C_5
REMARK                            x       y       z     vdW  Elec       q    Type
REMARK                         _______ _______ _______ _____ _____    ______ ____
ROOT
ATOM      1  N   UNL     1      16.824  -1.575  10.398  0.00  0.00    -0.354 N 
ATOM      2  N   UNL     1      18.306  -2.009  12.124  0.00  0.00    -0.372 N 
ATOM      3  N   UNL     1      17.612   0.150  11.775  0.00  0.00    -0.372 N 
ATOM      4  C   UNL     1      17.571  -1.139  11.421  0.00  0.00    +0.166 C 
ATOM      5  H   UNL     1      16.859  -2.560  10.162  0.00  0.00    +0.163 HD
ATOM      6  H   UNL     1      18.877  -1.710  12.903  0.00  0.00    +0.159 HD
ATOM      7  H   UNL     1      18.305  -3.000  11.914  0.00  0.00    +0.159 HD
ATOM      8  H   UNL     1      17.085   0.857  11.281  0.00  0.00    +0.159 HD
ATOM      9  H   UNL     1      18.187   0.470  12.544  0.00  0.00    +0.159 HD
ENDROOT
BRANCH   1  10
ATOM     10  C   UNL     1      15.946  -0.718   9.604  0.00  0.00    +0.151 C 
BRANCH  10  11
ATOM     11  C   UNL     1      14.676  -1.465   9.298  0.00  0.00    -0.028 A 
ATOM     12  C   UNL     1      13.547  -0.784   8.820  0.00  0.00    +0.005 A 
ATOM     13  C   UNL     1      14.598  -2.854   9.479  0.00  0.00    +0.005 A 
ATOM     14  C   UNL     1      12.378  -1.480   8.507  0.00  0.00    +0.000 A 
ATOM     15  C   UNL     1      13.428  -3.546   9.167  0.00  0.00    +0.000 A 
ATOM     16  C   UNL     1      12.319  -2.859   8.678  0.00  0.00    +0.000 A 
ENDBRANCH  10  11
ENDBRANCH   1  10
TORSDOF 2
ENDMDL
MODEL 8
REMARK VINA RESULT:    -5.373      4.497      6.046
REMARK INTER + INTRA:          -6.134
REMARK INTER:                  -6.039
REMARK INTRA:                  -0.094
REMARK UNBOUND:                -0.133
REMARK  Name = 1550473
REMARK  2 active torsions:
REMARK  status: ('A' for Active; 'I' for Inactive)
REMARK    1  A    between atoms: N_1  and  C_4
REMARK    2  A    between atoms: C_4  and  C_5
REMARK                            x       y       z     vdW  Elec       q    Type
REMARK                         _______ _______ _______ _____ _____    ______ ____
ROOT
ATOM      1  N   UNL     1     -10.440   1.221   1.668  0.00  0.00    -0.354 N 
ATOM      2  N   UNL     1     -12.055   2.802   1.164  0.00  0.00    -0.372 N 
ATOM      3  N   UNL     1     -12.721   0.718   1.855  0.00  0.00    -0.372 N 
ATOM      4  C   UNL     1     -11.730   1.568   1.566  0.00  0.00    +0.166 C 
ATOM      5  H   UNL     1      -9.736   1.901   1.405  0.00  0.00    +0.163 HD
ATOM      6  H   UNL     1     -13.020   3.094   1.081  0.00  0.00    +0.159 HD
ATOM      7  H   UNL     1     -11.349   3.495   0.946  0.00  0.00    +0.159 HD
ATOM      8  H   UNL     1     -12.543  -0.230   2.159  0.00  0.00    +0.159 HD
ATOM      9  H   UNL     1     -13.693   0.988   1.767  0.00  0.00    +0.159 HD
ENDROOT
BRANCH   1  10
ATOM     10  C   UNL     1      -9.979  -0.081   2.148  0.00  0.00    +0.151 C 
BRANCH  10  11
ATOM     11  C   UNL     1      -8.505  -0.005   2.434  0.00  0.00    -0.028 A 
ATOM     12  C   UNL     1      -7.573  -0.476   1.498  0.00  0.00    +0.005 A 
ATOM     13  C   UNL     1      -8.033   0.542   3.637  0.00  0.00    +0.005 A 
ATOM     14  C   UNL     1      -6.202  -0.378   1.750  0.00  0.00    +0.000 A 
ATOM     15  C   UNL     1      -6.664   0.638   3.886  0.00  0.00    +0.000 A 
ATOM     16  C   UNL     1      -5.749   0.180   2.941  0.00  0.00    +0.000 A 
ENDBRANCH  10  11
ENDBRANCH   1  10
TORSDOF 2
ENDMDL
MODEL 9
REMARK VINA RESULT:    -5.053     31.109     32.372
REMARK INTER + INTRA:          -5.777
REMARK INTER:                  -5.644
REMARK INTRA:                  -0.132
REMARK UNBOUND:                -0.133
REMARK  Name = 1550473
REMARK  2 active torsions:
REMARK  status: ('A' for Active; 'I' for Inactive)
REMARK    1  A    between atoms: N_1  and  C_4
REMARK    2  A    between atoms: C_4  and  C_5
REMARK                            x       y       z     vdW  Elec       q    Type
REMARK                         _______ _______ _______ _____ _____    ______ ____
ROOT
ATOM      1  N   UNL     1     -13.654 -16.140 -26.371  0.00  0.00    -0.354 N 
ATOM      2  N   UNL     1     -15.491 -17.513 -26.044  0.00  0.00    -0.372 N 
ATOM      3  N   UNL     1     -15.805 -15.444 -26.985  0.00  0.00    -0.372 N 
ATOM      4  C   UNL     1     -14.973 -16.354 -26.469  0.00  0.00    +0.166 C 
ATOM      5  H   UNL     1     -13.080 -16.858 -25.943  0.00  0.00    +0.163 HD
ATOM      6  H   UNL     1     -16.481 -17.704 -26.108  0.00  0.00    +0.159 HD
ATOM      7  H   UNL     1     -14.909 -18.247 -25.659  0.00  0.00    +0.159 HD
ATOM      8  H   UNL     1     -15.478 -14.547 -27.319  0.00  0.00    +0.159 HD
ATOM      9  H   UNL     1     -16.802 -15.612 -27.047  0.00  0.00    +0.159 HD
ENDROOT
BRANCH   1  10
ATOM     10  C   UNL     1     -12.982 -14.935 -26.854  0.00  0.00    +0.151 C 
BRANCH  10  11
ATOM     11  C   UNL     1     -12.466 -14.155 -25.677  0.00  0.00    -0.028 A 
ATOM     12  C   UNL     1     -11.102 -13.846 -25.570  0.00  0.00    +0.005 A 
ATOM     13  C   UNL     1     -13.337 -13.717 -24.667  0.00  0.00    +0.005 A 
ATOM     14  C   UNL     1     -10.627 -13.095 -24.492  0.00  0.00    +0.000 A 
ATOM     15  C   UNL     1     -12.858 -12.968 -23.592  0.00  0.00    +0.000 A 
ATOM     16  C   UNL     1     -11.503 -12.656 -23.506  0.00  0.00    +0.000 A 
ENDBRANCH  10  11
ENDBRANCH   1  10
TORSDOF 2
ENDMDL
