MODEL 1
REMARK VINA RESULT:    -5.490      0.000      0.000
REMARK INTER + INTRA:          -6.260
REMARK INTER:                  -6.132
REMARK INTRA:                  -0.128
REMARK UNBOUND:                -0.128
REMARK  Name = 1550473
REMARK  2 active torsions:
REMARK  status: ('A' for Active; 'I' for Inactive)
REMARK    1  A    between atoms: N_1  and  C_4
REMARK    2  A    between atoms: C_4  and  C_5
REMARK                            x       y       z     vdW  Elec       q    Type
REMARK                         _______ _______ _______ _____ _____    ______ ____
ROOT
ATOM      1  N   UNL     1      -1.835  -4.572 -13.502  0.00  0.00    -0.354 N 
ATOM      2  N   UNL     1      -1.081  -4.798 -15.681  0.00  0.00    -0.372 N 
ATOM      3  N   UNL     1      -2.909  -3.473 -15.272  0.00  0.00    -0.372 N 
ATOM      4  C   UNL     1      -1.949  -4.278 -14.804  0.00  0.00    +0.166 C 
ATOM      5  H   UNL     1      -1.104  -5.213 -13.216  0.00  0.00    +0.163 HD
ATOM      6  H   UNL     1      -1.140  -4.591 -16.669  0.00  0.00    +0.159 HD
ATOM      7  H   UNL     1      -0.323  -5.401 -15.386  0.00  0.00    +0.159 HD
ATOM      8  H   UNL     1      -3.599  -3.053 -14.663  0.00  0.00    +0.159 HD
ATOM      9  H   UNL     1      -2.992  -3.264 -16.259  0.00  0.00    +0.159 HD
ENDROOT
BRANCH   1  10
ATOM     10  C   UNL     1      -2.696  -4.016 -12.460  0.00  0.00    +0.151 C 
BRANCH  10  11
ATOM     11  C   UNL     1      -1.856  -3.210 -11.507  0.00  0.00    -0.028 A 
ATOM     12  C   UNL     1      -1.993  -3.377 -10.122  0.00  0.00    +0.005 A 
ATOM     13  C   UNL     1      -0.917  -2.283 -11.985  0.00  0.00    +0.005 A 
ATOM     14  C   UNL     1      -1.192  -2.651  -9.237  0.00  0.00    +0.000 A 
ATOM     15  C   UNL     1      -0.120  -1.559 -11.098  0.00  0.00    +0.000 A 
ATOM     16  C   UNL     1      -0.256  -1.745  -9.724  0.00  0.00    +0.000 A 
ENDBRANCH  10  11
ENDBRANCH   1  10
TORSDOF 2
ENDMDL
MODEL 2
REMARK VINA RESULT:    -5.368      3.522      5.174
REMARK INTER + INTRA:          -6.123
REMARK INTER:                  -6.000
REMARK INTRA:                  -0.123
REMARK UNBOUND:                -0.128
REMARK  Name = 1550473
REMARK  2 active torsions:
REMARK  status: ('A' for Active; 'I' for Inactive)
REMARK    1  A    between atoms: N_1  and  C_4
REMARK    2  A    between atoms: C_4  and  C_5
REMARK                            x       y       z     vdW  Elec       q    Type
REMARK                         _______ _______ _______ _____ _____    ______ ____
ROOT
ATOM      1  N   UNL     1      -0.025  -0.433 -11.012  0.00  0.00    -0.354 N 
ATOM      2  N   UNL     1       1.112  -0.244  -9.003  0.00  0.00    -0.372 N 
ATOM      3  N   UNL     1      -0.985   0.672  -9.182  0.00  0.00    -0.372 N 
ATOM      4  C   UNL     1       0.024  -0.001  -9.745  0.00  0.00    +0.166 C 
ATOM      5  H   UNL     1       0.786  -0.912 -11.389  0.00  0.00    +0.163 HD
ATOM      6  H   UNL     1       1.176   0.067  -8.043  0.00  0.00    +0.159 HD
ATOM      7  H   UNL     1       1.901  -0.762  -9.368  0.00  0.00    +0.159 HD
ATOM      8  H   UNL     1      -1.831   0.892  -9.690  0.00  0.00    +0.159 HD
ATOM      9  H   UNL     1      -0.935   1.001  -8.226  0.00  0.00    +0.159 HD
ENDROOT
BRANCH   1  10
ATOM     10  C   UNL     1      -1.183  -0.269 -11.888  0.00  0.00    +0.151 C 
BRANCH  10  11
ATOM     11  C   UNL     1      -1.731  -1.625 -12.238  0.00  0.00    -0.028 A 
ATOM     12  C   UNL     1      -2.044  -1.945 -13.567  0.00  0.00    +0.005 A 
ATOM     13  C   UNL     1      -1.935  -2.596 -11.246  0.00  0.00    +0.005 A 
ATOM     14  C   UNL     1      -2.524  -3.215 -13.897  0.00  0.00    +0.000 A 
ATOM     15  C   UNL     1      -2.415  -3.862 -11.579  0.00  0.00    +0.000 A 
ATOM     16  C   UNL     1      -2.708  -4.172 -12.905  0.00  0.00    +0.000 A 
ENDBRANCH  10  11
ENDBRANCH   1  10
TORSDOF 2
ENDMDL
MODEL 3
REMARK VINA RESULT:    -5.163     12.562     14.073
REMARK INTER + INTRA:          -5.895
REMARK INTER:                  -5.714
REMARK INTRA:                  -0.181
REMARK UNBOUND:                -0.128
REMARK  Name = 1550473
REMARK  2 active torsions:
REMARK  status: ('A' for Active; 'I' for Inactive)
REMARK    1  A    between atoms: N_1  and  C_4
REMARK    2  A    between atoms: C_4  and  C_5
REMARK                            x       y       z     vdW  Elec       q    Type
REMARK                         _______ _______ _______ _____ _____    ______ ____
ROOT
ATOM      1  N   UNL     1       3.969  -1.090   1.470  0.00  0.00    -0.354 N 
ATOM      2  N   UNL     1       2.088  -1.463   2.769  0.00  0.00    -0.372 N 
ATOM      3  N   UNL     1       3.251  -3.267   1.956  0.00  0.00    -0.372 N 
ATOM      4  C   UNL     1       3.116  -1.940   2.056  0.00  0.00    +0.166 C 
ATOM      5  H   UNL     1       3.794  -0.095   1.558  0.00  0.00    +0.163 HD
ATOM      6  H   UNL     1       1.430  -2.080   3.225  0.00  0.00    +0.159 HD
ATOM      7  H   UNL     1       1.942  -0.469   2.894  0.00  0.00    +0.159 HD
ATOM      8  H   UNL     1       4.002  -3.690   1.427  0.00  0.00    +0.159 HD
ATOM      9  H   UNL     1       2.596  -3.901   2.396  0.00  0.00    +0.159 HD
ENDROOT
BRANCH   1  10
ATOM     10  C   UNL     1       5.150  -1.506   0.716  0.00  0.00    +0.151 C 
BRANCH  10  11
ATOM     11  C   UNL     1       4.849  -1.422  -0.755  0.00  0.00    -0.028 A 
ATOM     12  C   UNL     1       4.815  -2.582  -1.542  0.00  0.00    +0.005 A 
ATOM     13  C   UNL     1       4.592  -0.185  -1.366  0.00  0.00    +0.005 A 
ATOM     14  C   UNL     1       4.506  -2.507  -2.903  0.00  0.00    +0.000 A 
ATOM     15  C   UNL     1       4.284  -0.115  -2.725  0.00  0.00    +0.000 A 
ATOM     16  C   UNL     1       4.239  -1.276  -3.492  0.00  0.00    +0.000 A 
ENDBRANCH  10  11
ENDBRANCH   1  10
TORSDOF 2
ENDMDL
MODEL 4
REMARK VINA RESULT:    -5.067     23.589     24.999
REMARK INTER + INTRA:          -5.788
REMARK INTER:                  -5.663
REMARK INTRA:                  -0.125
REMARK UNBOUND:                -0.128
REMARK  Name = 1550473
REMARK  2 active torsions:
REMARK  status: ('A' for Active; 'I' for Inactive)
REMARK    1  A    between atoms: N_1  and  C_4
REMARK    2  A    between atoms: C_4  and  C_5
REMARK                            x       y       z     vdW  Elec       q    Type
REMARK                         _______ _______ _______ _____ _____    ______ ____
ROOT
ATOM      1  N   UNL     1      -3.797   1.295  11.344  0.00  0.00    -0.354 N 
ATOM      2  N   UNL     1      -4.326  -0.542  10.037  0.00  0.00    -0.372 N 
ATOM      3  N   UNL     1      -3.249  -0.876  12.035  0.00  0.00    -0.372 N 
ATOM      4  C   UNL     1      -3.786  -0.030  11.149  0.00  0.00    +0.166 C 
ATOM      5  H   UNL     1      -4.192   1.885  10.621  0.00  0.00    +0.163 HD
ATOM      6  H   UNL     1      -4.336  -1.538   9.864  0.00  0.00    +0.159 HD
ATOM      7  H   UNL     1      -4.762   0.046   9.337  0.00  0.00    +0.159 HD
ATOM      8  H   UNL     1      -2.819  -0.553  12.892  0.00  0.00    +0.159 HD
ATOM      9  H   UNL     1      -3.238  -1.876  11.874  0.00  0.00    +0.159 HD
ENDROOT
BRANCH   1  10
ATOM     10  C   UNL     1      -3.283   1.949  12.546  0.00  0.00    +0.151 C 
BRANCH  10  11
ATOM     11  C   UNL     1      -3.050   3.406  12.251  0.00  0.00    -0.028 A 
ATOM     12  C   UNL     1      -2.876   3.846  10.931  0.00  0.00    +0.005 A 
ATOM     13  C   UNL     1      -3.009   4.351  13.288  0.00  0.00    +0.005 A 
ATOM     14  C   UNL     1      -2.690   5.203  10.655  0.00  0.00    +0.000 A 
ATOM     15  C   UNL     1      -2.823   5.704  13.007  0.00  0.00    +0.000 A 
ATOM     16  C   UNL     1      -2.666   6.130  11.691  0.00  0.00    +0.000 A 
ENDBRANCH  10  11
ENDBRANCH   1  10
TORSDOF 2
ENDMDL
MODEL 5
REMARK VINA RESULT:    -5.005     20.456     22.146
REMARK INTER + INTRA:          -5.718
REMARK INTER:                  -5.604
REMARK INTRA:                  -0.114
REMARK UNBOUND:                -0.128
REMARK  Name = 1550473
REMARK  2 active torsions:
REMARK  status: ('A' for Active; 'I' for Inactive)
REMARK    1  A    between atoms: N_1  and  C_4
REMARK    2  A    between atoms: C_4  and  C_5
REMARK                            x       y       z     vdW  Elec       q    Type
REMARK                         _______ _______ _______ _____ _____    ______ ____
ROOT
ATOM      1  N   UNL     1      -1.647 -11.332   7.030  0.00  0.00    -0.354 N 
ATOM      2  N   UNL     1      -1.980 -12.646   5.152  0.00  0.00    -0.372 N 
ATOM      3  N   UNL     1      -2.080 -10.363   4.941  0.00  0.00    -0.372 N 
ATOM      4  C   UNL     1      -1.901 -11.436   5.719  0.00  0.00    +0.166 C 
ATOM      5  H   UNL     1      -1.551 -12.184   7.571  0.00  0.00    +0.163 HD
ATOM      6  H   UNL     1      -2.166 -12.756   4.164  0.00  0.00    +0.159 HD
ATOM      7  H   UNL     1      -1.838 -13.495   5.686  0.00  0.00    +0.159 HD
ATOM      8  H   UNL     1      -2.039  -9.422   5.308  0.00  0.00    +0.159 HD
ATOM      9  H   UNL     1      -2.279 -10.453   3.952  0.00  0.00    +0.159 HD
ENDROOT
BRANCH   1  10
ATOM     10  C   UNL     1      -1.488 -10.061   7.734  0.00  0.00    +0.151 C 
BRANCH  10  11
ATOM     11  C   UNL     1      -0.924 -10.325   9.103  0.00  0.00    -0.028 A 
ATOM     12  C   UNL     1      -1.422  -9.642  10.222  0.00  0.00    +0.005 A 
ATOM     13  C   UNL     1       0.105 -11.261   9.288  0.00  0.00    +0.005 A 
ATOM     14  C   UNL     1      -0.919  -9.908  11.498  0.00  0.00    +0.000 A 
ATOM     15  C   UNL     1       0.605 -11.524  10.564  0.00  0.00    +0.000 A 
ATOM     16  C   UNL     1       0.091 -10.849  11.668  0.00  0.00    +0.000 A 
ENDBRANCH  10  11
ENDBRANCH   1  10
TORSDOF 2
ENDMDL
MODEL 6
REMARK VINA RESULT:    -4.853     14.776     16.054
REMARK INTER + INTRA:          -5.548
REMARK INTER:                  -5.404
REMARK INTRA:                  -0.144
REMARK UNBOUND:                -0.128
REMARK  Name = 1550473
REMARK  2 active torsions:
REMARK  status: ('A' for Active; 'I' for Inactive)
REMARK    1  A    between atoms: N_1  and  C_4
REMARK    2  A    between atoms: C_4  and  C_5
REMARK                            x       y       z     vdW  Elec       q    Type
REMARK                         _______ _______ _______ _____ _____    ______ ____
ROOT
ATOM      1  N   UNL     1       3.389  -1.301   1.390  0.00  0.00    -0.354 N 
ATOM      2  N   UNL     1       5.428  -2.151   0.694  0.00  0.00    -0.372 N 
ATOM      3  N   UNL     1       3.753  -3.613   1.261  0.00  0.00    -0.372 N 
ATOM      4  C   UNL     1       4.176  -2.352   1.120  0.00  0.00    +0.166 C 
ATOM      5  H   UNL     1       3.779  -0.371   1.292  0.00  0.00    +0.163 HD
ATOM      6  H   UNL     1       6.044  -2.924   0.479  0.00  0.00    +0.159 HD
ATOM      7  H   UNL     1       5.800  -1.219   0.552  0.00  0.00    +0.159 HD
ATOM      8  H   UNL     1       2.821  -3.832   1.585  0.00  0.00    +0.159 HD
ATOM      9  H   UNL     1       4.358  -4.400   1.063  0.00  0.00    +0.159 HD
ENDROOT
BRANCH   1  10
ATOM     10  C   UNL     1       1.993  -1.411   1.808  0.00  0.00    +0.151 C 
BRANCH  10  11
ATOM     11  C   UNL     1       1.787  -0.592   3.053  0.00  0.00    -0.028 A 
ATOM     12  C   UNL     1       0.588  -0.684   3.775  0.00  0.00    +0.005 A 
ATOM     13  C   UNL     1       2.789   0.273   3.518  0.00  0.00    +0.005 A 
ATOM     14  C   UNL     1       0.408   0.055   4.947  0.00  0.00    +0.000 A 
ATOM     15  C   UNL     1       2.605   1.009   4.688  0.00  0.00    +0.000 A 
ATOM     16  C   UNL     1       1.416   0.898   5.404  0.00  0.00    +0.000 A 
ENDBRANCH  10  11
ENDBRANCH   1  10
TORSDOF 2
ENDMDL
MODEL 7
REMARK VINA RESULT:    -4.799     15.628     16.952
REMARK INTER + INTRA:          -5.488
REMARK INTER:                  -5.388
REMARK INTRA:                  -0.100
REMARK UNBOUND:                -0.128
REMARK  Name = 1550473
REMARK  2 active torsions:
REMARK  status: ('A' for Active; 'I' for Inactive)
REMARK    1  A    between atoms: N_1  and  C_4
REMARK    2  A    between atoms: C_4  and  C_5
REMARK                            x       y       z     vdW  Elec       q    Type
REMARK                         _______ _______ _______ _____ _____    ______ ____
ROOT
ATOM      1  N   UNL     1       3.388  -1.565   3.129  0.00  0.00    -0.354 N 
ATOM      2  N   UNL     1       5.167  -3.001   2.761  0.00  0.00    -0.372 N 
ATOM      3  N   UNL     1       3.173  -3.412   1.703  0.00  0.00    -0.372 N 
ATOM      4  C   UNL     1       3.896  -2.651   2.532  0.00  0.00    +0.166 C 
ATOM      5  H   UNL     1       3.979  -1.047   3.770  0.00  0.00    +0.163 HD
ATOM      6  H   UNL     1       5.579  -3.814   2.323  0.00  0.00    +0.159 HD
ATOM      7  H   UNL     1       5.769  -2.456   3.367  0.00  0.00    +0.159 HD
ATOM      8  H   UNL     1       2.206  -3.205   1.493  0.00  0.00    +0.159 HD
ATOM      9  H   UNL     1       3.564  -4.236   1.264  0.00  0.00    +0.159 HD
ENDROOT
BRANCH   1  10
ATOM     10  C   UNL     1       2.032  -1.067   2.905  0.00  0.00    +0.151 C 
BRANCH  10  11
ATOM     11  C   UNL     1       1.799   0.135   3.778  0.00  0.00    -0.028 A 
ATOM     12  C   UNL     1       2.626   1.263   3.671  0.00  0.00    +0.005 A 
ATOM     13  C   UNL     1       0.751   0.154   4.710  0.00  0.00    +0.005 A 
ATOM     14  C   UNL     1       2.391   2.392   4.461  0.00  0.00    +0.000 A 
ATOM     15  C   UNL     1       0.521   1.282   5.498  0.00  0.00    +0.000 A 
ATOM     16  C   UNL     1       1.339   2.402   5.371  0.00  0.00    +0.000 A 
ENDBRANCH  10  11
ENDBRANCH   1  10
TORSDOF 2
ENDMDL
MODEL 8
REMARK VINA RESULT:    -4.737     22.343     24.154
REMARK INTER + INTRA:          -5.418
REMARK INTER:                  -5.291
REMARK INTRA:                  -0.127
REMARK UNBOUND:                -0.128
REMARK  Name = 1550473
REMARK  2 active torsions:
REMARK  status: ('A' for Active; 'I' for Inactive)
REMARK    1  A    between atoms: N_1  and  C_4
REMARK    2  A    between atoms: C_4  and  C_5
REMARK                            x       y       z     vdW  Elec       q    Type
REMARK                         _______ _______ _______ _____ _____    ______ ____
ROOT
ATOM      1  N   UNL     1       1.534   7.223   7.230  0.00  0.00    -0.354 N 
ATOM      2  N   UNL     1       1.715   4.917   7.356  0.00  0.00    -0.372 N 
ATOM      3  N   UNL     1       3.482   6.125   6.528  0.00  0.00    -0.372 N 
ATOM      4  C   UNL     1       2.245   6.104   7.036  0.00  0.00    +0.166 C 
ATOM      5  H   UNL     1       0.590   7.137   7.590  0.00  0.00    +0.163 HD
ATOM      6  H   UNL     1       2.229   4.056   7.224  0.00  0.00    +0.159 HD
ATOM      7  H   UNL     1       0.789   4.838   7.758  0.00  0.00    +0.159 HD
ATOM      8  H   UNL     1       3.936   6.987   6.261  0.00  0.00    +0.159 HD
ATOM      9  H   UNL     1       4.007   5.273   6.378  0.00  0.00    +0.159 HD
ENDROOT
BRANCH   1  10
ATOM     10  C   UNL     1       2.039   8.569   6.964  0.00  0.00    +0.151 C 
BRANCH  10  11
ATOM     11  C   UNL     1       2.326   9.252   8.273  0.00  0.00    -0.028 A 
ATOM     12  C   UNL     1       3.359   8.794   9.103  0.00  0.00    +0.005 A 
ATOM     13  C   UNL     1       1.573  10.362   8.685  0.00  0.00    +0.005 A 
ATOM     14  C   UNL     1       3.646   9.446  10.305  0.00  0.00    +0.000 A 
ATOM     15  C   UNL     1       1.862  11.010   9.886  0.00  0.00    +0.000 A 
ATOM     16  C   UNL     1       2.900  10.554  10.694  0.00  0.00    +0.000 A 
ENDBRANCH  10  11
ENDBRANCH   1  10
TORSDOF 2
ENDMDL
MODEL 9
REMARK VINA RESULT:    -4.690     13.847     15.543
REMARK INTER + INTRA:          -5.366
REMARK INTER:                  -5.241
REMARK INTRA:                  -0.125
REMARK UNBOUND:                -0.128
REMARK  Name = 1550473
REMARK  2 active torsions:
REMARK  status: ('A' for Active; 'I' for Inactive)
REMARK    1  A    between atoms: N_1  and  C_4
REMARK    2  A    between atoms: C_4  and  C_5
REMARK                            x       y       z     vdW  Elec       q    Type
REMARK                         _______ _______ _______ _____ _____    ______ ____
ROOT
ATOM      1  N   UNL     1       1.129   0.007   2.847  0.00  0.00    -0.354 N 
ATOM      2  N   UNL     1       1.348   0.905   4.971  0.00  0.00    -0.372 N 
ATOM      3  N   UNL     1       0.264  -1.102   4.721  0.00  0.00    -0.372 N 
ATOM      4  C   UNL     1       0.911  -0.072   4.166  0.00  0.00    +0.166 C 
ATOM      5  H   UNL     1       1.598   0.829   2.485  0.00  0.00    +0.163 HD
ATOM      6  H   UNL     1       1.201   0.871   5.971  0.00  0.00    +0.159 HD
ATOM      7  H   UNL     1       1.857   1.703   4.611  0.00  0.00    +0.159 HD
ATOM      8  H   UNL     1      -0.096  -1.869   4.169  0.00  0.00    +0.159 HD
ATOM      9  H   UNL     1       0.097  -1.148   5.719  0.00  0.00    +0.159 HD
ENDROOT
BRANCH   1  10
ATOM     10  C   UNL     1       0.741  -1.029   1.891  0.00  0.00    +0.151 C 
BRANCH  10  11
ATOM     11  C   UNL     1       1.966  -1.505   1.160  0.00  0.00    -0.028 A 
ATOM     12  C   UNL     1       1.851  -2.127  -0.092  0.00  0.00    +0.005 A 
ATOM     13  C   UNL     1       3.245  -1.333   1.711  0.00  0.00    +0.005 A 
ATOM     14  C   UNL     1       2.990  -2.543  -0.785  0.00  0.00    +0.000 A 
ATOM     15  C   UNL     1       4.380  -1.751   1.017  0.00  0.00    +0.000 A 
ATOM     16  C   UNL     1       4.253  -2.354  -0.232  0.00  0.00    +0.000 A 
ENDBRANCH  10  11
ENDBRANCH   1  10
TORSDOF 2
ENDMDL
