MODEL 1
REMARK VINA RESULT:    -4.911      0.000      0.000
REMARK INTER + INTRA:          -5.582
REMARK INTER:                  -5.486
REMARK INTRA:                  -0.096
REMARK UNBOUND:                -0.096
REMARK  Name = 1550473
REMARK  2 active torsions:
REMARK  status: ('A' for Active; 'I' for Inactive)
REMARK    1  A    between atoms: N_1  and  C_4
REMARK    2  A    between atoms: C_4  and  C_5
REMARK                            x       y       z     vdW  Elec       q    Type
REMARK                         _______ _______ _______ _____ _____    ______ ____
ROOT
ATOM      1  N   UNL     1      -5.663  -7.946  13.428  0.00  0.00    -0.354 N 
ATOM      2  N   UNL     1      -6.224  -6.450  15.104  0.00  0.00    -0.372 N 
ATOM      3  N   UNL     1      -4.243  -7.598  15.260  0.00  0.00    -0.372 N 
ATOM      4  C   UNL     1      -5.370  -7.342  14.587  0.00  0.00    +0.166 C 
ATOM      5  H   UNL     1      -6.547  -7.730  12.982  0.00  0.00    +0.163 HD
ATOM      6  H   UNL     1      -6.029  -5.976  15.976  0.00  0.00    +0.159 HD
ATOM      7  H   UNL     1      -7.086  -6.202  14.634  0.00  0.00    +0.159 HD
ATOM      8  H   UNL     1      -3.561  -8.266  14.926  0.00  0.00    +0.159 HD
ATOM      9  H   UNL     1      -4.036  -7.143  16.140  0.00  0.00    +0.159 HD
ENDROOT
BRANCH   1  10
ATOM     10  C   UNL     1      -4.777  -8.893  12.753  0.00  0.00    +0.151 C 
BRANCH  10  11
ATOM     11  C   UNL     1      -5.094  -8.901  11.283  0.00  0.00    -0.028 A 
ATOM     12  C   UNL     1      -4.376  -8.087  10.395  0.00  0.00    +0.005 A 
ATOM     13  C   UNL     1      -6.109  -9.724  10.771  0.00  0.00    +0.005 A 
ATOM     14  C   UNL     1      -4.650  -8.116   9.025  0.00  0.00    +0.000 A 
ATOM     15  C   UNL     1      -6.380  -9.750   9.403  0.00  0.00    +0.000 A 
ATOM     16  C   UNL     1      -5.649  -8.948   8.530  0.00  0.00    +0.000 A 
ENDBRANCH  10  11
ENDBRANCH   1  10
TORSDOF 2
ENDMDL
MODEL 2
REMARK VINA RESULT:    -4.664     24.994     26.371
REMARK INTER + INTRA:          -5.305
REMARK INTER:                  -5.158
REMARK INTRA:                  -0.147
REMARK UNBOUND:                -0.096
REMARK  Name = 1550473
REMARK  2 active torsions:
REMARK  status: ('A' for Active; 'I' for Inactive)
REMARK    1  A    between atoms: N_1  and  C_4
REMARK    2  A    between atoms: C_4  and  C_5
REMARK                            x       y       z     vdW  Elec       q    Type
REMARK                         _______ _______ _______ _____ _____    ______ ____
ROOT
ATOM      1  N   UNL     1       4.905   8.587  -2.563  0.00  0.00    -0.354 N 
ATOM      2  N   UNL     1       2.690   9.204  -2.285  0.00  0.00    -0.372 N 
ATOM      3  N   UNL     1       3.415   8.585  -4.372  0.00  0.00    -0.372 N 
ATOM      4  C   UNL     1       3.685   8.787  -3.078  0.00  0.00    +0.166 C 
ATOM      5  H   UNL     1       5.052   8.788  -1.581  0.00  0.00    +0.163 HD
ATOM      6  H   UNL     1       1.758   9.360  -2.644  0.00  0.00    +0.159 HD
ATOM      7  H   UNL     1       2.829   9.360  -1.294  0.00  0.00    +0.159 HD
ATOM      8  H   UNL     1       4.124   8.276  -5.024  0.00  0.00    +0.159 HD
ATOM      9  H   UNL     1       2.492   8.747  -4.753  0.00  0.00    +0.159 HD
ENDROOT
BRANCH   1  10
ATOM     10  C   UNL     1       6.043   8.083  -3.330  0.00  0.00    +0.151 C 
BRANCH  10  11
ATOM     11  C   UNL     1       7.113   9.139  -3.372  0.00  0.00    -0.028 A 
ATOM     12  C   UNL     1       7.532   9.679  -4.597  0.00  0.00    +0.005 A 
ATOM     13  C   UNL     1       7.708   9.608  -2.191  0.00  0.00    +0.005 A 
ATOM     14  C   UNL     1       8.504  10.682  -4.635  0.00  0.00    +0.000 A 
ATOM     15  C   UNL     1       8.679  10.609  -2.233  0.00  0.00    +0.000 A 
ATOM     16  C   UNL     1       9.075  11.147  -3.455  0.00  0.00    +0.000 A 
ENDBRANCH  10  11
ENDBRANCH   1  10
TORSDOF 2
ENDMDL
MODEL 3
REMARK VINA RESULT:    -4.589     26.692     27.884
REMARK INTER + INTRA:          -5.221
REMARK INTER:                  -5.083
REMARK INTRA:                  -0.138
REMARK UNBOUND:                -0.096
REMARK  Name = 1550473
REMARK  2 active torsions:
REMARK  status: ('A' for Active; 'I' for Inactive)
REMARK    1  A    between atoms: N_1  and  C_4
REMARK    2  A    between atoms: C_4  and  C_5
REMARK                            x       y       z     vdW  Elec       q    Type
REMARK                         _______ _______ _______ _____ _____    ______ ____
ROOT
ATOM      1  N   UNL     1       6.297   1.009 -11.168  0.00  0.00    -0.354 N 
ATOM      2  N   UNL     1       8.472   1.720 -10.810  0.00  0.00    -0.372 N 
ATOM      3  N   UNL     1       6.816   2.469  -9.410  0.00  0.00    -0.372 N 
ATOM      4  C   UNL     1       7.180   1.730 -10.463  0.00  0.00    +0.166 C 
ATOM      5  H   UNL     1       6.632   0.493 -11.973  0.00  0.00    +0.163 HD
ATOM      6  H   UNL     1       9.162   2.251 -10.295  0.00  0.00    +0.159 HD
ATOM      7  H   UNL     1       8.811   1.167 -11.588  0.00  0.00    +0.159 HD
ATOM      8  H   UNL     1       5.855   2.524  -9.100  0.00  0.00    +0.159 HD
ATOM      9  H   UNL     1       7.490   3.017  -8.889  0.00  0.00    +0.159 HD
ENDROOT
BRANCH   1  10
ATOM     10  C   UNL     1       4.876   0.909 -10.840  0.00  0.00    +0.151 C 
BRANCH  10  11
ATOM     11  C   UNL     1       4.068   1.139 -12.087  0.00  0.00    -0.028 A 
ATOM     12  C   UNL     1       2.724   1.534 -12.001  0.00  0.00    +0.005 A 
ATOM     13  C   UNL     1       4.640   0.971 -13.357  0.00  0.00    +0.005 A 
ATOM     14  C   UNL     1       1.981   1.777 -13.159  0.00  0.00    +0.000 A 
ATOM     15  C   UNL     1       3.895   1.215 -14.510  0.00  0.00    +0.000 A 
ATOM     16  C   UNL     1       2.566   1.620 -14.411  0.00  0.00    +0.000 A 
ENDBRANCH  10  11
ENDBRANCH   1  10
TORSDOF 2
ENDMDL
MODEL 4
REMARK VINA RESULT:    -4.444     26.992     27.658
REMARK INTER + INTRA:          -5.059
REMARK INTER:                  -4.961
REMARK INTRA:                  -0.098
REMARK UNBOUND:                -0.096
REMARK  Name = 1550473
REMARK  2 active torsions:
REMARK  status: ('A' for Active; 'I' for Inactive)
REMARK    1  A    between atoms: N_1  and  C_4
REMARK    2  A    between atoms: C_4  and  C_5
REMARK                            x       y       z     vdW  Elec       q    Type
REMARK                         _______ _______ _______ _____ _____    ______ ____
ROOT
ATOM      1  N   UNL     1       5.662   1.891 -10.332  0.00  0.00    -0.354 N 
ATOM      2  N   UNL     1       7.573   0.674 -10.815  0.00  0.00    -0.372 N 
ATOM      3  N   UNL     1       7.224   2.667 -11.897  0.00  0.00    -0.372 N 
ATOM      4  C   UNL     1       6.807   1.754 -11.014  0.00  0.00    +0.166 C 
ATOM      5  H   UNL     1       5.387   1.149  -9.699  0.00  0.00    +0.163 HD
ATOM      6  H   UNL     1       8.444   0.546 -11.312  0.00  0.00    +0.159 HD
ATOM      7  H   UNL     1       7.318  -0.044 -10.148  0.00  0.00    +0.159 HD
ATOM      8  H   UNL     1       6.689   3.502 -12.097  0.00  0.00    +0.159 HD
ATOM      9  H   UNL     1       8.087   2.551 -12.413  0.00  0.00    +0.159 HD
ENDROOT
BRANCH   1  10
ATOM     10  C   UNL     1       4.783   3.055 -10.435  0.00  0.00    +0.151 C 
BRANCH  10  11
ATOM     11  C   UNL     1       3.621   2.715 -11.327  0.00  0.00    -0.028 A 
ATOM     12  C   UNL     1       2.756   3.720 -11.784  0.00  0.00    +0.005 A 
ATOM     13  C   UNL     1       3.382   1.390 -11.723  0.00  0.00    +0.005 A 
ATOM     14  C   UNL     1       1.694   3.409 -12.636  0.00  0.00    +0.000 A 
ATOM     15  C   UNL     1       2.320   1.083 -12.573  0.00  0.00    +0.000 A 
ATOM     16  C   UNL     1       1.478   2.094 -13.032  0.00  0.00    +0.000 A 
ENDBRANCH  10  11
ENDBRANCH   1  10
TORSDOF 2
ENDMDL
MODEL 5
REMARK VINA RESULT:    -4.375     28.060     29.765
REMARK INTER + INTRA:          -4.983
REMARK INTER:                  -4.860
REMARK INTRA:                  -0.123
REMARK UNBOUND:                -0.096
REMARK  Name = 1550473
REMARK  2 active torsions:
REMARK  status: ('A' for Active; 'I' for Inactive)
REMARK    1  A    between atoms: N_1  and  C_4
REMARK    2  A    between atoms: C_4  and  C_5
REMARK                            x       y       z     vdW  Elec       q    Type
REMARK                         _______ _______ _______ _____ _____    ______ ____
ROOT
ATOM      1  N   UNL     1       1.624   2.791 -15.539  0.00  0.00    -0.354 N 
ATOM      2  N   UNL     1      -0.235   3.904 -16.355  0.00  0.00    -0.372 N 
ATOM      3  N   UNL     1       1.145   2.820 -17.833  0.00  0.00    -0.372 N 
ATOM      4  C   UNL     1       0.858   3.163 -16.572  0.00  0.00    +0.166 C 
ATOM      5  H   UNL     1       1.369   3.109 -14.611  0.00  0.00    +0.163 HD
ATOM      6  H   UNL     1      -0.835   4.197 -17.115  0.00  0.00    +0.159 HD
ATOM      7  H   UNL     1      -0.513   4.182 -15.422  0.00  0.00    +0.159 HD
ATOM      8  H   UNL     1       1.960   2.267 -18.065  0.00  0.00    +0.159 HD
ATOM      9  H   UNL     1       0.564   3.114 -18.608  0.00  0.00    +0.159 HD
ENDROOT
BRANCH   1  10
ATOM     10  C   UNL     1       2.806   1.939 -15.662  0.00  0.00    +0.151 C 
BRANCH  10  11
ATOM     11  C   UNL     1       3.227   1.482 -14.293  0.00  0.00    -0.028 A 
ATOM     12  C   UNL     1       2.331   1.539 -13.216  0.00  0.00    +0.005 A 
ATOM     13  C   UNL     1       4.520   0.985 -14.067  0.00  0.00    +0.005 A 
ATOM     14  C   UNL     1       2.712   1.087 -11.950  0.00  0.00    +0.000 A 
ATOM     15  C   UNL     1       4.897   0.535 -12.802  0.00  0.00    +0.000 A 
ATOM     16  C   UNL     1       3.992   0.584 -11.744  0.00  0.00    +0.000 A 
ENDBRANCH  10  11
ENDBRANCH   1  10
TORSDOF 2
ENDMDL
MODEL 6
REMARK VINA RESULT:    -4.301     27.007     28.070
REMARK INTER + INTRA:          -4.900
REMARK INTER:                  -4.729
REMARK INTRA:                  -0.171
REMARK UNBOUND:                -0.096
REMARK  Name = 1550473
REMARK  2 active torsions:
REMARK  status: ('A' for Active; 'I' for Inactive)
REMARK    1  A    between atoms: N_1  and  C_4
REMARK    2  A    between atoms: C_4  and  C_5
REMARK                            x       y       z     vdW  Elec       q    Type
REMARK                         _______ _______ _______ _____ _____    ______ ____
ROOT
ATOM      1  N   UNL     1       1.599   4.326 -11.326  0.00  0.00    -0.354 N 
ATOM      2  N   UNL     1       2.348   6.377 -10.555  0.00  0.00    -0.372 N 
ATOM      3  N   UNL     1       2.325   5.983 -12.815  0.00  0.00    -0.372 N 
ATOM      4  C   UNL     1       2.086   5.549 -11.573  0.00  0.00    +0.166 C 
ATOM      5  H   UNL     1       1.469   4.045 -10.361  0.00  0.00    +0.163 HD
ATOM      6  H   UNL     1       2.713   7.307 -10.710  0.00  0.00    +0.159 HD
ATOM      7  H   UNL     1       2.174   6.111  -9.593  0.00  0.00    +0.159 HD
ATOM      8  H   UNL     1       2.154   5.405 -13.627  0.00  0.00    +0.159 HD
ATOM      9  H   UNL     1       2.701   6.907 -12.991  0.00  0.00    +0.159 HD
ENDROOT
BRANCH   1  10
ATOM     10  C   UNL     1       1.231   3.367 -12.366  0.00  0.00    +0.151 C 
BRANCH  10  11
ATOM     11  C   UNL     1       2.361   2.394 -12.561  0.00  0.00    -0.028 A 
ATOM     12  C   UNL     1       2.820   2.086 -13.850  0.00  0.00    +0.005 A 
ATOM     13  C   UNL     1       2.981   1.783 -11.461  0.00  0.00    +0.005 A 
ATOM     14  C   UNL     1       3.890   1.205 -14.030  0.00  0.00    +0.000 A 
ATOM     15  C   UNL     1       4.048   0.904 -11.645  0.00  0.00    +0.000 A 
ATOM     16  C   UNL     1       4.504   0.617 -12.929  0.00  0.00    +0.000 A 
ENDBRANCH  10  11
ENDBRANCH   1  10
TORSDOF 2
ENDMDL
MODEL 7
REMARK VINA RESULT:    -4.278     27.711     29.189
REMARK INTER + INTRA:          -4.875
REMARK INTER:                  -4.745
REMARK INTRA:                  -0.129
REMARK UNBOUND:                -0.096
REMARK  Name = 1550473
REMARK  2 active torsions:
REMARK  status: ('A' for Active; 'I' for Inactive)
REMARK    1  A    between atoms: N_1  and  C_4
REMARK    2  A    between atoms: C_4  and  C_5
REMARK                            x       y       z     vdW  Elec       q    Type
REMARK                         _______ _______ _______ _____ _____    ______ ____
ROOT
ATOM      1  N   UNL     1     -12.059  -4.385 -14.919  0.00  0.00    -0.354 N 
ATOM      2  N   UNL     1     -12.564  -6.622 -14.592  0.00  0.00    -0.372 N 
ATOM      3  N   UNL     1     -14.128  -5.038 -14.034  0.00  0.00    -0.372 N 
ATOM      4  C   UNL     1     -12.916  -5.333 -14.516  0.00  0.00    +0.166 C 
ATOM      5  H   UNL     1     -11.144  -4.672 -15.246  0.00  0.00    +0.163 HD
ATOM      6  H   UNL     1     -13.191  -7.359 -14.298  0.00  0.00    +0.159 HD
ATOM      7  H   UNL     1     -11.666  -6.908 -14.962  0.00  0.00    +0.159 HD
ATOM      8  H   UNL     1     -14.452  -4.085 -13.945  0.00  0.00    +0.159 HD
ATOM      9  H   UNL     1     -14.765  -5.762 -13.724  0.00  0.00    +0.159 HD
ENDROOT
BRANCH   1  10
ATOM     10  C   UNL     1     -12.365  -2.956 -14.928  0.00  0.00    +0.151 C 
BRANCH  10  11
ATOM     11  C   UNL     1     -11.557  -2.287 -16.006  0.00  0.00    -0.028 A 
ATOM     12  C   UNL     1     -10.596  -3.010 -16.727  0.00  0.00    +0.005 A 
ATOM     13  C   UNL     1     -11.753  -0.932 -16.315  0.00  0.00    +0.005 A 
ATOM     14  C   UNL     1      -9.867  -2.397 -17.749  0.00  0.00    +0.000 A 
ATOM     15  C   UNL     1     -11.022  -0.324 -17.335  0.00  0.00    +0.000 A 
ATOM     16  C   UNL     1     -10.081  -1.057 -18.053  0.00  0.00    +0.000 A 
ENDBRANCH  10  11
ENDBRANCH   1  10
TORSDOF 2
ENDMDL
MODEL 8
REMARK VINA RESULT:    -4.235      9.491     10.147
REMARK INTER + INTRA:          -4.826
REMARK INTER:                  -4.726
REMARK INTRA:                  -0.099
REMARK UNBOUND:                -0.096
REMARK  Name = 1550473
REMARK  2 active torsions:
REMARK  status: ('A' for Active; 'I' for Inactive)
REMARK    1  A    between atoms: N_1  and  C_4
REMARK    2  A    between atoms: C_4  and  C_5
REMARK                            x       y       z     vdW  Elec       q    Type
REMARK                         _______ _______ _______ _____ _____    ______ ____
ROOT
ATOM      1  N   UNL     1     -14.703  -2.488   9.698  0.00  0.00    -0.354 N 
ATOM      2  N   UNL     1     -14.507  -1.069   7.879  0.00  0.00    -0.372 N 
ATOM      3  N   UNL     1     -13.081  -0.797   9.656  0.00  0.00    -0.372 N 
ATOM      4  C   UNL     1     -14.096  -1.460   9.091  0.00  0.00    +0.166 C 
ATOM      5  H   UNL     1     -15.486  -2.929   9.230  0.00  0.00    +0.163 HD
ATOM      6  H   UNL     1     -14.067  -0.298   7.395  0.00  0.00    +0.159 HD
ATOM      7  H   UNL     1     -15.261  -1.541   7.394  0.00  0.00    +0.159 HD
ATOM      8  H   UNL     1     -12.727  -1.039  10.572  0.00  0.00    +0.159 HD
ATOM      9  H   UNL     1     -12.635  -0.016   9.192  0.00  0.00    +0.159 HD
ENDROOT
BRANCH   1  10
ATOM     10  C   UNL     1     -14.297  -3.027  10.995  0.00  0.00    +0.151 C 
BRANCH  10  11
ATOM     11  C   UNL     1     -13.560  -4.320  10.782  0.00  0.00    -0.028 A 
ATOM     12  C   UNL     1     -12.953  -4.980  11.860  0.00  0.00    +0.005 A 
ATOM     13  C   UNL     1     -13.469  -4.893   9.504  0.00  0.00    +0.005 A 
ATOM     14  C   UNL     1     -12.293  -6.197  11.667  0.00  0.00    +0.000 A 
ATOM     15  C   UNL     1     -12.809  -6.107   9.315  0.00  0.00    +0.000 A 
ATOM     16  C   UNL     1     -12.224  -6.760  10.397  0.00  0.00    +0.000 A 
ENDBRANCH  10  11
ENDBRANCH   1  10
TORSDOF 2
ENDMDL
MODEL 9
REMARK VINA RESULT:    -4.223     27.609     29.229
REMARK INTER + INTRA:          -4.812
REMARK INTER:                  -4.699
REMARK INTRA:                  -0.114
REMARK UNBOUND:                -0.096
REMARK  Name = 1550473
REMARK  2 active torsions:
REMARK  status: ('A' for Active; 'I' for Inactive)
REMARK    1  A    between atoms: N_1  and  C_4
REMARK    2  A    between atoms: C_4  and  C_5
REMARK                            x       y       z     vdW  Elec       q    Type
REMARK                         _______ _______ _______ _____ _____    ______ ____
ROOT
ATOM      1  N   UNL     1       2.598   3.040 -12.923  0.00  0.00    -0.354 N 
ATOM      2  N   UNL     1       3.223   3.021 -10.693  0.00  0.00    -0.372 N 
ATOM      3  N   UNL     1       1.242   4.018 -11.281  0.00  0.00    -0.372 N 
ATOM      4  C   UNL     1       2.348   3.361 -11.647  0.00  0.00    +0.166 C 
ATOM      5  H   UNL     1       3.469   2.569 -13.139  0.00  0.00    +0.163 HD
ATOM      6  H   UNL     1       3.060   3.247  -9.721  0.00  0.00    +0.159 HD
ATOM      7  H   UNL     1       4.071   2.510 -10.906  0.00  0.00    +0.159 HD
ATOM      8  H   UNL     1       0.544   4.308 -11.953  0.00  0.00    +0.159 HD
ATOM      9  H   UNL     1       1.066   4.263 -10.314  0.00  0.00    +0.159 HD
ENDROOT
BRANCH   1  10
ATOM     10  C   UNL     1       1.684   3.316 -14.030  0.00  0.00    +0.151 C 
BRANCH  10  11
ATOM     11  C   UNL     1       1.896   2.292 -15.110  0.00  0.00    -0.028 A 
ATOM     12  C   UNL     1       3.190   1.862 -15.440  0.00  0.00    +0.005 A 
ATOM     13  C   UNL     1       0.807   1.742 -15.804  0.00  0.00    +0.005 A 
ATOM     14  C   UNL     1       3.385   0.888 -16.422  0.00  0.00    +0.000 A 
ATOM     15  C   UNL     1       1.006   0.771 -16.784  0.00  0.00    +0.000 A 
ATOM     16  C   UNL     1       2.295   0.342 -17.091  0.00  0.00    +0.000 A 
ENDBRANCH  10  11
ENDBRANCH   1  10
TORSDOF 2
ENDMDL
