MODEL 1
REMARK VINA RESULT:    -5.889      0.000      0.000
REMARK INTER + INTRA:          -6.667
REMARK INTER:                  -6.577
REMARK INTRA:                  -0.089
REMARK UNBOUND:                -0.089
REMARK  Name = 1550473
REMARK  2 active torsions:
REMARK  status: ('A' for Active; 'I' for Inactive)
REMARK    1  A    between atoms: N_1  and  C_4
REMARK    2  A    between atoms: C_4  and  C_5
REMARK                            x       y       z     vdW  Elec       q    Type
REMARK                         _______ _______ _______ _____ _____    ______ ____
ROOT
ATOM      1  N   UNL     1      -0.758  -7.027  -4.276  0.00  0.00    -0.354 N 
ATOM      2  N   UNL     1       1.107  -8.183  -5.017  0.00  0.00    -0.372 N 
ATOM      3  N   UNL     1       0.766  -7.958  -2.759  0.00  0.00    -0.372 N 
ATOM      4  C   UNL     1       0.360  -7.715  -4.010  0.00  0.00    +0.166 C 
ATOM      5  H   UNL     1      -0.995  -6.850  -5.246  0.00  0.00    +0.163 HD
ATOM      6  H   UNL     1       1.954  -8.708  -4.847  0.00  0.00    +0.159 HD
ATOM      7  H   UNL     1       0.843  -8.044  -5.985  0.00  0.00    +0.159 HD
ATOM      8  H   UNL     1       0.250  -7.628  -1.955  0.00  0.00    +0.159 HD
ATOM      9  H   UNL     1       1.617  -8.472  -2.569  0.00  0.00    +0.159 HD
ENDROOT
BRANCH   1  10
ATOM     10  C   UNL     1      -1.670  -6.521  -3.252  0.00  0.00    +0.151 C 
BRANCH  10  11
ATOM     11  C   UNL     1      -1.175  -5.186  -2.769  0.00  0.00    -0.028 A 
ATOM     12  C   UNL     1      -0.746  -5.022  -1.443  0.00  0.00    +0.005 A 
ATOM     13  C   UNL     1      -1.125  -4.082  -3.634  0.00  0.00    +0.005 A 
ATOM     14  C   UNL     1      -0.257  -3.790  -1.002  0.00  0.00    +0.000 A 
ATOM     15  C   UNL     1      -0.637  -2.853  -3.189  0.00  0.00    +0.000 A 
ATOM     16  C   UNL     1      -0.201  -2.708  -1.874  0.00  0.00    +0.000 A 
ENDBRANCH  10  11
ENDBRANCH   1  10
TORSDOF 2
ENDMDL
MODEL 2
REMARK VINA RESULT:    -5.830      7.782      8.720
REMARK INTER + INTRA:          -6.600
REMARK INTER:                  -6.428
REMARK INTRA:                  -0.172
REMARK UNBOUND:                -0.089
REMARK  Name = 1550473
REMARK  2 active torsions:
REMARK  status: ('A' for Active; 'I' for Inactive)
REMARK    1  A    between atoms: N_1  and  C_4
REMARK    2  A    between atoms: C_4  and  C_5
REMARK                            x       y       z     vdW  Elec       q    Type
REMARK                         _______ _______ _______ _____ _____    ______ ____
ROOT
ATOM      1  N   UNL     1       4.912  -4.652  -6.584  0.00  0.00    -0.354 N 
ATOM      2  N   UNL     1       2.961  -5.857  -6.258  0.00  0.00    -0.372 N 
ATOM      3  N   UNL     1       4.810  -6.940  -7.078  0.00  0.00    -0.372 N 
ATOM      4  C   UNL     1       4.242  -5.810  -6.643  0.00  0.00    +0.166 C 
ATOM      5  H   UNL     1       4.416  -3.824  -6.274  0.00  0.00    +0.163 HD
ATOM      6  H   UNL     1       2.431  -6.717  -6.288  0.00  0.00    +0.159 HD
ATOM      7  H   UNL     1       2.481  -5.038  -5.905  0.00  0.00    +0.159 HD
ATOM      8  H   UNL     1       5.772  -6.971  -7.389  0.00  0.00    +0.159 HD
ATOM      9  H   UNL     1       4.292  -7.809  -7.126  0.00  0.00    +0.159 HD
ENDROOT
BRANCH   1  10
ATOM     10  C   UNL     1       6.325  -4.506  -6.930  0.00  0.00    +0.151 C 
BRANCH  10  11
ATOM     11  C   UNL     1       6.441  -3.702  -8.195  0.00  0.00    -0.028 A 
ATOM     12  C   UNL     1       6.641  -2.315  -8.142  0.00  0.00    +0.005 A 
ATOM     13  C   UNL     1       6.357  -4.323  -9.451  0.00  0.00    +0.005 A 
ATOM     14  C   UNL     1       6.778  -1.573  -9.318  0.00  0.00    +0.000 A 
ATOM     15  C   UNL     1       6.494  -3.578 -10.622  0.00  0.00    +0.000 A 
ATOM     16  C   UNL     1       6.707  -2.203 -10.555  0.00  0.00    +0.000 A 
ENDBRANCH  10  11
ENDBRANCH   1  10
TORSDOF 2
ENDMDL
MODEL 3
REMARK VINA RESULT:    -5.732      1.926      2.988
REMARK INTER + INTRA:          -6.492
REMARK INTER:                  -6.350
REMARK INTRA:                  -0.142
REMARK UNBOUND:                -0.089
REMARK  Name = 1550473
REMARK  2 active torsions:
REMARK  status: ('A' for Active; 'I' for Inactive)
REMARK    1  A    between atoms: N_1  and  C_4
REMARK    2  A    between atoms: C_4  and  C_5
REMARK                            x       y       z     vdW  Elec       q    Type
REMARK                         _______ _______ _______ _____ _____    ______ ____
ROOT
ATOM      1  N   UNL     1       1.752  -7.898  -4.189  0.00  0.00    -0.354 N 
ATOM      2  N   UNL     1       2.601  -9.666  -5.420  0.00  0.00    -0.372 N 
ATOM      3  N   UNL     1       3.243  -7.530  -5.959  0.00  0.00    -0.372 N 
ATOM      4  C   UNL     1       2.528  -8.351  -5.183  0.00  0.00    +0.166 C 
ATOM      5  H   UNL     1       1.211  -8.569  -3.656  0.00  0.00    +0.163 HD
ATOM      6  H   UNL     1       3.181 -10.038  -6.161  0.00  0.00    +0.159 HD
ATOM      7  H   UNL     1       2.095 -10.338  -4.856  0.00  0.00    +0.159 HD
ATOM      8  H   UNL     1       3.227  -6.527  -5.836  0.00  0.00    +0.159 HD
ATOM      9  H   UNL     1       3.820  -7.882  -6.713  0.00  0.00    +0.159 HD
ENDROOT
BRANCH   1  10
ATOM     10  C   UNL     1       1.644  -6.489  -3.814  0.00  0.00    +0.151 C 
BRANCH  10  11
ATOM     11  C   UNL     1       0.190  -6.109  -3.746  0.00  0.00    -0.028 A 
ATOM     12  C   UNL     1      -0.801  -7.098  -3.665  0.00  0.00    +0.005 A 
ATOM     13  C   UNL     1      -0.202  -4.762  -3.756  0.00  0.00    +0.005 A 
ATOM     14  C   UNL     1      -2.150  -6.745  -3.571  0.00  0.00    +0.000 A 
ATOM     15  C   UNL     1      -1.550  -4.414  -3.663  0.00  0.00    +0.000 A 
ATOM     16  C   UNL     1      -2.523  -5.405  -3.568  0.00  0.00    +0.000 A 
ENDBRANCH  10  11
ENDBRANCH   1  10
TORSDOF 2
ENDMDL
MODEL 4
REMARK VINA RESULT:    -5.704      7.595      8.482
REMARK INTER + INTRA:          -6.461
REMARK INTER:                  -6.354
REMARK INTRA:                  -0.107
REMARK UNBOUND:                -0.089
REMARK  Name = 1550473
REMARK  2 active torsions:
REMARK  status: ('A' for Active; 'I' for Inactive)
REMARK    1  A    between atoms: N_1  and  C_4
REMARK    2  A    between atoms: C_4  and  C_5
REMARK                            x       y       z     vdW  Elec       q    Type
REMARK                         _______ _______ _______ _____ _____    ______ ____
ROOT
ATOM      1  N   UNL     1       5.707  -5.033  -6.019  0.00  0.00    -0.354 N 
ATOM      2  N   UNL     1       6.454  -6.103  -4.106  0.00  0.00    -0.372 N 
ATOM      3  N   UNL     1       5.209  -7.288  -5.626  0.00  0.00    -0.372 N 
ATOM      4  C   UNL     1       5.784  -6.136  -5.264  0.00  0.00    +0.166 C 
ATOM      5  H   UNL     1       6.139  -4.183  -5.675  0.00  0.00    +0.163 HD
ATOM      6  H   UNL     1       6.532  -6.921  -3.517  0.00  0.00    +0.159 HD
ATOM      7  H   UNL     1       6.924  -5.264  -3.786  0.00  0.00    +0.159 HD
ATOM      8  H   UNL     1       4.684  -7.378  -6.485  0.00  0.00    +0.159 HD
ATOM      9  H   UNL     1       5.266  -8.115  -5.044  0.00  0.00    +0.159 HD
ENDROOT
BRANCH   1  10
ATOM     10  C   UNL     1       5.047  -4.978  -7.322  0.00  0.00    +0.151 C 
BRANCH  10  11
ATOM     11  C   UNL     1       5.692  -3.905  -8.155  0.00  0.00    -0.028 A 
ATOM     12  C   UNL     1       6.098  -4.172  -9.471  0.00  0.00    +0.005 A 
ATOM     13  C   UNL     1       5.896  -2.617  -7.637  0.00  0.00    +0.005 A 
ATOM     14  C   UNL     1       6.670  -3.168 -10.255  0.00  0.00    +0.000 A 
ATOM     15  C   UNL     1       6.468  -1.617  -8.422  0.00  0.00    +0.000 A 
ATOM     16  C   UNL     1       6.853  -1.892  -9.732  0.00  0.00    +0.000 A 
ENDBRANCH  10  11
ENDBRANCH   1  10
TORSDOF 2
ENDMDL
MODEL 5
REMARK VINA RESULT:    -5.650      1.949      2.929
REMARK INTER + INTRA:          -6.400
REMARK INTER:                  -6.268
REMARK INTRA:                  -0.132
REMARK UNBOUND:                -0.089
REMARK  Name = 1550473
REMARK  2 active torsions:
REMARK  status: ('A' for Active; 'I' for Inactive)
REMARK    1  A    between atoms: N_1  and  C_4
REMARK    2  A    between atoms: C_4  and  C_5
REMARK                            x       y       z     vdW  Elec       q    Type
REMARK                         _______ _______ _______ _____ _____    ______ ____
ROOT
ATOM      1  N   UNL     1       1.583  -7.207  -5.559  0.00  0.00    -0.354 N 
ATOM      2  N   UNL     1       2.366  -9.385  -5.491  0.00  0.00    -0.372 N 
ATOM      3  N   UNL     1       3.878  -7.661  -5.430  0.00  0.00    -0.372 N 
ATOM      4  C   UNL     1       2.606  -8.069  -5.494  0.00  0.00    +0.166 C 
ATOM      5  H   UNL     1       0.643  -7.580  -5.636  0.00  0.00    +0.163 HD
ATOM      6  H   UNL     1       3.118 -10.060  -5.440  0.00  0.00    +0.159 HD
ATOM      7  H   UNL     1       1.424  -9.755  -5.522  0.00  0.00    +0.159 HD
ATOM      8  H   UNL     1       4.127  -6.681  -5.434  0.00  0.00    +0.159 HD
ATOM      9  H   UNL     1       4.645  -8.320  -5.389  0.00  0.00    +0.159 HD
ENDROOT
BRANCH   1  10
ATOM     10  C   UNL     1       1.733  -5.753  -5.514  0.00  0.00    +0.151 C 
BRANCH  10  11
ATOM     11  C   UNL     1       0.608  -5.168  -4.706  0.00  0.00    -0.028 A 
ATOM     12  C   UNL     1       0.659  -3.833  -4.278  0.00  0.00    +0.005 A 
ATOM     13  C   UNL     1      -0.514  -5.941  -4.371  0.00  0.00    +0.005 A 
ATOM     14  C   UNL     1      -0.400  -3.280  -3.553  0.00  0.00    +0.000 A 
ATOM     15  C   UNL     1      -1.569  -5.385  -3.646  0.00  0.00    +0.000 A 
ATOM     16  C   UNL     1      -1.512  -4.054  -3.240  0.00  0.00    +0.000 A 
ENDBRANCH  10  11
ENDBRANCH   1  10
TORSDOF 2
ENDMDL
MODEL 6
REMARK VINA RESULT:    -5.631      3.993      5.185
REMARK INTER + INTRA:          -6.379
REMARK INTER:                  -6.218
REMARK INTRA:                  -0.161
REMARK UNBOUND:                -0.089
REMARK  Name = 1550473
REMARK  2 active torsions:
REMARK  status: ('A' for Active; 'I' for Inactive)
REMARK    1  A    between atoms: N_1  and  C_4
REMARK    2  A    between atoms: C_4  and  C_5
REMARK                            x       y       z     vdW  Elec       q    Type
REMARK                         _______ _______ _______ _____ _____    ______ ____
ROOT
ATOM      1  N   UNL     1       1.373  -6.120  -4.051  0.00  0.00    -0.354 N 
ATOM      2  N   UNL     1       1.220  -7.699  -2.363  0.00  0.00    -0.372 N 
ATOM      3  N   UNL     1       0.345  -8.192  -4.426  0.00  0.00    -0.372 N 
ATOM      4  C   UNL     1       0.979  -7.328  -3.627  0.00  0.00    +0.166 C 
ATOM      5  H   UNL     1       1.823  -5.500  -3.387  0.00  0.00    +0.163 HD
ATOM      6  H   UNL     1       0.937  -8.605  -2.016  0.00  0.00    +0.159 HD
ATOM      7  H   UNL     1       1.710  -7.095  -1.715  0.00  0.00    +0.159 HD
ATOM      8  H   UNL     1       0.127  -7.971  -5.389  0.00  0.00    +0.159 HD
ATOM      9  H   UNL     1       0.043  -9.100  -4.093  0.00  0.00    +0.159 HD
ENDROOT
BRANCH   1  10
ATOM     10  C   UNL     1       1.207  -5.641  -5.422  0.00  0.00    +0.151 C 
BRANCH  10  11
ATOM     11  C   UNL     1       2.564  -5.421  -6.033  0.00  0.00    -0.028 A 
ATOM     12  C   UNL     1       3.071  -4.123  -6.192  0.00  0.00    +0.005 A 
ATOM     13  C   UNL     1       3.349  -6.507  -6.450  0.00  0.00    +0.005 A 
ATOM     14  C   UNL     1       4.343  -3.920  -6.732  0.00  0.00    +0.000 A 
ATOM     15  C   UNL     1       4.618  -6.300  -6.990  0.00  0.00    +0.000 A 
ATOM     16  C   UNL     1       5.116  -5.006  -7.128  0.00  0.00    +0.000 A 
ENDBRANCH  10  11
ENDBRANCH   1  10
TORSDOF 2
ENDMDL
MODEL 7
REMARK VINA RESULT:    -5.264     21.064     22.183
REMARK INTER + INTRA:          -5.969
REMARK INTER:                  -5.839
REMARK INTRA:                  -0.130
REMARK UNBOUND:                -0.089
REMARK  Name = 1550473
REMARK  2 active torsions:
REMARK  status: ('A' for Active; 'I' for Inactive)
REMARK    1  A    between atoms: N_1  and  C_4
REMARK    2  A    between atoms: C_4  and  C_5
REMARK                            x       y       z     vdW  Elec       q    Type
REMARK                         _______ _______ _______ _____ _____    ______ ____
ROOT
ATOM      1  N   UNL     1      16.274   5.576 -14.523  0.00  0.00    -0.354 N 
ATOM      2  N   UNL     1      18.123   6.055 -15.833  0.00  0.00    -0.372 N 
ATOM      3  N   UNL     1      17.845   7.181 -13.853  0.00  0.00    -0.372 N 
ATOM      4  C   UNL     1      17.402   6.270 -14.726  0.00  0.00    +0.166 C 
ATOM      5  H   UNL     1      15.977   4.921 -15.237  0.00  0.00    +0.163 HD
ATOM      6  H   UNL     1      18.980   6.561 -16.012  0.00  0.00    +0.159 HD
ATOM      7  H   UNL     1      17.848   5.367 -16.523  0.00  0.00    +0.159 HD
ATOM      8  H   UNL     1      17.344   7.394 -13.001  0.00  0.00    +0.159 HD
ATOM      9  H   UNL     1      18.695   7.706 -14.020  0.00  0.00    +0.159 HD
ENDROOT
BRANCH   1  10
ATOM     10  C   UNL     1      15.445   5.696 -13.325  0.00  0.00    +0.151 C 
BRANCH  10  11
ATOM     11  C   UNL     1      13.999   5.546 -13.711  0.00  0.00    -0.028 A 
ATOM     12  C   UNL     1      13.508   6.150 -14.878  0.00  0.00    +0.005 A 
ATOM     13  C   UNL     1      13.117   4.796 -12.918  0.00  0.00    +0.005 A 
ATOM     14  C   UNL     1      12.172   5.986 -15.253  0.00  0.00    +0.000 A 
ATOM     15  C   UNL     1      11.784   4.636 -13.295  0.00  0.00    +0.000 A 
ATOM     16  C   UNL     1      11.313   5.229 -14.464  0.00  0.00    +0.000 A 
ENDBRANCH  10  11
ENDBRANCH   1  10
TORSDOF 2
ENDMDL
MODEL 8
REMARK VINA RESULT:    -5.186      2.047      3.337
REMARK INTER + INTRA:          -5.882
REMARK INTER:                  -5.765
REMARK INTRA:                  -0.117
REMARK UNBOUND:                -0.089
REMARK  Name = 1550473
REMARK  2 active torsions:
REMARK  status: ('A' for Active; 'I' for Inactive)
REMARK    1  A    between atoms: N_1  and  C_4
REMARK    2  A    between atoms: C_4  and  C_5
REMARK                            x       y       z     vdW  Elec       q    Type
REMARK                         _______ _______ _______ _____ _____    ______ ____
ROOT
ATOM      1  N   UNL     1       2.046  -7.484  -3.333  0.00  0.00    -0.354 N 
ATOM      2  N   UNL     1       3.502  -8.738  -2.040  0.00  0.00    -0.372 N 
ATOM      3  N   UNL     1       4.237  -6.754  -2.930  0.00  0.00    -0.372 N 
ATOM      4  C   UNL     1       3.254  -7.648  -2.777  0.00  0.00    +0.166 C 
ATOM      5  H   UNL     1       1.354  -8.212  -3.204  0.00  0.00    +0.163 HD
ATOM      6  H   UNL     1       4.403  -8.887  -1.605  0.00  0.00    +0.159 HD
ATOM      7  H   UNL     1       2.794  -9.442  -1.875  0.00  0.00    +0.159 HD
ATOM      8  H   UNL     1       4.115  -5.914  -3.480  0.00  0.00    +0.159 HD
ATOM      9  H   UNL     1       5.149  -6.892  -2.513  0.00  0.00    +0.159 HD
ENDROOT
BRANCH   1  10
ATOM     10  C   UNL     1       1.657  -6.307  -4.109  0.00  0.00    +0.151 C 
BRANCH  10  11
ATOM     11  C   UNL     1       0.191  -6.044  -3.899  0.00  0.00    -0.028 A 
ATOM     12  C   UNL     1      -0.292  -4.729  -3.825  0.00  0.00    +0.005 A 
ATOM     13  C   UNL     1      -0.720  -7.104  -3.778  0.00  0.00    +0.005 A 
ATOM     14  C   UNL     1      -1.658  -4.484  -3.660  0.00  0.00    +0.000 A 
ATOM     15  C   UNL     1      -2.082  -6.855  -3.612  0.00  0.00    +0.000 A 
ATOM     16  C   UNL     1      -2.551  -5.544  -3.556  0.00  0.00    +0.000 A 
ENDBRANCH  10  11
ENDBRANCH   1  10
TORSDOF 2
ENDMDL
MODEL 9
REMARK VINA RESULT:    -5.150      3.368      4.318
REMARK INTER + INTRA:          -5.841
REMARK INTER:                  -5.661
REMARK INTRA:                  -0.180
REMARK UNBOUND:                -0.089
REMARK  Name = 1550473
REMARK  2 active torsions:
REMARK  status: ('A' for Active; 'I' for Inactive)
REMARK    1  A    between atoms: N_1  and  C_4
REMARK    2  A    between atoms: C_4  and  C_5
REMARK                            x       y       z     vdW  Elec       q    Type
REMARK                         _______ _______ _______ _____ _____    ______ ____
ROOT
ATOM      1  N   UNL     1       2.803  -7.835  -4.204  0.00  0.00    -0.354 N 
ATOM      2  N   UNL     1       3.244  -8.360  -1.991  0.00  0.00    -0.372 N 
ATOM      3  N   UNL     1       1.185  -7.506  -2.540  0.00  0.00    -0.372 N 
ATOM      4  C   UNL     1       2.405  -7.896  -2.926  0.00  0.00    +0.166 C 
ATOM      5  H   UNL     1       3.751  -8.117  -4.427  0.00  0.00    +0.163 HD
ATOM      6  H   UNL     1       2.970  -8.421  -1.020  0.00  0.00    +0.159 HD
ATOM      7  H   UNL     1       4.174  -8.684  -2.224  0.00  0.00    +0.159 HD
ATOM      8  H   UNL     1       0.508  -7.141  -3.196  0.00  0.00    +0.159 HD
ATOM      9  H   UNL     1       0.897  -7.549  -1.570  0.00  0.00    +0.159 HD
ENDROOT
BRANCH   1  10
ATOM     10  C   UNL     1       1.949  -7.396  -5.306  0.00  0.00    +0.151 C 
BRANCH  10  11
ATOM     11  C   UNL     1       2.251  -5.956  -5.618  0.00  0.00    -0.028 A 
ATOM     12  C   UNL     1       1.311  -4.954  -5.334  0.00  0.00    +0.005 A 
ATOM     13  C   UNL     1       3.477  -5.586  -6.192  0.00  0.00    +0.005 A 
ATOM     14  C   UNL     1       1.603  -3.613  -5.596  0.00  0.00    +0.000 A 
ATOM     15  C   UNL     1       3.764  -4.247  -6.452  0.00  0.00    +0.000 A 
ATOM     16  C   UNL     1       2.827  -3.260  -6.152  0.00  0.00    +0.000 A 
ENDBRANCH  10  11
ENDBRANCH   1  10
TORSDOF 2
ENDMDL
