MODEL 1
REMARK VINA RESULT:    -5.657      0.000      0.000
REMARK INTER + INTRA:          -6.483
REMARK INTER:                  -6.319
REMARK INTRA:                  -0.164
REMARK UNBOUND:                -0.164
REMARK  Name = 1550473
REMARK  2 active torsions:
REMARK  status: ('A' for Active; 'I' for Inactive)
REMARK    1  A    between atoms: N_1  and  C_4
REMARK    2  A    between atoms: C_4  and  C_5
REMARK                            x       y       z     vdW  Elec       q    Type
REMARK                         _______ _______ _______ _____ _____    ______ ____
ROOT
ATOM      1  N   UNL     1      -8.613  -8.154  -8.356  0.00  0.00    -0.354 N 
ATOM      2  N   UNL     1      -8.938  -6.194  -9.546  0.00  0.00    -0.372 N 
ATOM      3  N   UNL     1     -10.478  -6.792  -7.954  0.00  0.00    -0.372 N 
ATOM      4  C   UNL     1      -9.343  -7.060  -8.609  0.00  0.00    +0.166 C 
ATOM      5  H   UNL     1      -7.779  -8.314  -8.908  0.00  0.00    +0.163 HD
ATOM      6  H   UNL     1      -9.466  -5.358  -9.757  0.00  0.00    +0.159 HD
ATOM      7  H   UNL     1      -8.079  -6.333 -10.065  0.00  0.00    +0.159 HD
ATOM      8  H   UNL     1     -10.841  -7.409  -7.239  0.00  0.00    +0.159 HD
ATOM      9  H   UNL     1     -11.027  -5.967  -8.159  0.00  0.00    +0.159 HD
ENDROOT
BRANCH   1  10
ATOM     10  C   UNL     1      -8.938  -9.132  -7.319  0.00  0.00    +0.151 C 
BRANCH  10  11
ATOM     11  C   UNL     1      -8.040  -8.908  -6.134  0.00  0.00    -0.028 A 
ATOM     12  C   UNL     1      -8.519  -9.107  -4.830  0.00  0.00    +0.005 A 
ATOM     13  C   UNL     1      -6.708  -8.501  -6.307  0.00  0.00    +0.005 A 
ATOM     14  C   UNL     1      -7.677  -8.928  -3.730  0.00  0.00    +0.000 A 
ATOM     15  C   UNL     1      -5.871  -8.323  -5.206  0.00  0.00    +0.000 A 
ATOM     16  C   UNL     1      -6.355  -8.539  -3.918  0.00  0.00    +0.000 A 
ENDBRANCH  10  11
ENDBRANCH   1  10
TORSDOF 2
ENDMDL
MODEL 2
REMARK VINA RESULT:    -5.571     32.106     33.349
REMARK INTER + INTRA:          -6.387
REMARK INTER:                  -6.280
REMARK INTRA:                  -0.107
REMARK UNBOUND:                -0.164
REMARK  Name = 1550473
REMARK  2 active torsions:
REMARK  status: ('A' for Active; 'I' for Inactive)
REMARK    1  A    between atoms: N_1  and  C_4
REMARK    2  A    between atoms: C_4  and  C_5
REMARK                            x       y       z     vdW  Elec       q    Type
REMARK                         _______ _______ _______ _____ _____    ______ ____
ROOT
ATOM      1  N   UNL     1       3.559  15.887  14.454  0.00  0.00    -0.354 N 
ATOM      2  N   UNL     1       2.220  17.621  13.701  0.00  0.00    -0.372 N 
ATOM      3  N   UNL     1       2.422  17.277  15.960  0.00  0.00    -0.372 N 
ATOM      4  C   UNL     1       2.742  16.917  14.713  0.00  0.00    +0.166 C 
ATOM      5  H   UNL     1       3.738  15.646  13.486  0.00  0.00    +0.163 HD
ATOM      6  H   UNL     1       1.604  18.405  13.865  0.00  0.00    +0.159 HD
ATOM      7  H   UNL     1       2.438  17.406  12.735  0.00  0.00    +0.159 HD
ATOM      8  H   UNL     1       2.778  16.784  16.768  0.00  0.00    +0.159 HD
ATOM      9  H   UNL     1       1.798  18.052  16.145  0.00  0.00    +0.159 HD
ENDROOT
BRANCH   1  10
ATOM     10  C   UNL     1       4.222  15.091  15.485  0.00  0.00    +0.151 C 
BRANCH  10  11
ATOM     11  C   UNL     1       4.639  13.772  14.895  0.00  0.00    -0.028 A 
ATOM     12  C   UNL     1       5.992  13.406  14.853  0.00  0.00    +0.005 A 
ATOM     13  C   UNL     1       3.684  12.881  14.381  0.00  0.00    +0.005 A 
ATOM     14  C   UNL     1       6.377  12.169  14.332  0.00  0.00    +0.000 A 
ATOM     15  C   UNL     1       4.072  11.646  13.861  0.00  0.00    +0.000 A 
ATOM     16  C   UNL     1       5.418  11.290  13.839  0.00  0.00    +0.000 A 
ENDBRANCH  10  11
ENDBRANCH   1  10
TORSDOF 2
ENDMDL
MODEL 3
REMARK VINA RESULT:    -5.479     27.281     28.409
REMARK INTER + INTRA:          -6.284
REMARK INTER:                  -6.182
REMARK INTRA:                  -0.102
REMARK UNBOUND:                -0.164
REMARK  Name = 1550473
REMARK  2 active torsions:
REMARK  status: ('A' for Active; 'I' for Inactive)
REMARK    1  A    between atoms: N_1  and  C_4
REMARK    2  A    between atoms: C_4  and  C_5
REMARK                            x       y       z     vdW  Elec       q    Type
REMARK                         _______ _______ _______ _____ _____    ______ ____
ROOT
ATOM      1  N   UNL     1      12.150  11.471  -5.359  0.00  0.00    -0.354 N 
ATOM      2  N   UNL     1      12.591  11.868  -7.598  0.00  0.00    -0.372 N 
ATOM      3  N   UNL     1      11.608   9.884  -6.996  0.00  0.00    -0.372 N 
ATOM      4  C   UNL     1      12.113  11.069  -6.636  0.00  0.00    +0.166 C 
ATOM      5  H   UNL     1      12.573  12.368  -5.149  0.00  0.00    +0.163 HD
ATOM      6  H   UNL     1      12.573  11.593  -8.571  0.00  0.00    +0.159 HD
ATOM      7  H   UNL     1      12.971  12.783  -7.390  0.00  0.00    +0.159 HD
ATOM      8  H   UNL     1      11.236   9.232  -6.318  0.00  0.00    +0.159 HD
ATOM      9  H   UNL     1      11.592   9.586  -7.963  0.00  0.00    +0.159 HD
ENDROOT
BRANCH   1  10
ATOM     10  C   UNL     1      11.607  10.700  -4.243  0.00  0.00    +0.151 C 
BRANCH  10  11
ATOM     11  C   UNL     1      11.706  11.518  -2.985  0.00  0.00    -0.028 A 
ATOM     12  C   UNL     1      10.574  11.738  -2.187  0.00  0.00    +0.005 A 
ATOM     13  C   UNL     1      12.932  12.072  -2.583  0.00  0.00    +0.005 A 
ATOM     14  C   UNL     1      10.673  12.473  -1.003  0.00  0.00    +0.000 A 
ATOM     15  C   UNL     1      13.026  12.806  -1.401  0.00  0.00    +0.000 A 
ATOM     16  C   UNL     1      11.897  13.004  -0.610  0.00  0.00    +0.000 A 
ENDBRANCH  10  11
ENDBRANCH   1  10
TORSDOF 2
ENDMDL
MODEL 4
REMARK VINA RESULT:    -5.311      2.735      3.508
REMARK INTER + INTRA:          -6.096
REMARK INTER:                  -5.973
REMARK INTRA:                  -0.123
REMARK UNBOUND:                -0.164
REMARK  Name = 1550473
REMARK  2 active torsions:
REMARK  status: ('A' for Active; 'I' for Inactive)
REMARK    1  A    between atoms: N_1  and  C_4
REMARK    2  A    between atoms: C_4  and  C_5
REMARK                            x       y       z     vdW  Elec       q    Type
REMARK                         _______ _______ _______ _____ _____    ______ ____
ROOT
ATOM      1  N   UNL     1      -4.633  -8.026  -7.417  0.00  0.00    -0.354 N 
ATOM      2  N   UNL     1      -3.731  -6.283  -8.647  0.00  0.00    -0.372 N 
ATOM      3  N   UNL     1      -5.292  -7.645  -9.634  0.00  0.00    -0.372 N 
ATOM      4  C   UNL     1      -4.559  -7.331  -8.560  0.00  0.00    +0.166 C 
ATOM      5  H   UNL     1      -4.030  -7.755  -6.649  0.00  0.00    +0.163 HD
ATOM      6  H   UNL     1      -3.656  -5.737  -9.495  0.00  0.00    +0.159 HD
ATOM      7  H   UNL     1      -3.163  -5.986  -7.863  0.00  0.00    +0.159 HD
ATOM      8  H   UNL     1      -5.932  -8.428  -9.635  0.00  0.00    +0.159 HD
ATOM      9  H   UNL     1      -5.222  -7.118 -10.496  0.00  0.00    +0.159 HD
ENDROOT
BRANCH   1  10
ATOM     10  C   UNL     1      -5.542  -9.150  -7.201  0.00  0.00    +0.151 C 
BRANCH  10  11
ATOM     11  C   UNL     1      -6.197  -9.001  -5.855  0.00  0.00    -0.028 A 
ATOM     12  C   UNL     1      -5.445  -8.608  -4.738  0.00  0.00    +0.005 A 
ATOM     13  C   UNL     1      -7.569  -9.245  -5.692  0.00  0.00    +0.005 A 
ATOM     14  C   UNL     1      -6.058  -8.440  -3.494  0.00  0.00    +0.000 A 
ATOM     15  C   UNL     1      -8.177  -9.077  -4.448  0.00  0.00    +0.000 A 
ATOM     16  C   UNL     1      -7.422  -8.672  -3.350  0.00  0.00    +0.000 A 
ENDBRANCH  10  11
ENDBRANCH   1  10
TORSDOF 2
ENDMDL
MODEL 5
REMARK VINA RESULT:    -5.229      3.824      5.528
REMARK INTER + INTRA:          -6.005
REMARK INTER:                  -5.895
REMARK INTRA:                  -0.110
REMARK UNBOUND:                -0.164
REMARK  Name = 1550473
REMARK  2 active torsions:
REMARK  status: ('A' for Active; 'I' for Inactive)
REMARK    1  A    between atoms: N_1  and  C_4
REMARK    2  A    between atoms: C_4  and  C_5
REMARK                            x       y       z     vdW  Elec       q    Type
REMARK                         _______ _______ _______ _____ _____    ______ ____
ROOT
ATOM      1  N   UNL     1      -9.756  -7.862  -9.932  0.00  0.00    -0.354 N 
ATOM      2  N   UNL     1     -11.922  -7.094  -9.645  0.00  0.00    -0.372 N 
ATOM      3  N   UNL     1     -10.405  -6.793  -7.950  0.00  0.00    -0.372 N 
ATOM      4  C   UNL     1     -10.679  -7.254  -9.175  0.00  0.00    +0.166 C 
ATOM      5  H   UNL     1     -10.035  -8.216 -10.840  0.00  0.00    +0.163 HD
ATOM      6  H   UNL     1     -12.639  -6.636  -9.099  0.00  0.00    +0.159 HD
ATOM      7  H   UNL     1     -12.186  -7.407 -10.572  0.00  0.00    +0.159 HD
ATOM      8  H   UNL     1      -9.488  -6.889  -7.534  0.00  0.00    +0.159 HD
ATOM      9  H   UNL     1     -11.113  -6.343  -7.383  0.00  0.00    +0.159 HD
ENDROOT
BRANCH   1  10
ATOM     10  C   UNL     1      -8.360  -8.039  -9.534  0.00  0.00    +0.151 C 
BRANCH  10  11
ATOM     11  C   UNL     1      -7.483  -7.902 -10.748  0.00  0.00    -0.028 A 
ATOM     12  C   UNL     1      -7.737  -8.661 -11.900  0.00  0.00    +0.005 A 
ATOM     13  C   UNL     1      -6.399  -7.011 -10.754  0.00  0.00    +0.005 A 
ATOM     14  C   UNL     1      -6.941  -8.513 -13.038  0.00  0.00    +0.000 A 
ATOM     15  C   UNL     1      -5.605  -6.866 -11.892  0.00  0.00    +0.000 A 
ATOM     16  C   UNL     1      -5.878  -7.615 -13.034  0.00  0.00    +0.000 A 
ENDBRANCH  10  11
ENDBRANCH   1  10
TORSDOF 2
ENDMDL
MODEL 6
REMARK VINA RESULT:    -5.102     13.013     14.668
REMARK INTER + INTRA:          -5.863
REMARK INTER:                  -5.741
REMARK INTRA:                  -0.122
REMARK UNBOUND:                -0.164
REMARK  Name = 1550473
REMARK  2 active torsions:
REMARK  status: ('A' for Active; 'I' for Inactive)
REMARK    1  A    between atoms: N_1  and  C_4
REMARK    2  A    between atoms: C_4  and  C_5
REMARK                            x       y       z     vdW  Elec       q    Type
REMARK                         _______ _______ _______ _____ _____    ______ ____
ROOT
ATOM      1  N   UNL     1     -16.777   1.487  -6.383  0.00  0.00    -0.354 N 
ATOM      2  N   UNL     1     -16.051   0.182  -8.153  0.00  0.00    -0.372 N 
ATOM      3  N   UNL     1     -16.171  -0.753  -6.061  0.00  0.00    -0.372 N 
ATOM      4  C   UNL     1     -16.337   0.312  -6.852  0.00  0.00    +0.166 C 
ATOM      5  H   UNL     1     -16.853   2.265  -7.028  0.00  0.00    +0.163 HD
ATOM      6  H   UNL     1     -15.721  -0.694  -8.536  0.00  0.00    +0.159 HD
ATOM      7  H   UNL     1     -16.172   0.948  -8.804  0.00  0.00    +0.159 HD
ATOM      8  H   UNL     1     -16.363  -0.719  -5.069  0.00  0.00    +0.159 HD
ATOM      9  H   UNL     1     -15.830  -1.635  -6.424  0.00  0.00    +0.159 HD
ENDROOT
BRANCH   1  10
ATOM     10  C   UNL     1     -17.167   1.719  -4.993  0.00  0.00    +0.151 C 
BRANCH  10  11
ATOM     11  C   UNL     1     -17.494   3.175  -4.811  0.00  0.00    -0.028 A 
ATOM     12  C   UNL     1     -18.175   3.614  -3.666  0.00  0.00    +0.005 A 
ATOM     13  C   UNL     1     -17.119   4.122  -5.776  0.00  0.00    +0.005 A 
ATOM     14  C   UNL     1     -18.452   4.971  -3.482  0.00  0.00    +0.000 A 
ATOM     15  C   UNL     1     -17.398   5.476  -5.589  0.00  0.00    +0.000 A 
ATOM     16  C   UNL     1     -18.062   5.900  -4.441  0.00  0.00    +0.000 A 
ENDBRANCH  10  11
ENDBRANCH   1  10
TORSDOF 2
ENDMDL
MODEL 7
REMARK VINA RESULT:    -4.877     27.368     28.634
REMARK INTER + INTRA:          -5.612
REMARK INTER:                  -5.443
REMARK INTRA:                  -0.169
REMARK UNBOUND:                -0.164
REMARK  Name = 1550473
REMARK  2 active torsions:
REMARK  status: ('A' for Active; 'I' for Inactive)
REMARK    1  A    between atoms: N_1  and  C_4
REMARK    2  A    between atoms: C_4  and  C_5
REMARK                            x       y       z     vdW  Elec       q    Type
REMARK                         _______ _______ _______ _____ _____    ______ ____
ROOT
ATOM      1  N   UNL     1      12.085  11.820  -6.107  0.00  0.00    -0.354 N 
ATOM      2  N   UNL     1      11.328  10.157  -4.683  0.00  0.00    -0.372 N 
ATOM      3  N   UNL     1      11.623   9.665  -6.905  0.00  0.00    -0.372 N 
ATOM      4  C   UNL     1      11.683  10.557  -5.910  0.00  0.00    +0.166 C 
ATOM      5  H   UNL     1      12.080  12.455  -5.317  0.00  0.00    +0.163 HD
ATOM      6  H   UNL     1      11.023   9.210  -4.504  0.00  0.00    +0.159 HD
ATOM      7  H   UNL     1      11.367  10.782  -3.887  0.00  0.00    +0.159 HD
ATOM      8  H   UNL     1      11.872   9.905  -7.855  0.00  0.00    +0.159 HD
ATOM      9  H   UNL     1      11.310   8.716  -6.747  0.00  0.00    +0.159 HD
ENDROOT
BRANCH   1  10
ATOM     10  C   UNL     1      12.545  12.340  -7.393  0.00  0.00    +0.151 C 
BRANCH  10  11
ATOM     11  C   UNL     1      11.449  13.166  -8.009  0.00  0.00    -0.028 A 
ATOM     12  C   UNL     1      10.463  12.562  -8.803  0.00  0.00    +0.005 A 
ATOM     13  C   UNL     1      11.387  14.552  -7.797  0.00  0.00    +0.005 A 
ATOM     14  C   UNL     1       9.428  13.324  -9.350  0.00  0.00    +0.000 A 
ATOM     15  C   UNL     1      10.352  15.309  -8.346  0.00  0.00    +0.000 A 
ATOM     16  C   UNL     1       9.371  14.694  -9.120  0.00  0.00    +0.000 A 
ENDBRANCH  10  11
ENDBRANCH   1  10
TORSDOF 2
ENDMDL
MODEL 8
REMARK VINA RESULT:    -4.857     10.892     12.060
REMARK INTER + INTRA:          -5.589
REMARK INTER:                  -5.425
REMARK INTRA:                  -0.164
REMARK UNBOUND:                -0.164
REMARK  Name = 1550473
REMARK  2 active torsions:
REMARK  status: ('A' for Active; 'I' for Inactive)
REMARK    1  A    between atoms: N_1  and  C_4
REMARK    2  A    between atoms: C_4  and  C_5
REMARK                            x       y       z     vdW  Elec       q    Type
REMARK                         _______ _______ _______ _____ _____    ______ ____
ROOT
ATOM      1  N   UNL     1     -18.431  -9.143  -4.723  0.00  0.00    -0.354 N 
ATOM      2  N   UNL     1     -16.819 -10.659  -4.040  0.00  0.00    -0.372 N 
ATOM      3  N   UNL     1     -16.359  -8.415  -3.906  0.00  0.00    -0.372 N 
ATOM      4  C   UNL     1     -17.212  -9.393  -4.227  0.00  0.00    +0.166 C 
ATOM      5  H   UNL     1     -19.020  -9.929  -4.974  0.00  0.00    +0.163 HD
ATOM      6  H   UNL     1     -15.907 -10.879  -3.664  0.00  0.00    +0.159 HD
ATOM      7  H   UNL     1     -17.427 -11.442  -4.249  0.00  0.00    +0.159 HD
ATOM      8  H   UNL     1     -16.592  -7.439  -4.029  0.00  0.00    +0.159 HD
ATOM      9  H   UNL     1     -15.436  -8.615  -3.540  0.00  0.00    +0.159 HD
ENDROOT
BRANCH   1  10
ATOM     10  C   UNL     1     -18.976  -7.800  -4.915  0.00  0.00    +0.151 C 
BRANCH  10  11
ATOM     11  C   UNL     1     -19.708  -7.383  -3.669  0.00  0.00    -0.028 A 
ATOM     12  C   UNL     1     -19.246  -6.306  -2.898  0.00  0.00    +0.005 A 
ATOM     13  C   UNL     1     -20.867  -8.059  -3.256  0.00  0.00    +0.005 A 
ATOM     14  C   UNL     1     -19.942  -5.900  -1.757  0.00  0.00    +0.000 A 
ATOM     15  C   UNL     1     -21.558  -7.651  -2.116  0.00  0.00    +0.000 A 
ATOM     16  C   UNL     1     -21.097  -6.570  -1.368  0.00  0.00    +0.000 A 
ENDBRANCH  10  11
ENDBRANCH   1  10
TORSDOF 2
ENDMDL
MODEL 9
REMARK VINA RESULT:    -4.798     16.185     17.261
REMARK INTER + INTRA:          -5.523
REMARK INTER:                  -5.369
REMARK INTRA:                  -0.154
REMARK UNBOUND:                -0.164
REMARK  Name = 1550473
REMARK  2 active torsions:
REMARK  status: ('A' for Active; 'I' for Inactive)
REMARK    1  A    between atoms: N_1  and  C_4
REMARK    2  A    between atoms: C_4  and  C_5
REMARK                            x       y       z     vdW  Elec       q    Type
REMARK                         _______ _______ _______ _____ _____    ______ ____
ROOT
ATOM      1  N   UNL     1      -5.509  -2.952 -22.356  0.00  0.00    -0.354 N 
ATOM      2  N   UNL     1      -5.859  -3.758 -24.499  0.00  0.00    -0.372 N 
ATOM      3  N   UNL     1      -4.140  -4.629 -23.253  0.00  0.00    -0.372 N 
ATOM      4  C   UNL     1      -5.165  -3.775 -23.355  0.00  0.00    +0.166 C 
ATOM      5  H   UNL     1      -6.277  -2.307 -22.506  0.00  0.00    +0.163 HD
ATOM      6  H   UNL     1      -5.624  -4.370 -25.269  0.00  0.00    +0.159 HD
ATOM      7  H   UNL     1      -6.655  -3.145 -24.630  0.00  0.00    +0.159 HD
ATOM      8  H   UNL     1      -3.572  -4.687 -22.418  0.00  0.00    +0.159 HD
ATOM      9  H   UNL     1      -3.883  -5.241 -24.017  0.00  0.00    +0.159 HD
ENDROOT
BRANCH   1  10
ATOM     10  C   UNL     1      -4.852  -2.930 -21.050  0.00  0.00    +0.151 C 
BRANCH  10  11
ATOM     11  C   UNL     1      -3.875  -1.788 -21.011  0.00  0.00    -0.028 A 
ATOM     12  C   UNL     1      -2.714  -1.871 -20.229  0.00  0.00    +0.005 A 
ATOM     13  C   UNL     1      -4.102  -0.622 -21.758  0.00  0.00    +0.005 A 
ATOM     14  C   UNL     1      -1.791  -0.822 -20.215  0.00  0.00    +0.000 A 
ATOM     15  C   UNL     1      -3.179   0.423 -21.741  0.00  0.00    +0.000 A 
ATOM     16  C   UNL     1      -2.022   0.322 -20.971  0.00  0.00    +0.000 A 
ENDBRANCH  10  11
ENDBRANCH   1  10
TORSDOF 2
ENDMDL
