MODEL 1
REMARK VINA RESULT:    -4.581      0.000      0.000
REMARK INTER + INTRA:          -5.253
REMARK INTER:                  -5.116
REMARK INTRA:                  -0.137
REMARK UNBOUND:                -0.137
REMARK  Name = 1550473
REMARK  2 active torsions:
REMARK  status: ('A' for Active; 'I' for Inactive)
REMARK    1  A    between atoms: N_1  and  C_4
REMARK    2  A    between atoms: C_4  and  C_5
REMARK                            x       y       z     vdW  Elec       q    Type
REMARK                         _______ _______ _______ _____ _____    ______ ____
ROOT
ATOM      1  N   UNL     1       9.182  -1.660  -0.812  0.00  0.00    -0.354 N 
ATOM      2  N   UNL     1      10.909  -3.203  -0.771  0.00  0.00    -0.372 N 
ATOM      3  N   UNL     1       8.913  -3.747   0.220  0.00  0.00    -0.372 N 
ATOM      4  C   UNL     1       9.655  -2.861  -0.453  0.00  0.00    +0.166 C 
ATOM      5  H   UNL     1       9.805  -1.022  -1.294  0.00  0.00    +0.163 HD
ATOM      6  H   UNL     1      11.292  -4.104  -0.517  0.00  0.00    +0.159 HD
ATOM      7  H   UNL     1      11.514  -2.581  -1.294  0.00  0.00    +0.159 HD
ATOM      8  H   UNL     1       7.960  -3.548   0.496  0.00  0.00    +0.159 HD
ATOM      9  H   UNL     1       9.282  -4.649   0.494  0.00  0.00    +0.159 HD
ENDROOT
BRANCH   1  10
ATOM     10  C   UNL     1       7.814  -1.211  -0.561  0.00  0.00    +0.151 C 
BRANCH  10  11
ATOM     11  C   UNL     1       6.935  -1.655  -1.697  0.00  0.00    -0.028 A 
ATOM     12  C   UNL     1       5.934  -2.616  -1.490  0.00  0.00    +0.005 A 
ATOM     13  C   UNL     1       7.095  -1.115  -2.983  0.00  0.00    +0.005 A 
ATOM     14  C   UNL     1       5.098  -3.006  -2.539  0.00  0.00    +0.000 A 
ATOM     15  C   UNL     1       6.258  -1.509  -4.027  0.00  0.00    +0.000 A 
ATOM     16  C   UNL     1       5.259  -2.452  -3.805  0.00  0.00    +0.000 A 
ENDBRANCH  10  11
ENDBRANCH   1  10
TORSDOF 2
ENDMDL
MODEL 2
REMARK VINA RESULT:    -4.523      3.339      5.108
REMARK INTER + INTRA:          -5.189
REMARK INTER:                  -5.047
REMARK INTRA:                  -0.142
REMARK UNBOUND:                -0.137
REMARK  Name = 1550473
REMARK  2 active torsions:
REMARK  status: ('A' for Active; 'I' for Inactive)
REMARK    1  A    between atoms: N_1  and  C_4
REMARK    2  A    between atoms: C_4  and  C_5
REMARK                            x       y       z     vdW  Elec       q    Type
REMARK                         _______ _______ _______ _____ _____    ______ ____
ROOT
ATOM      1  N   UNL     1       6.380  -0.827  -4.557  0.00  0.00    -0.354 N 
ATOM      2  N   UNL     1       6.156   0.967  -6.005  0.00  0.00    -0.372 N 
ATOM      3  N   UNL     1       4.269  -0.130  -5.299  0.00  0.00    -0.372 N 
ATOM      4  C   UNL     1       5.600  -0.009  -5.278  0.00  0.00    +0.166 C 
ATOM      5  H   UNL     1       7.384  -0.702  -4.607  0.00  0.00    +0.163 HD
ATOM      6  H   UNL     1       5.594   1.602  -6.556  0.00  0.00    +0.159 HD
ATOM      7  H   UNL     1       7.158   1.119  -6.017  0.00  0.00    +0.159 HD
ATOM      8  H   UNL     1       3.788  -0.850  -4.777  0.00  0.00    +0.159 HD
ATOM      9  H   UNL     1       3.689   0.488  -5.854  0.00  0.00    +0.159 HD
ENDROOT
BRANCH   1  10
ATOM     10  C   UNL     1       5.870  -1.887  -3.689  0.00  0.00    +0.151 C 
BRANCH  10  11
ATOM     11  C   UNL     1       6.562  -1.805  -2.356  0.00  0.00    -0.028 A 
ATOM     12  C   UNL     1       7.534  -0.823  -2.118  0.00  0.00    +0.005 A 
ATOM     13  C   UNL     1       6.245  -2.704  -1.326  0.00  0.00    +0.005 A 
ATOM     14  C   UNL     1       8.154  -0.727  -0.870  0.00  0.00    +0.000 A 
ATOM     15  C   UNL     1       6.868  -2.606  -0.082  0.00  0.00    +0.000 A 
ATOM     16  C   UNL     1       7.820  -1.616   0.147  0.00  0.00    +0.000 A 
ENDBRANCH  10  11
ENDBRANCH   1  10
TORSDOF 2
ENDMDL
MODEL 3
REMARK VINA RESULT:    -4.432     23.483     24.918
REMARK INTER + INTRA:          -5.087
REMARK INTER:                  -4.968
REMARK INTRA:                  -0.119
REMARK UNBOUND:                -0.137
REMARK  Name = 1550473
REMARK  2 active torsions:
REMARK  status: ('A' for Active; 'I' for Inactive)
REMARK    1  A    between atoms: N_1  and  C_4
REMARK    2  A    between atoms: C_4  and  C_5
REMARK                            x       y       z     vdW  Elec       q    Type
REMARK                         _______ _______ _______ _____ _____    ______ ____
ROOT
ATOM      1  N   UNL     1       4.947  15.358  17.603  0.00  0.00    -0.354 N 
ATOM      2  N   UNL     1       6.002  17.296  18.308  0.00  0.00    -0.372 N 
ATOM      3  N   UNL     1       4.147  17.467  16.968  0.00  0.00    -0.372 N 
ATOM      4  C   UNL     1       5.023  16.696  17.620  0.00  0.00    +0.166 C 
ATOM      5  H   UNL     1       5.660  14.829  18.092  0.00  0.00    +0.163 HD
ATOM      6  H   UNL     1       6.083  18.303  18.342  0.00  0.00    +0.159 HD
ATOM      7  H   UNL     1       6.686  16.766  18.834  0.00  0.00    +0.159 HD
ATOM      8  H   UNL     1       3.388  17.076  16.426  0.00  0.00    +0.159 HD
ATOM      9  H   UNL     1       4.218  18.477  16.981  0.00  0.00    +0.159 HD
ENDROOT
BRANCH   1  10
ATOM     10  C   UNL     1       3.889  14.608  16.929  0.00  0.00    +0.151 C 
BRANCH  10  11
ATOM     11  C   UNL     1       4.464  13.330  16.383  0.00  0.00    -0.028 A 
ATOM     12  C   UNL     1       4.031  12.826  15.147  0.00  0.00    +0.005 A 
ATOM     13  C   UNL     1       5.446  12.623  17.093  0.00  0.00    +0.005 A 
ATOM     14  C   UNL     1       4.587  11.655  14.625  0.00  0.00    +0.000 A 
ATOM     15  C   UNL     1       5.997  11.454  16.568  0.00  0.00    +0.000 A 
ATOM     16  C   UNL     1       5.570  10.972  15.334  0.00  0.00    +0.000 A 
ENDBRANCH  10  11
ENDBRANCH   1  10
TORSDOF 2
ENDMDL
MODEL 4
REMARK VINA RESULT:    -4.237     19.154     20.034
REMARK INTER + INTRA:          -4.869
REMARK INTER:                  -4.731
REMARK INTRA:                  -0.139
REMARK UNBOUND:                -0.137
REMARK  Name = 1550473
REMARK  2 active torsions:
REMARK  status: ('A' for Active; 'I' for Inactive)
REMARK    1  A    between atoms: N_1  and  C_4
REMARK    2  A    between atoms: C_4  and  C_5
REMARK                            x       y       z     vdW  Elec       q    Type
REMARK                         _______ _______ _______ _____ _____    ______ ____
ROOT
ATOM      1  N   UNL     1     -10.325  -9.486   6.148  0.00  0.00    -0.354 N 
ATOM      2  N   UNL     1      -9.022 -10.511   7.765  0.00  0.00    -0.372 N 
ATOM      3  N   UNL     1      -9.613 -11.705   5.897  0.00  0.00    -0.372 N 
ATOM      4  C   UNL     1      -9.662 -10.563   6.591  0.00  0.00    +0.166 C 
ATOM      5  H   UNL     1     -10.349  -8.661   6.735  0.00  0.00    +0.163 HD
ATOM      6  H   UNL     1      -8.511 -11.307   8.124  0.00  0.00    +0.159 HD
ATOM      7  H   UNL     1      -9.010  -9.670   8.329  0.00  0.00    +0.159 HD
ATOM      8  H   UNL     1     -10.080 -11.811   5.006  0.00  0.00    +0.159 HD
ATOM      9  H   UNL     1      -9.116 -12.516   6.245  0.00  0.00    +0.159 HD
ENDROOT
BRANCH   1  10
ATOM     10  C   UNL     1     -11.009  -9.421   4.858  0.00  0.00    +0.151 C 
BRANCH  10  11
ATOM     11  C   UNL     1     -10.688  -8.109   4.197  0.00  0.00    -0.028 A 
ATOM     12  C   UNL     1      -9.991  -7.112   4.895  0.00  0.00    +0.005 A 
ATOM     13  C   UNL     1     -11.072  -7.859   2.871  0.00  0.00    +0.005 A 
ATOM     14  C   UNL     1      -9.666  -5.905   4.272  0.00  0.00    +0.000 A 
ATOM     15  C   UNL     1     -10.747  -6.652   2.252  0.00  0.00    +0.000 A 
ATOM     16  C   UNL     1     -10.042  -5.676   2.952  0.00  0.00    +0.000 A 
ENDBRANCH  10  11
ENDBRANCH   1  10
TORSDOF 2
ENDMDL
MODEL 5
REMARK VINA RESULT:    -4.205     24.408     25.814
REMARK INTER + INTRA:          -4.833
REMARK INTER:                  -4.735
REMARK INTRA:                  -0.098
REMARK UNBOUND:                -0.137
REMARK  Name = 1550473
REMARK  2 active torsions:
REMARK  status: ('A' for Active; 'I' for Inactive)
REMARK    1  A    between atoms: N_1  and  C_4
REMARK    2  A    between atoms: C_4  and  C_5
REMARK                            x       y       z     vdW  Elec       q    Type
REMARK                         _______ _______ _______ _____ _____    ______ ____
ROOT
ATOM      1  N   UNL     1       5.663  12.928  17.184  0.00  0.00    -0.354 N 
ATOM      2  N   UNL     1       7.139  11.151  17.349  0.00  0.00    -0.372 N 
ATOM      3  N   UNL     1       5.044  10.777  16.490  0.00  0.00    -0.372 N 
ATOM      4  C   UNL     1       5.937  11.629  17.006  0.00  0.00    +0.166 C 
ATOM      5  H   UNL     1       6.372  13.516  17.607  0.00  0.00    +0.163 HD
ATOM      6  H   UNL     1       7.375  10.176  17.224  0.00  0.00    +0.159 HD
ATOM      7  H   UNL     1       7.861  11.750  17.730  0.00  0.00    +0.159 HD
ATOM      8  H   UNL     1       4.117  11.074  16.216  0.00  0.00    +0.159 HD
ATOM      9  H   UNL     1       5.258   9.795  16.368  0.00  0.00    +0.159 HD
ENDROOT
BRANCH   1  10
ATOM     10  C   UNL     1       4.404  13.560  16.793  0.00  0.00    +0.151 C 
BRANCH  10  11
ATOM     11  C   UNL     1       4.191  14.791  17.629  0.00  0.00    -0.028 A 
ATOM     12  C   UNL     1       3.156  14.841  18.574  0.00  0.00    +0.005 A 
ATOM     13  C   UNL     1       5.026  15.911  17.485  0.00  0.00    +0.005 A 
ATOM     14  C   UNL     1       2.977  15.973  19.372  0.00  0.00    +0.000 A 
ATOM     15  C   UNL     1       4.843  17.040  18.283  0.00  0.00    +0.000 A 
ATOM     16  C   UNL     1       3.821  17.070  19.228  0.00  0.00    +0.000 A 
ENDBRANCH  10  11
ENDBRANCH   1  10
TORSDOF 2
ENDMDL
MODEL 6
REMARK VINA RESULT:    -4.186     10.563     12.522
REMARK INTER + INTRA:          -4.812
REMARK INTER:                  -4.695
REMARK INTRA:                  -0.117
REMARK UNBOUND:                -0.137
REMARK  Name = 1550473
REMARK  2 active torsions:
REMARK  status: ('A' for Active; 'I' for Inactive)
REMARK    1  A    between atoms: N_1  and  C_4
REMARK    2  A    between atoms: C_4  and  C_5
REMARK                            x       y       z     vdW  Elec       q    Type
REMARK                         _______ _______ _______ _____ _____    ______ ____
ROOT
ATOM      1  N   UNL     1      10.327  -3.595   8.473  0.00  0.00    -0.354 N 
ATOM      2  N   UNL     1       9.095  -1.868   7.543  0.00  0.00    -0.372 N 
ATOM      3  N   UNL     1       8.862  -2.317   9.781  0.00  0.00    -0.372 N 
ATOM      4  C   UNL     1       9.435  -2.605   8.608  0.00  0.00    +0.166 C 
ATOM      5  H   UNL     1      10.702  -3.783   7.550  0.00  0.00    +0.163 HD
ATOM      6  H   UNL     1       8.428  -1.112   7.615  0.00  0.00    +0.159 HD
ATOM      7  H   UNL     1       9.507  -2.028   6.632  0.00  0.00    +0.159 HD
ATOM      8  H   UNL     1       9.071  -2.839  10.622  0.00  0.00    +0.159 HD
ATOM      9  H   UNL     1       8.183  -1.572   9.871  0.00  0.00    +0.159 HD
ENDROOT
BRANCH   1  10
ATOM     10  C   UNL     1      10.805  -4.422   9.580  0.00  0.00    +0.151 C 
BRANCH  10  11
ATOM     11  C   UNL     1      12.243  -4.787   9.335  0.00  0.00    -0.028 A 
ATOM     12  C   UNL     1      13.153  -4.850  10.400  0.00  0.00    +0.005 A 
ATOM     13  C   UNL     1      12.700  -5.077   8.040  0.00  0.00    +0.005 A 
ATOM     14  C   UNL     1      14.482  -5.219  10.178  0.00  0.00    +0.000 A 
ATOM     15  C   UNL     1      14.028  -5.444   7.822  0.00  0.00    +0.000 A 
ATOM     16  C   UNL     1      14.918  -5.517   8.891  0.00  0.00    +0.000 A 
ENDBRANCH  10  11
ENDBRANCH   1  10
TORSDOF 2
ENDMDL
MODEL 7
REMARK VINA RESULT:    -4.133     34.313     35.145
REMARK INTER + INTRA:          -4.752
REMARK INTER:                  -4.647
REMARK INTRA:                  -0.105
REMARK UNBOUND:                -0.137
REMARK  Name = 1550473
REMARK  2 active torsions:
REMARK  status: ('A' for Active; 'I' for Inactive)
REMARK    1  A    between atoms: N_1  and  C_4
REMARK    2  A    between atoms: C_4  and  C_5
REMARK                            x       y       z     vdW  Elec       q    Type
REMARK                         _______ _______ _______ _____ _____    ______ ____
ROOT
ATOM      1  N   UNL     1     -16.094 -13.057 -24.673  0.00  0.00    -0.354 N 
ATOM      2  N   UNL     1     -16.046 -13.826 -22.489  0.00  0.00    -0.372 N 
ATOM      3  N   UNL     1     -18.062 -13.703 -23.577  0.00  0.00    -0.372 N 
ATOM      4  C   UNL     1     -16.737 -13.523 -23.594  0.00  0.00    +0.166 C 
ATOM      5  H   UNL     1     -15.092 -12.915 -24.611  0.00  0.00    +0.163 HD
ATOM      6  H   UNL     1     -16.504 -14.183 -21.661  0.00  0.00    +0.159 HD
ATOM      7  H   UNL     1     -15.039 -13.727 -22.446  0.00  0.00    +0.159 HD
ATOM      8  H   UNL     1     -18.642 -13.487 -24.378  0.00  0.00    +0.159 HD
ATOM      9  H   UNL     1     -18.540 -14.048 -22.754  0.00  0.00    +0.159 HD
ENDROOT
BRANCH   1  10
ATOM     10  C   UNL     1     -16.746 -12.748 -25.944  0.00  0.00    +0.151 C 
BRANCH  10  11
ATOM     11  C   UNL     1     -15.987 -11.646 -26.630  0.00  0.00    -0.028 A 
ATOM     12  C   UNL     1     -14.614 -11.777 -26.883  0.00  0.00    +0.005 A 
ATOM     13  C   UNL     1     -16.637 -10.470 -27.035  0.00  0.00    +0.005 A 
ATOM     14  C   UNL     1     -13.915 -10.766 -27.548  0.00  0.00    +0.000 A 
ATOM     15  C   UNL     1     -15.935  -9.462 -27.698  0.00  0.00    +0.000 A 
ATOM     16  C   UNL     1     -14.575  -9.612 -27.956  0.00  0.00    +0.000 A 
ENDBRANCH  10  11
ENDBRANCH   1  10
TORSDOF 2
ENDMDL
MODEL 8
REMARK VINA RESULT:    -4.092     10.878     11.903
REMARK INTER + INTRA:          -4.707
REMARK INTER:                  -4.534
REMARK INTRA:                  -0.173
REMARK UNBOUND:                -0.137
REMARK  Name = 1550473
REMARK  2 active torsions:
REMARK  status: ('A' for Active; 'I' for Inactive)
REMARK    1  A    between atoms: N_1  and  C_4
REMARK    2  A    between atoms: C_4  and  C_5
REMARK                            x       y       z     vdW  Elec       q    Type
REMARK                         _______ _______ _______ _____ _____    ______ ____
ROOT
ATOM      1  N   UNL     1       7.599 -14.720   0.562  0.00  0.00    -0.354 N 
ATOM      2  N   UNL     1       8.253 -13.968   2.652  0.00  0.00    -0.372 N 
ATOM      3  N   UNL     1       6.080 -14.638   2.344  0.00  0.00    -0.372 N 
ATOM      4  C   UNL     1       7.303 -14.447   1.840  0.00  0.00    +0.166 C 
ATOM      5  H   UNL     1       8.537 -14.525   0.233  0.00  0.00    +0.163 HD
ATOM      6  H   UNL     1       8.060 -13.756   3.622  0.00  0.00    +0.159 HD
ATOM      7  H   UNL     1       9.202 -13.817   2.333  0.00  0.00    +0.159 HD
ATOM      8  H   UNL     1       5.318 -14.992   1.782  0.00  0.00    +0.159 HD
ATOM      9  H   UNL     1       5.865 -14.420   3.310  0.00  0.00    +0.159 HD
ENDROOT
BRANCH   1  10
ATOM     10  C   UNL     1       6.652 -15.296  -0.391  0.00  0.00    +0.151 C 
BRANCH  10  11
ATOM     11  C   UNL     1       6.065 -14.192  -1.228  0.00  0.00    -0.028 A 
ATOM     12  C   UNL     1       6.782 -13.661  -2.309  0.00  0.00    +0.005 A 
ATOM     13  C   UNL     1       4.790 -13.678  -0.947  0.00  0.00    +0.005 A 
ATOM     14  C   UNL     1       6.225 -12.656  -3.105  0.00  0.00    +0.000 A 
ATOM     15  C   UNL     1       4.237 -12.675  -1.744  0.00  0.00    +0.000 A 
ATOM     16  C   UNL     1       4.954 -12.166  -2.824  0.00  0.00    +0.000 A 
ENDBRANCH  10  11
ENDBRANCH   1  10
TORSDOF 2
ENDMDL
MODEL 9
REMARK VINA RESULT:    -4.042     11.590     12.621
REMARK INTER + INTRA:          -4.651
REMARK INTER:                  -4.517
REMARK INTRA:                  -0.134
REMARK UNBOUND:                -0.137
REMARK  Name = 1550473
REMARK  2 active torsions:
REMARK  status: ('A' for Active; 'I' for Inactive)
REMARK    1  A    between atoms: N_1  and  C_4
REMARK    2  A    between atoms: C_4  and  C_5
REMARK                            x       y       z     vdW  Elec       q    Type
REMARK                         _______ _______ _______ _____ _____    ______ ____
ROOT
ATOM      1  N   UNL     1       5.483 -15.887   0.954  0.00  0.00    -0.354 N 
ATOM      2  N   UNL     1       5.060 -15.655   3.219  0.00  0.00    -0.372 N 
ATOM      3  N   UNL     1       7.098 -14.993   2.398  0.00  0.00    -0.372 N 
ATOM      4  C   UNL     1       5.886 -15.513   2.176  0.00  0.00    +0.166 C 
ATOM      5  H   UNL     1       4.563 -16.302   0.857  0.00  0.00    +0.163 HD
ATOM      6  H   UNL     1       5.335 -15.378   4.152  0.00  0.00    +0.159 HD
ATOM      7  H   UNL     1       4.124 -16.028   3.112  0.00  0.00    +0.159 HD
ATOM      8  H   UNL     1       7.770 -14.865   1.654  0.00  0.00    +0.159 HD
ATOM      9  H   UNL     1       7.395 -14.721   3.327  0.00  0.00    +0.159 HD
ENDROOT
BRANCH   1  10
ATOM     10  C   UNL     1       6.285 -15.725  -0.257  0.00  0.00    +0.151 C 
BRANCH  10  11
ATOM     11  C   UNL     1       5.755 -14.558  -1.044  0.00  0.00    -0.028 A 
ATOM     12  C   UNL     1       4.460 -14.072  -0.812  0.00  0.00    +0.005 A 
ATOM     13  C   UNL     1       6.545 -13.930  -2.020  0.00  0.00    +0.005 A 
ATOM     14  C   UNL     1       3.978 -12.970  -1.522  0.00  0.00    +0.000 A 
ATOM     15  C   UNL     1       6.060 -12.831  -2.727  0.00  0.00    +0.000 A 
ATOM     16  C   UNL     1       4.778 -12.349  -2.476  0.00  0.00    +0.000 A 
ENDBRANCH  10  11
ENDBRANCH   1  10
TORSDOF 2
ENDMDL
