MODEL 1
REMARK VINA RESULT:    -5.783      0.000      0.000
REMARK INTER + INTRA:          -6.635
REMARK INTER:                  -6.459
REMARK INTRA:                  -0.176
REMARK UNBOUND:                -0.176
REMARK  Name = 1550473
REMARK  2 active torsions:
REMARK  status: ('A' for Active; 'I' for Inactive)
REMARK    1  A    between atoms: N_1  and  C_4
REMARK    2  A    between atoms: C_4  and  C_5
REMARK                            x       y       z     vdW  Elec       q    Type
REMARK                         _______ _______ _______ _____ _____    ______ ____
ROOT
ATOM      1  N   UNL     1       5.239  -6.583   4.077  0.00  0.00    -0.354 N 
ATOM      2  N   UNL     1       4.679  -6.546   6.324  0.00  0.00    -0.372 N 
ATOM      3  N   UNL     1       3.111  -5.898   4.779  0.00  0.00    -0.372 N 
ATOM      4  C   UNL     1       4.344  -6.341   5.044  0.00  0.00    +0.166 C 
ATOM      5  H   UNL     1       6.167  -6.889   4.346  0.00  0.00    +0.163 HD
ATOM      6  H   UNL     1       4.024  -6.375   7.075  0.00  0.00    +0.159 HD
ATOM      7  H   UNL     1       5.592  -6.896   6.587  0.00  0.00    +0.159 HD
ATOM      8  H   UNL     1       2.798  -5.718   3.835  0.00  0.00    +0.159 HD
ATOM      9  H   UNL     1       2.445  -5.710   5.518  0.00  0.00    +0.159 HD
ENDROOT
BRANCH   1  10
ATOM     10  C   UNL     1       4.958  -6.444   2.650  0.00  0.00    +0.151 C 
BRANCH  10  11
ATOM     11  C   UNL     1       4.652  -7.800   2.075  0.00  0.00    -0.028 A 
ATOM     12  C   UNL     1       3.326  -8.244   1.966  0.00  0.00    +0.005 A 
ATOM     13  C   UNL     1       5.683  -8.643   1.633  0.00  0.00    +0.005 A 
ATOM     14  C   UNL     1       3.039  -9.491   1.405  0.00  0.00    +0.000 A 
ATOM     15  C   UNL     1       5.392  -9.887   1.074  0.00  0.00    +0.000 A 
ATOM     16  C   UNL     1       4.070 -10.310   0.958  0.00  0.00    +0.000 A 
ENDBRANCH  10  11
ENDBRANCH   1  10
TORSDOF 2
ENDMDL
MODEL 2
REMARK VINA RESULT:    -5.362      2.071      3.046
REMARK INTER + INTRA:          -6.165
REMARK INTER:                  -6.029
REMARK INTRA:                  -0.136
REMARK UNBOUND:                -0.176
REMARK  Name = 1550473
REMARK  2 active torsions:
REMARK  status: ('A' for Active; 'I' for Inactive)
REMARK    1  A    between atoms: N_1  and  C_4
REMARK    2  A    between atoms: C_4  and  C_5
REMARK                            x       y       z     vdW  Elec       q    Type
REMARK                         _______ _______ _______ _____ _____    ______ ____
ROOT
ATOM      1  N   UNL     1       5.034  -6.435   2.239  0.00  0.00    -0.354 N 
ATOM      2  N   UNL     1       5.951  -4.637   1.102  0.00  0.00    -0.372 N 
ATOM      3  N   UNL     1       7.344  -6.042   2.265  0.00  0.00    -0.372 N 
ATOM      4  C   UNL     1       6.106  -5.717   1.878  0.00  0.00    +0.166 C 
ATOM      5  H   UNL     1       4.119  -6.119   1.937  0.00  0.00    +0.163 HD
ATOM      6  H   UNL     1       6.742  -4.079   0.811  0.00  0.00    +0.159 HD
ATOM      7  H   UNL     1       5.041  -4.350   0.764  0.00  0.00    +0.159 HD
ATOM      8  H   UNL     1       7.528  -6.842   2.856  0.00  0.00    +0.159 HD
ATOM      9  H   UNL     1       8.147  -5.488   1.993  0.00  0.00    +0.159 HD
ENDROOT
BRANCH   1  10
ATOM     10  C   UNL     1       5.100  -7.658   3.037  0.00  0.00    +0.151 C 
BRANCH  10  11
ATOM     11  C   UNL     1       4.313  -8.738   2.346  0.00  0.00    -0.028 A 
ATOM     12  C   UNL     1       4.650 -10.088   2.523  0.00  0.00    +0.005 A 
ATOM     13  C   UNL     1       3.228  -8.418   1.516  0.00  0.00    +0.005 A 
ATOM     14  C   UNL     1       3.901 -11.093   1.905  0.00  0.00    +0.000 A 
ATOM     15  C   UNL     1       2.483  -9.424   0.900  0.00  0.00    +0.000 A 
ATOM     16  C   UNL     1       2.819 -10.761   1.097  0.00  0.00    +0.000 A 
ENDBRANCH  10  11
ENDBRANCH   1  10
TORSDOF 2
ENDMDL
MODEL 3
REMARK VINA RESULT:    -5.275      1.183      1.290
REMARK INTER + INTRA:          -6.068
REMARK INTER:                  -5.929
REMARK INTRA:                  -0.138
REMARK UNBOUND:                -0.176
REMARK  Name = 1550473
REMARK  2 active torsions:
REMARK  status: ('A' for Active; 'I' for Inactive)
REMARK    1  A    between atoms: N_1  and  C_4
REMARK    2  A    between atoms: C_4  and  C_5
REMARK                            x       y       z     vdW  Elec       q    Type
REMARK                         _______ _______ _______ _____ _____    ______ ____
ROOT
ATOM      1  N   UNL     1       4.870  -7.565   4.092  0.00  0.00    -0.354 N 
ATOM      2  N   UNL     1       5.168  -7.198   6.359  0.00  0.00    -0.372 N 
ATOM      3  N   UNL     1       3.649  -5.912   5.218  0.00  0.00    -0.372 N 
ATOM      4  C   UNL     1       4.558  -6.892   5.208  0.00  0.00    +0.166 C 
ATOM      5  H   UNL     1       5.590  -8.277   4.144  0.00  0.00    +0.163 HD
ATOM      6  H   UNL     1       4.952  -6.710   7.218  0.00  0.00    +0.159 HD
ATOM      7  H   UNL     1       5.854  -7.941   6.418  0.00  0.00    +0.159 HD
ATOM      8  H   UNL     1       3.157  -5.629   4.381  0.00  0.00    +0.159 HD
ATOM      9  H   UNL     1       3.427  -5.404   6.065  0.00  0.00    +0.159 HD
ENDROOT
BRANCH   1  10
ATOM     10  C   UNL     1       4.225  -7.346   2.798  0.00  0.00    +0.151 C 
BRANCH  10  11
ATOM     11  C   UNL     1       3.797  -8.672   2.232  0.00  0.00    -0.028 A 
ATOM     12  C   UNL     1       2.813  -8.735   1.234  0.00  0.00    +0.005 A 
ATOM     13  C   UNL     1       4.375  -9.868   2.685  0.00  0.00    +0.005 A 
ATOM     14  C   UNL     1       2.436  -9.964   0.687  0.00  0.00    +0.000 A 
ATOM     15  C   UNL     1       3.995 -11.092   2.137  0.00  0.00    +0.000 A 
ATOM     16  C   UNL     1       3.028 -11.140   1.136  0.00  0.00    +0.000 A 
ENDBRANCH  10  11
ENDBRANCH   1  10
TORSDOF 2
ENDMDL
MODEL 4
REMARK VINA RESULT:    -5.125      2.048      2.608
REMARK INTER + INTRA:          -5.900
REMARK INTER:                  -5.733
REMARK INTRA:                  -0.168
REMARK UNBOUND:                -0.176
REMARK  Name = 1550473
REMARK  2 active torsions:
REMARK  status: ('A' for Active; 'I' for Inactive)
REMARK    1  A    between atoms: N_1  and  C_4
REMARK    2  A    between atoms: C_4  and  C_5
REMARK                            x       y       z     vdW  Elec       q    Type
REMARK                         _______ _______ _______ _____ _____    ______ ____
ROOT
ATOM      1  N   UNL     1       5.630  -7.034   2.300  0.00  0.00    -0.354 N 
ATOM      2  N   UNL     1       7.932  -6.788   2.245  0.00  0.00    -0.372 N 
ATOM      3  N   UNL     1       6.937  -7.480   4.194  0.00  0.00    -0.372 N 
ATOM      4  C   UNL     1       6.817  -7.103   2.916  0.00  0.00    +0.166 C 
ATOM      5  H   UNL     1       5.604  -6.712   1.340  0.00  0.00    +0.163 HD
ATOM      6  H   UNL     1       8.843  -6.835   2.682  0.00  0.00    +0.159 HD
ATOM      7  H   UNL     1       7.908  -6.511   1.271  0.00  0.00    +0.159 HD
ATOM      8  H   UNL     1       6.133  -7.724   4.757  0.00  0.00    +0.159 HD
ATOM      9  H   UNL     1       7.838  -7.521   4.652  0.00  0.00    +0.159 HD
ENDROOT
BRANCH   1  10
ATOM     10  C   UNL     1       4.362  -7.406   2.925  0.00  0.00    +0.151 C 
BRANCH  10  11
ATOM     11  C   UNL     1       3.843  -8.658   2.275  0.00  0.00    -0.028 A 
ATOM     12  C   UNL     1       2.837  -8.590   1.300  0.00  0.00    +0.005 A 
ATOM     13  C   UNL     1       4.357  -9.916   2.625  0.00  0.00    +0.005 A 
ATOM     14  C   UNL     1       2.375  -9.751   0.674  0.00  0.00    +0.000 A 
ATOM     15  C   UNL     1       3.893 -11.073   1.998  0.00  0.00    +0.000 A 
ATOM     16  C   UNL     1       2.904 -10.989   1.021  0.00  0.00    +0.000 A 
ENDBRANCH  10  11
ENDBRANCH   1  10
TORSDOF 2
ENDMDL
MODEL 5
REMARK VINA RESULT:    -5.045      1.216      2.271
REMARK INTER + INTRA:          -5.811
REMARK INTER:                  -5.678
REMARK INTRA:                  -0.133
REMARK UNBOUND:                -0.176
REMARK  Name = 1550473
REMARK  2 active torsions:
REMARK  status: ('A' for Active; 'I' for Inactive)
REMARK    1  A    between atoms: N_1  and  C_4
REMARK    2  A    between atoms: C_4  and  C_5
REMARK                            x       y       z     vdW  Elec       q    Type
REMARK                         _______ _______ _______ _____ _____    ______ ____
ROOT
ATOM      1  N   UNL     1       4.321  -8.077   3.823  0.00  0.00    -0.354 N 
ATOM      2  N   UNL     1       3.702  -6.148   4.946  0.00  0.00    -0.372 N 
ATOM      3  N   UNL     1       5.704  -6.185   3.826  0.00  0.00    -0.372 N 
ATOM      4  C   UNL     1       4.582  -6.815   4.190  0.00  0.00    +0.166 C 
ATOM      5  H   UNL     1       3.467  -8.508   4.156  0.00  0.00    +0.163 HD
ATOM      6  H   UNL     1       3.870  -5.194   5.235  0.00  0.00    +0.159 HD
ATOM      7  H   UNL     1       2.827  -6.566   5.239  0.00  0.00    +0.159 HD
ATOM      8  H   UNL     1       6.412  -6.635   3.261  0.00  0.00    +0.159 HD
ATOM      9  H   UNL     1       5.896  -5.234   4.116  0.00  0.00    +0.159 HD
ENDROOT
BRANCH   1  10
ATOM     10  C   UNL     1       5.189  -8.872   2.956  0.00  0.00    +0.151 C 
BRANCH  10  11
ATOM     11  C   UNL     1       4.413  -9.296   1.740  0.00  0.00    -0.028 A 
ATOM     12  C   UNL     1       4.975 -10.185   0.811  0.00  0.00    +0.005 A 
ATOM     13  C   UNL     1       3.114  -8.817   1.512  0.00  0.00    +0.005 A 
ATOM     14  C   UNL     1       4.243 -10.603  -0.303  0.00  0.00    +0.000 A 
ATOM     15  C   UNL     1       2.387  -9.235   0.398  0.00  0.00    +0.000 A 
ATOM     16  C   UNL     1       2.951 -10.130  -0.508  0.00  0.00    +0.000 A 
ENDBRANCH  10  11
ENDBRANCH   1  10
TORSDOF 2
ENDMDL
MODEL 6
REMARK VINA RESULT:    -5.030      2.665      3.936
REMARK INTER + INTRA:          -5.794
REMARK INTER:                  -5.692
REMARK INTRA:                  -0.102
REMARK UNBOUND:                -0.176
REMARK  Name = 1550473
REMARK  2 active torsions:
REMARK  status: ('A' for Active; 'I' for Inactive)
REMARK    1  A    between atoms: N_1  and  C_4
REMARK    2  A    between atoms: C_4  and  C_5
REMARK                            x       y       z     vdW  Elec       q    Type
REMARK                         _______ _______ _______ _____ _____    ______ ____
ROOT
ATOM      1  N   UNL     1       7.458  -6.473   2.176  0.00  0.00    -0.354 N 
ATOM      2  N   UNL     1       9.744  -6.719   2.455  0.00  0.00    -0.372 N 
ATOM      3  N   UNL     1       8.829  -4.620   2.593  0.00  0.00    -0.372 N 
ATOM      4  C   UNL     1       8.662  -5.933   2.406  0.00  0.00    +0.166 C 
ATOM      5  H   UNL     1       7.402  -7.472   2.012  0.00  0.00    +0.163 HD
ATOM      6  H   UNL     1      10.665  -6.341   2.630  0.00  0.00    +0.159 HD
ATOM      7  H   UNL     1       9.679  -7.723   2.337  0.00  0.00    +0.159 HD
ATOM      8  H   UNL     1       8.054  -3.971   2.563  0.00  0.00    +0.159 HD
ATOM      9  H   UNL     1       9.745  -4.220   2.758  0.00  0.00    +0.159 HD
ENDROOT
BRANCH   1  10
ATOM     10  C   UNL     1       6.210  -5.712   2.157  0.00  0.00    +0.151 C 
BRANCH  10  11
ATOM     11  C   UNL     1       5.101  -6.574   2.694  0.00  0.00    -0.028 A 
ATOM     12  C   UNL     1       4.602  -7.645   1.938  0.00  0.00    +0.005 A 
ATOM     13  C   UNL     1       4.548  -6.327   3.960  0.00  0.00    +0.005 A 
ATOM     14  C   UNL     1       3.592  -8.464   2.449  0.00  0.00    +0.000 A 
ATOM     15  C   UNL     1       3.539  -7.147   4.466  0.00  0.00    +0.000 A 
ATOM     16  C   UNL     1       3.063  -8.217   3.711  0.00  0.00    +0.000 A 
ENDBRANCH  10  11
ENDBRANCH   1  10
TORSDOF 2
ENDMDL
MODEL 7
REMARK VINA RESULT:    -4.929     24.962     26.619
REMARK INTER + INTRA:          -5.681
REMARK INTER:                  -5.522
REMARK INTRA:                  -0.159
REMARK UNBOUND:                -0.176
REMARK  Name = 1550473
REMARK  2 active torsions:
REMARK  status: ('A' for Active; 'I' for Inactive)
REMARK    1  A    between atoms: N_1  and  C_4
REMARK    2  A    between atoms: C_4  and  C_5
REMARK                            x       y       z     vdW  Elec       q    Type
REMARK                         _______ _______ _______ _____ _____    ______ ____
ROOT
ATOM      1  N   UNL     1      -8.292  -2.565  24.984  0.00  0.00    -0.354 N 
ATOM      2  N   UNL     1      -8.695  -2.907  22.729  0.00  0.00    -0.372 N 
ATOM      3  N   UNL     1      -8.224  -4.717  24.058  0.00  0.00    -0.372 N 
ATOM      4  C   UNL     1      -8.400  -3.397  23.939  0.00  0.00    +0.166 C 
ATOM      5  H   UNL     1      -8.407  -1.571  24.822  0.00  0.00    +0.163 HD
ATOM      6  H   UNL     1      -8.787  -3.510  21.923  0.00  0.00    +0.159 HD
ATOM      7  H   UNL     1      -8.855  -1.918  22.579  0.00  0.00    +0.159 HD
ATOM      8  H   UNL     1      -7.994  -5.149  24.943  0.00  0.00    +0.159 HD
ATOM      9  H   UNL     1      -8.300  -5.336  23.260  0.00  0.00    +0.159 HD
ENDROOT
BRANCH   1  10
ATOM     10  C   UNL     1      -8.027  -3.003  26.354  0.00  0.00    +0.151 C 
BRANCH  10  11
ATOM     11  C   UNL     1      -6.748  -2.374  26.832  0.00  0.00    -0.028 A 
ATOM     12  C   UNL     1      -5.517  -2.755  26.278  0.00  0.00    +0.005 A 
ATOM     13  C   UNL     1      -6.760  -1.392  27.835  0.00  0.00    +0.005 A 
ATOM     14  C   UNL     1      -4.331  -2.149  26.701  0.00  0.00    +0.000 A 
ATOM     15  C   UNL     1      -5.574  -0.791  28.255  0.00  0.00    +0.000 A 
ATOM     16  C   UNL     1      -4.360  -1.168  27.686  0.00  0.00    +0.000 A 
ENDBRANCH  10  11
ENDBRANCH   1  10
TORSDOF 2
ENDMDL
MODEL 8
REMARK VINA RESULT:    -4.852      3.491      5.099
REMARK INTER + INTRA:          -5.595
REMARK INTER:                  -5.474
REMARK INTRA:                  -0.121
REMARK UNBOUND:                -0.176
REMARK  Name = 1550473
REMARK  2 active torsions:
REMARK  status: ('A' for Active; 'I' for Inactive)
REMARK    1  A    between atoms: N_1  and  C_4
REMARK    2  A    between atoms: C_4  and  C_5
REMARK                            x       y       z     vdW  Elec       q    Type
REMARK                         _______ _______ _______ _____ _____    ______ ____
ROOT
ATOM      1  N   UNL     1       3.890  -9.752   0.448  0.00  0.00    -0.354 N 
ATOM      2  N   UNL     1       4.584 -11.046  -1.342  0.00  0.00    -0.372 N 
ATOM      3  N   UNL     1       2.562 -11.505  -0.361  0.00  0.00    -0.372 N 
ATOM      4  C   UNL     1       3.672 -10.761  -0.406  0.00  0.00    +0.166 C 
ATOM      5  H   UNL     1       4.765  -9.245   0.381  0.00  0.00    +0.163 HD
ATOM      6  H   UNL     1       4.446 -11.800  -2.003  0.00  0.00    +0.159 HD
ATOM      7  H   UNL     1       5.437 -10.509  -1.437  0.00  0.00    +0.159 HD
ATOM      8  H   UNL     1       1.837 -11.345   0.326  0.00  0.00    +0.159 HD
ATOM      9  H   UNL     1       2.411 -12.271  -1.006  0.00  0.00    +0.159 HD
ENDROOT
BRANCH   1  10
ATOM     10  C   UNL     1       2.935  -9.325   1.470  0.00  0.00    +0.151 C 
BRANCH  10  11
ATOM     11  C   UNL     1       3.578  -8.276   2.335  0.00  0.00    -0.028 A 
ATOM     12  C   UNL     1       3.024  -7.942   3.579  0.00  0.00    +0.005 A 
ATOM     13  C   UNL     1       4.746  -7.618   1.919  0.00  0.00    +0.005 A 
ATOM     14  C   UNL     1       3.638  -6.989   4.396  0.00  0.00    +0.000 A 
ATOM     15  C   UNL     1       5.355  -6.667   2.737  0.00  0.00    +0.000 A 
ATOM     16  C   UNL     1       4.802  -6.355   3.977  0.00  0.00    +0.000 A 
ENDBRANCH  10  11
ENDBRANCH   1  10
TORSDOF 2
ENDMDL
MODEL 9
REMARK VINA RESULT:    -4.850     26.509     27.743
REMARK INTER + INTRA:          -5.592
REMARK INTER:                  -5.423
REMARK INTRA:                  -0.169
REMARK UNBOUND:                -0.176
REMARK  Name = 1550473
REMARK  2 active torsions:
REMARK  status: ('A' for Active; 'I' for Inactive)
REMARK    1  A    between atoms: N_1  and  C_4
REMARK    2  A    between atoms: C_4  and  C_5
REMARK                            x       y       z     vdW  Elec       q    Type
REMARK                         _______ _______ _______ _____ _____    ______ ____
ROOT
ATOM      1  N   UNL     1     -12.497   9.650  15.956  0.00  0.00    -0.354 N 
ATOM      2  N   UNL     1     -12.814   8.299  14.102  0.00  0.00    -0.372 N 
ATOM      3  N   UNL     1     -12.078   7.347  16.056  0.00  0.00    -0.372 N 
ATOM      4  C   UNL     1     -12.460   8.439  15.385  0.00  0.00    +0.166 C 
ATOM      5  H   UNL     1     -12.767  10.443  15.385  0.00  0.00    +0.163 HD
ATOM      6  H   UNL     1     -12.800   7.396  13.645  0.00  0.00    +0.159 HD
ATOM      7  H   UNL     1     -13.127   9.085  13.546  0.00  0.00    +0.159 HD
ATOM      8  H   UNL     1     -11.793   7.386  17.025  0.00  0.00    +0.159 HD
ATOM      9  H   UNL     1     -12.046   6.437  15.613  0.00  0.00    +0.159 HD
ENDROOT
BRANCH   1  10
ATOM     10  C   UNL     1     -12.183   9.902  17.361  0.00  0.00    +0.151 C 
BRANCH  10  11
ATOM     11  C   UNL     1     -10.872  10.634  17.448  0.00  0.00    -0.028 A 
ATOM     12  C   UNL     1      -9.660   9.940  17.321  0.00  0.00    +0.005 A 
ATOM     13  C   UNL     1     -10.836  12.022  17.650  0.00  0.00    +0.005 A 
ATOM     14  C   UNL     1      -8.443  10.624  17.372  0.00  0.00    +0.000 A 
ATOM     15  C   UNL     1      -9.619  12.701  17.701  0.00  0.00    +0.000 A 
ATOM     16  C   UNL     1      -8.422  12.002  17.559  0.00  0.00    +0.000 A 
ENDBRANCH  10  11
ENDBRANCH   1  10
TORSDOF 2
ENDMDL
