MODEL 1
REMARK VINA RESULT:    -6.624      0.000      0.000
REMARK INTER + INTRA:          -7.535
REMARK INTER:                  -7.398
REMARK INTRA:                  -0.137
REMARK UNBOUND:                -0.137
REMARK  Name = 1550473
REMARK  2 active torsions:
REMARK  status: ('A' for Active; 'I' for Inactive)
REMARK    1  A    between atoms: N_1  and  C_4
REMARK    2  A    between atoms: C_4  and  C_5
REMARK                            x       y       z     vdW  Elec       q    Type
REMARK                         _______ _______ _______ _____ _____    ______ ____
ROOT
ATOM      1  N   UNL     1     -14.620  -1.923  -6.116  0.00  0.00    -0.354 N 
ATOM      2  N   UNL     1     -13.655  -2.999  -7.926  0.00  0.00    -0.372 N 
ATOM      3  N   UNL     1     -12.470  -1.352  -6.855  0.00  0.00    -0.372 N 
ATOM      4  C   UNL     1     -13.586  -2.082  -6.953  0.00  0.00    +0.166 C 
ATOM      5  H   UNL     1     -15.449  -2.487  -6.263  0.00  0.00    +0.163 HD
ATOM      6  H   UNL     1     -12.890  -3.145  -8.570  0.00  0.00    +0.159 HD
ATOM      7  H   UNL     1     -14.467  -3.594  -8.041  0.00  0.00    +0.159 HD
ATOM      8  H   UNL     1     -12.358  -0.639  -6.146  0.00  0.00    +0.159 HD
ATOM      9  H   UNL     1     -11.698  -1.475  -7.497  0.00  0.00    +0.159 HD
ENDROOT
BRANCH   1  10
ATOM     10  C   UNL     1     -14.624  -0.989  -4.991  0.00  0.00    +0.151 C 
BRANCH  10  11
ATOM     11  C   UNL     1     -15.991  -0.373  -4.870  0.00  0.00    -0.028 A 
ATOM     12  C   UNL     1     -16.994  -0.677  -5.802  0.00  0.00    +0.005 A 
ATOM     13  C   UNL     1     -16.290   0.512  -3.822  0.00  0.00    +0.005 A 
ATOM     14  C   UNL     1     -18.272  -0.127  -5.672  0.00  0.00    +0.000 A 
ATOM     15  C   UNL     1     -17.567   1.059  -3.697  0.00  0.00    +0.000 A 
ATOM     16  C   UNL     1     -18.558   0.737  -4.621  0.00  0.00    +0.000 A 
ENDBRANCH  10  11
ENDBRANCH   1  10
TORSDOF 2
ENDMDL
MODEL 2
REMARK VINA RESULT:    -6.372      1.638      2.292
REMARK INTER + INTRA:          -7.253
REMARK INTER:                  -7.109
REMARK INTRA:                  -0.144
REMARK UNBOUND:                -0.137
REMARK  Name = 1550473
REMARK  2 active torsions:
REMARK  status: ('A' for Active; 'I' for Inactive)
REMARK    1  A    between atoms: N_1  and  C_4
REMARK    2  A    between atoms: C_4  and  C_5
REMARK                            x       y       z     vdW  Elec       q    Type
REMARK                         _______ _______ _______ _____ _____    ______ ____
ROOT
ATOM      1  N   UNL     1     -15.692  -1.697  -7.091  0.00  0.00    -0.354 N 
ATOM      2  N   UNL     1     -13.506  -1.673  -7.855  0.00  0.00    -0.372 N 
ATOM      3  N   UNL     1     -14.140  -3.292  -6.358  0.00  0.00    -0.372 N 
ATOM      4  C   UNL     1     -14.460  -2.223  -7.095  0.00  0.00    +0.166 C 
ATOM      5  H   UNL     1     -15.864  -0.868  -7.648  0.00  0.00    +0.163 HD
ATOM      6  H   UNL     1     -12.568  -2.049  -7.881  0.00  0.00    +0.159 HD
ATOM      7  H   UNL     1     -13.692  -0.872  -8.446  0.00  0.00    +0.159 HD
ATOM      8  H   UNL     1     -14.813  -3.751  -5.758  0.00  0.00    +0.159 HD
ATOM      9  H   UNL     1     -13.203  -3.677  -6.362  0.00  0.00    +0.159 HD
ENDROOT
BRANCH   1  10
ATOM     10  C   UNL     1     -16.817  -2.253  -6.340  0.00  0.00    +0.151 C 
BRANCH  10  11
ATOM     11  C   UNL     1     -16.853  -1.625  -4.974  0.00  0.00    -0.028 A 
ATOM     12  C   UNL     1     -16.717  -0.237  -4.826  0.00  0.00    +0.005 A 
ATOM     13  C   UNL     1     -17.030  -2.411  -3.825  0.00  0.00    +0.005 A 
ATOM     14  C   UNL     1     -16.782   0.351  -3.560  0.00  0.00    +0.000 A 
ATOM     15  C   UNL     1     -17.093  -1.820  -2.563  0.00  0.00    +0.000 A 
ATOM     16  C   UNL     1     -16.971  -0.439  -2.431  0.00  0.00    +0.000 A 
ENDBRANCH  10  11
ENDBRANCH   1  10
TORSDOF 2
ENDMDL
MODEL 3
REMARK VINA RESULT:    -6.184      2.799      4.070
REMARK INTER + INTRA:          -7.044
REMARK INTER:                  -6.912
REMARK INTRA:                  -0.132
REMARK UNBOUND:                -0.137
REMARK  Name = 1550473
REMARK  2 active torsions:
REMARK  status: ('A' for Active; 'I' for Inactive)
REMARK    1  A    between atoms: N_1  and  C_4
REMARK    2  A    between atoms: C_4  and  C_5
REMARK                            x       y       z     vdW  Elec       q    Type
REMARK                         _______ _______ _______ _____ _____    ______ ____
ROOT
ATOM      1  N   UNL     1     -17.665  -1.826  -8.391  0.00  0.00    -0.354 N 
ATOM      2  N   UNL     1     -17.555  -3.248 -10.216  0.00  0.00    -0.372 N 
ATOM      3  N   UNL     1     -18.708  -3.924  -8.351  0.00  0.00    -0.372 N 
ATOM      4  C   UNL     1     -17.978  -2.991  -8.972  0.00  0.00    +0.166 C 
ATOM      5  H   UNL     1     -17.084  -1.173  -8.904  0.00  0.00    +0.163 HD
ATOM      6  H   UNL     1     -17.779  -4.117 -10.681  0.00  0.00    +0.159 HD
ATOM      7  H   UNL     1     -17.013  -2.574 -10.743  0.00  0.00    +0.159 HD
ATOM      8  H   UNL     1     -19.052  -3.795  -7.409  0.00  0.00    +0.159 HD
ATOM      9  H   UNL     1     -18.932  -4.805  -8.795  0.00  0.00    +0.159 HD
ENDROOT
BRANCH   1  10
ATOM     10  C   UNL     1     -18.121  -1.427  -7.061  0.00  0.00    +0.151 C 
BRANCH  10  11
ATOM     11  C   UNL     1     -16.926  -1.100  -6.209  0.00  0.00    -0.028 A 
ATOM     12  C   UNL     1     -17.042  -0.211  -5.130  0.00  0.00    +0.005 A 
ATOM     13  C   UNL     1     -15.675  -1.680  -6.473  0.00  0.00    +0.005 A 
ATOM     14  C   UNL     1     -15.939   0.069  -4.320  0.00  0.00    +0.000 A 
ATOM     15  C   UNL     1     -14.576  -1.396  -5.663  0.00  0.00    +0.000 A 
ATOM     16  C   UNL     1     -14.709  -0.524  -4.585  0.00  0.00    +0.000 A 
ENDBRANCH  10  11
ENDBRANCH   1  10
TORSDOF 2
ENDMDL
MODEL 4
REMARK VINA RESULT:    -6.086      3.435      5.313
REMARK INTER + INTRA:          -6.934
REMARK INTER:                  -6.776
REMARK INTRA:                  -0.158
REMARK UNBOUND:                -0.137
REMARK  Name = 1550473
REMARK  2 active torsions:
REMARK  status: ('A' for Active; 'I' for Inactive)
REMARK    1  A    between atoms: N_1  and  C_4
REMARK    2  A    between atoms: C_4  and  C_5
REMARK                            x       y       z     vdW  Elec       q    Type
REMARK                         _______ _______ _______ _____ _____    ______ ____
ROOT
ATOM      1  N   UNL     1     -18.641   0.854  -4.999  0.00  0.00    -0.354 N 
ATOM      2  N   UNL     1     -19.149   3.094  -4.705  0.00  0.00    -0.372 N 
ATOM      3  N   UNL     1     -18.772   1.790  -2.855  0.00  0.00    -0.372 N 
ATOM      4  C   UNL     1     -18.851   1.897  -4.186  0.00  0.00    +0.166 C 
ATOM      5  H   UNL     1     -18.746   0.993  -5.998  0.00  0.00    +0.163 HD
ATOM      6  H   UNL     1     -19.309   3.901  -4.117  0.00  0.00    +0.159 HD
ATOM      7  H   UNL     1     -19.207   3.241  -5.706  0.00  0.00    +0.159 HD
ATOM      8  H   UNL     1     -18.556   0.913  -2.400  0.00  0.00    +0.159 HD
ATOM      9  H   UNL     1     -18.940   2.584  -2.249  0.00  0.00    +0.159 HD
ENDROOT
BRANCH   1  10
ATOM     10  C   UNL     1     -18.258  -0.479  -4.537  0.00  0.00    +0.151 C 
BRANCH  10  11
ATOM     11  C   UNL     1     -16.885  -0.804  -5.058  0.00  0.00    -0.028 A 
ATOM     12  C   UNL     1     -15.745  -0.471  -4.313  0.00  0.00    +0.005 A 
ATOM     13  C   UNL     1     -16.719  -1.450  -6.293  0.00  0.00    +0.005 A 
ATOM     14  C   UNL     1     -14.470  -0.799  -4.783  0.00  0.00    +0.000 A 
ATOM     15  C   UNL     1     -15.445  -1.775  -6.758  0.00  0.00    +0.000 A 
ATOM     16  C   UNL     1     -14.321  -1.452  -6.002  0.00  0.00    +0.000 A 
ENDBRANCH  10  11
ENDBRANCH   1  10
TORSDOF 2
ENDMDL
MODEL 5
REMARK VINA RESULT:    -6.017      3.573      5.143
REMARK INTER + INTRA:          -6.857
REMARK INTER:                  -6.707
REMARK INTRA:                  -0.150
REMARK UNBOUND:                -0.137
REMARK  Name = 1550473
REMARK  2 active torsions:
REMARK  status: ('A' for Active; 'I' for Inactive)
REMARK    1  A    between atoms: N_1  and  C_4
REMARK    2  A    between atoms: C_4  and  C_5
REMARK                            x       y       z     vdW  Elec       q    Type
REMARK                         _______ _______ _______ _____ _____    ______ ____
ROOT
ATOM      1  N   UNL     1     -19.107  -0.465  -3.928  0.00  0.00    -0.354 N 
ATOM      2  N   UNL     1     -21.166  -1.521  -4.018  0.00  0.00    -0.372 N 
ATOM      3  N   UNL     1     -20.806   0.321  -5.338  0.00  0.00    -0.372 N 
ATOM      4  C   UNL     1     -20.347  -0.546  -4.429  0.00  0.00    +0.166 C 
ATOM      5  H   UNL     1     -18.829  -1.134  -3.219  0.00  0.00    +0.163 HD
ATOM      6  H   UNL     1     -22.106  -1.610  -4.381  0.00  0.00    +0.159 HD
ATOM      7  H   UNL     1     -20.870  -2.217  -3.344  0.00  0.00    +0.159 HD
ATOM      8  H   UNL     1     -20.239   1.083  -5.685  0.00  0.00    +0.159 HD
ATOM      9  H   UNL     1     -21.747   0.255  -5.704  0.00  0.00    +0.159 HD
ENDROOT
BRANCH   1  10
ATOM     10  C   UNL     1     -18.118   0.526  -4.348  0.00  0.00    +0.151 C 
BRANCH  10  11
ATOM     11  C   UNL     1     -16.906  -0.185  -4.883  0.00  0.00    -0.028 A 
ATOM     12  C   UNL     1     -16.999  -0.986  -6.030  0.00  0.00    +0.005 A 
ATOM     13  C   UNL     1     -15.660  -0.057  -4.250  0.00  0.00    +0.005 A 
ATOM     14  C   UNL     1     -15.867  -1.623  -6.545  0.00  0.00    +0.000 A 
ATOM     15  C   UNL     1     -14.532  -0.695  -4.766  0.00  0.00    +0.000 A 
ATOM     16  C   UNL     1     -14.636  -1.476  -5.915  0.00  0.00    +0.000 A 
ENDBRANCH  10  11
ENDBRANCH   1  10
TORSDOF 2
ENDMDL
MODEL 6
REMARK VINA RESULT:    -5.647      1.526      2.511
REMARK INTER + INTRA:          -6.444
REMARK INTER:                  -6.311
REMARK INTRA:                  -0.133
REMARK UNBOUND:                -0.137
REMARK  Name = 1550473
REMARK  2 active torsions:
REMARK  status: ('A' for Active; 'I' for Inactive)
REMARK    1  A    between atoms: N_1  and  C_4
REMARK    2  A    between atoms: C_4  and  C_5
REMARK                            x       y       z     vdW  Elec       q    Type
REMARK                         _______ _______ _______ _____ _____    ______ ____
ROOT
ATOM      1  N   UNL     1     -16.145  -1.905  -6.305  0.00  0.00    -0.354 N 
ATOM      2  N   UNL     1     -14.394  -2.115  -7.807  0.00  0.00    -0.372 N 
ATOM      3  N   UNL     1     -16.538  -2.463  -8.547  0.00  0.00    -0.372 N 
ATOM      4  C   UNL     1     -15.706  -2.160  -7.545  0.00  0.00    +0.166 C 
ATOM      5  H   UNL     1     -15.461  -1.712  -5.583  0.00  0.00    +0.163 HD
ATOM      6  H   UNL     1     -14.033  -2.300  -8.733  0.00  0.00    +0.159 HD
ATOM      7  H   UNL     1     -13.716  -1.877  -7.093  0.00  0.00    +0.159 HD
ATOM      8  H   UNL     1     -17.539  -2.519  -8.414  0.00  0.00    +0.159 HD
ATOM      9  H   UNL     1     -16.195  -2.662  -9.479  0.00  0.00    +0.159 HD
ENDROOT
BRANCH   1  10
ATOM     10  C   UNL     1     -17.557  -1.875  -5.928  0.00  0.00    +0.151 C 
BRANCH  10  11
ATOM     11  C   UNL     1     -17.857  -0.567  -5.250  0.00  0.00    -0.028 A 
ATOM     12  C   UNL     1     -16.948  -0.015  -4.335  0.00  0.00    +0.005 A 
ATOM     13  C   UNL     1     -19.045   0.128  -5.522  0.00  0.00    +0.005 A 
ATOM     14  C   UNL     1     -17.213   1.215  -3.727  0.00  0.00    +0.000 A 
ATOM     15  C   UNL     1     -19.305   1.356  -4.913  0.00  0.00    +0.000 A 
ATOM     16  C   UNL     1     -18.388   1.900  -4.017  0.00  0.00    +0.000 A 
ENDBRANCH  10  11
ENDBRANCH   1  10
TORSDOF 2
ENDMDL
MODEL 7
REMARK VINA RESULT:    -5.646      3.148      4.165
REMARK INTER + INTRA:          -6.443
REMARK INTER:                  -6.325
REMARK INTRA:                  -0.118
REMARK UNBOUND:                -0.137
REMARK  Name = 1550473
REMARK  2 active torsions:
REMARK  status: ('A' for Active; 'I' for Inactive)
REMARK    1  A    between atoms: N_1  and  C_4
REMARK    2  A    between atoms: C_4  and  C_5
REMARK                            x       y       z     vdW  Elec       q    Type
REMARK                         _______ _______ _______ _____ _____    ______ ____
ROOT
ATOM      1  N   UNL     1     -15.316  -1.739  -7.190  0.00  0.00    -0.354 N 
ATOM      2  N   UNL     1     -13.006  -1.774  -7.034  0.00  0.00    -0.372 N 
ATOM      3  N   UNL     1     -14.240  -1.398  -5.136  0.00  0.00    -0.372 N 
ATOM      4  C   UNL     1     -14.203  -1.636  -6.452  0.00  0.00    +0.166 C 
ATOM      5  H   UNL     1     -15.220  -1.891  -8.188  0.00  0.00    +0.163 HD
ATOM      6  H   UNL     1     -12.149  -1.705  -6.502  0.00  0.00    +0.159 HD
ATOM      7  H   UNL     1     -12.913  -1.971  -8.023  0.00  0.00    +0.159 HD
ATOM      8  H   UNL     1     -15.112  -1.278  -4.638  0.00  0.00    +0.159 HD
ATOM      9  H   UNL     1     -13.393  -1.314  -4.589  0.00  0.00    +0.159 HD
ENDROOT
BRANCH   1  10
ATOM     10  C   UNL     1     -16.670  -1.658  -6.644  0.00  0.00    +0.151 C 
BRANCH  10  11
ATOM     11  C   UNL     1     -17.575  -2.556  -7.442  0.00  0.00    -0.028 A 
ATOM     12  C   UNL     1     -17.414  -2.678  -8.830  0.00  0.00    +0.005 A 
ATOM     13  C   UNL     1     -18.593  -3.291  -6.815  0.00  0.00    +0.005 A 
ATOM     14  C   UNL     1     -18.236  -3.534  -9.567  0.00  0.00    +0.000 A 
ATOM     15  C   UNL     1     -19.412  -4.144  -7.554  0.00  0.00    +0.000 A 
ATOM     16  C   UNL     1     -19.231  -4.267  -8.930  0.00  0.00    +0.000 A 
ENDBRANCH  10  11
ENDBRANCH   1  10
TORSDOF 2
ENDMDL
MODEL 8
REMARK VINA RESULT:    -5.615      3.236      4.867
REMARK INTER + INTRA:          -6.408
REMARK INTER:                  -6.232
REMARK INTRA:                  -0.176
REMARK UNBOUND:                -0.137
REMARK  Name = 1550473
REMARK  2 active torsions:
REMARK  status: ('A' for Active; 'I' for Inactive)
REMARK    1  A    between atoms: N_1  and  C_4
REMARK    2  A    between atoms: C_4  and  C_5
REMARK                            x       y       z     vdW  Elec       q    Type
REMARK                         _______ _______ _______ _____ _____    ______ ____
ROOT
ATOM      1  N   UNL     1     -19.138  -2.052  -6.249  0.00  0.00    -0.354 N 
ATOM      2  N   UNL     1     -20.924  -2.883  -5.032  0.00  0.00    -0.372 N 
ATOM      3  N   UNL     1     -20.610  -0.612  -5.130  0.00  0.00    -0.372 N 
ATOM      4  C   UNL     1     -20.213  -1.841  -5.478  0.00  0.00    +0.166 C 
ATOM      5  H   UNL     1     -18.872  -3.008  -6.452  0.00  0.00    +0.163 HD
ATOM      6  H   UNL     1     -21.742  -2.755  -4.451  0.00  0.00    +0.159 HD
ATOM      7  H   UNL     1     -20.682  -3.836  -5.274  0.00  0.00    +0.159 HD
ATOM      8  H   UNL     1     -20.113   0.216  -5.428  0.00  0.00    +0.159 HD
ATOM      9  H   UNL     1     -21.419  -0.464  -4.539  0.00  0.00    +0.159 HD
ENDROOT
BRANCH   1  10
ATOM     10  C   UNL     1     -18.327  -0.984  -6.831  0.00  0.00    +0.151 C 
BRANCH  10  11
ATOM     11  C   UNL     1     -17.016  -0.909  -6.098  0.00  0.00    -0.028 A 
ATOM     12  C   UNL     1     -15.905  -1.637  -6.549  0.00  0.00    +0.005 A 
ATOM     13  C   UNL     1     -16.876  -0.106  -4.955  0.00  0.00    +0.005 A 
ATOM     14  C   UNL     1     -14.679  -1.544  -5.886  0.00  0.00    +0.000 A 
ATOM     15  C   UNL     1     -15.650  -0.017  -4.296  0.00  0.00    +0.000 A 
ATOM     16  C   UNL     1     -14.551  -0.734  -4.763  0.00  0.00    +0.000 A 
ENDBRANCH  10  11
ENDBRANCH   1  10
TORSDOF 2
ENDMDL
MODEL 9
REMARK VINA RESULT:    -5.486     11.591     12.223
REMARK INTER + INTRA:          -6.264
REMARK INTER:                  -6.143
REMARK INTRA:                  -0.121
REMARK UNBOUND:                -0.137
REMARK  Name = 1550473
REMARK  2 active torsions:
REMARK  status: ('A' for Active; 'I' for Inactive)
REMARK    1  A    between atoms: N_1  and  C_4
REMARK    2  A    between atoms: C_4  and  C_5
REMARK                            x       y       z     vdW  Elec       q    Type
REMARK                         _______ _______ _______ _____ _____    ______ ____
ROOT
ATOM      1  N   UNL     1     -13.898   9.587  -9.248  0.00  0.00    -0.354 N 
ATOM      2  N   UNL     1     -14.534   8.930 -11.376  0.00  0.00    -0.372 N 
ATOM      3  N   UNL     1     -15.220   7.680  -9.579  0.00  0.00    -0.372 N 
ATOM      4  C   UNL     1     -14.547   8.735 -10.052  0.00  0.00    +0.166 C 
ATOM      5  H   UNL     1     -13.381  10.349  -9.671  0.00  0.00    +0.163 HD
ATOM      6  H   UNL     1     -15.018   8.306 -12.008  0.00  0.00    +0.159 HD
ATOM      7  H   UNL     1     -14.055   9.719 -11.793  0.00  0.00    +0.159 HD
ATOM      8  H   UNL     1     -15.265   7.474  -8.590  0.00  0.00    +0.159 HD
ATOM      9  H   UNL     1     -15.701   7.038 -10.196  0.00  0.00    +0.159 HD
ENDROOT
BRANCH   1  10
ATOM     10  C   UNL     1     -13.895   9.493  -7.789  0.00  0.00    +0.151 C 
BRANCH  10  11
ATOM     11  C   UNL     1     -13.387  10.787  -7.215  0.00  0.00    -0.028 A 
ATOM     12  C   UNL     1     -12.749  10.810  -5.966  0.00  0.00    +0.005 A 
ATOM     13  C   UNL     1     -13.534  11.993  -7.918  0.00  0.00    +0.005 A 
ATOM     14  C   UNL     1     -12.250  12.007  -5.446  0.00  0.00    +0.000 A 
ATOM     15  C   UNL     1     -13.035  13.185  -7.395  0.00  0.00    +0.000 A 
ATOM     16  C   UNL     1     -12.391  13.192  -6.160  0.00  0.00    +0.000 A 
ENDBRANCH  10  11
ENDBRANCH   1  10
TORSDOF 2
ENDMDL
