MODEL 1
REMARK VINA RESULT:    -7.110      0.000      0.000
REMARK INTER + INTRA:          -8.087
REMARK INTER:                  -7.941
REMARK INTRA:                  -0.146
REMARK UNBOUND:                -0.146
REMARK  Name = 1550473
REMARK  2 active torsions:
REMARK  status: ('A' for Active; 'I' for Inactive)
REMARK    1  A    between atoms: N_1  and  C_4
REMARK    2  A    between atoms: C_4  and  C_5
REMARK                            x       y       z     vdW  Elec       q    Type
REMARK                         _______ _______ _______ _____ _____    ______ ____
ROOT
ATOM      1  N   UNL     1       3.601  -7.087 -11.284  0.00  0.00    -0.354 N 
ATOM      2  N   UNL     1       4.678  -6.013 -13.030  0.00  0.00    -0.372 N 
ATOM      3  N   UNL     1       3.623  -4.748 -11.433  0.00  0.00    -0.372 N 
ATOM      4  C   UNL     1       3.959  -5.954 -11.903  0.00  0.00    +0.166 C 
ATOM      5  H   UNL     1       3.861  -7.970 -11.707  0.00  0.00    +0.163 HD
ATOM      6  H   UNL     1       4.965  -5.175 -13.518  0.00  0.00    +0.159 HD
ATOM      7  H   UNL     1       4.976  -6.896 -13.427  0.00  0.00    +0.159 HD
ATOM      8  H   UNL     1       3.076  -4.636 -10.589  0.00  0.00    +0.159 HD
ATOM      9  H   UNL     1       3.891  -3.898 -11.913  0.00  0.00    +0.159 HD
ENDROOT
BRANCH   1  10
ATOM     10  C   UNL     1       2.864  -7.132 -10.022  0.00  0.00    +0.151 C 
BRANCH  10  11
ATOM     11  C   UNL     1       3.662  -7.913  -9.015  0.00  0.00    -0.028 A 
ATOM     12  C   UNL     1       3.329  -9.244  -8.721  0.00  0.00    +0.005 A 
ATOM     13  C   UNL     1       4.755  -7.331  -8.355  0.00  0.00    +0.005 A 
ATOM     14  C   UNL     1       4.088  -9.980  -7.808  0.00  0.00    +0.000 A 
ATOM     15  C   UNL     1       5.509  -8.069  -7.443  0.00  0.00    +0.000 A 
ATOM     16  C   UNL     1       5.177  -9.394  -7.172  0.00  0.00    +0.000 A 
ENDBRANCH  10  11
ENDBRANCH   1  10
TORSDOF 2
ENDMDL
MODEL 2
REMARK VINA RESULT:    -6.549      3.304      5.027
REMARK INTER + INTRA:          -7.461
REMARK INTER:                  -7.334
REMARK INTRA:                  -0.127
REMARK UNBOUND:                -0.146
REMARK  Name = 1550473
REMARK  2 active torsions:
REMARK  status: ('A' for Active; 'I' for Inactive)
REMARK    1  A    between atoms: N_1  and  C_4
REMARK    2  A    between atoms: C_4  and  C_5
REMARK                            x       y       z     vdW  Elec       q    Type
REMARK                         _______ _______ _______ _____ _____    ______ ____
ROOT
ATOM      1  N   UNL     1       5.475  -8.050  -7.529  0.00  0.00    -0.354 N 
ATOM      2  N   UNL     1       6.590  -8.591  -5.573  0.00  0.00    -0.372 N 
ATOM      3  N   UNL     1       5.013 -10.044  -6.388  0.00  0.00    -0.372 N 
ATOM      4  C   UNL     1       5.683  -8.893  -6.509  0.00  0.00    +0.166 C 
ATOM      5  H   UNL     1       5.994  -7.179  -7.547  0.00  0.00    +0.163 HD
ATOM      6  H   UNL     1       6.772  -9.209  -4.794  0.00  0.00    +0.159 HD
ATOM      7  H   UNL     1       7.141  -7.742  -5.618  0.00  0.00    +0.159 HD
ATOM      8  H   UNL     1       4.311 -10.328  -7.058  0.00  0.00    +0.159 HD
ATOM      9  H   UNL     1       5.172 -10.671  -5.609  0.00  0.00    +0.159 HD
ENDROOT
BRANCH   1  10
ATOM     10  C   UNL     1       4.549  -8.311  -8.630  0.00  0.00    +0.151 C 
BRANCH  10  11
ATOM     11  C   UNL     1       3.968  -7.007  -9.103  0.00  0.00    -0.028 A 
ATOM     12  C   UNL     1       2.774  -6.984  -9.838  0.00  0.00    +0.005 A 
ATOM     13  C   UNL     1       4.604  -5.790  -8.814  0.00  0.00    +0.005 A 
ATOM     14  C   UNL     1       2.218  -5.771 -10.252  0.00  0.00    +0.000 A 
ATOM     15  C   UNL     1       4.047  -4.580  -9.229  0.00  0.00    +0.000 A 
ATOM     16  C   UNL     1       2.852  -4.571  -9.946  0.00  0.00    +0.000 A 
ENDBRANCH  10  11
ENDBRANCH   1  10
TORSDOF 2
ENDMDL
MODEL 3
REMARK VINA RESULT:    -5.401     11.609     13.091
REMARK INTER + INTRA:          -6.178
REMARK INTER:                  -6.017
REMARK INTRA:                  -0.162
REMARK UNBOUND:                -0.146
REMARK  Name = 1550473
REMARK  2 active torsions:
REMARK  status: ('A' for Active; 'I' for Inactive)
REMARK    1  A    between atoms: N_1  and  C_4
REMARK    2  A    between atoms: C_4  and  C_5
REMARK                            x       y       z     vdW  Elec       q    Type
REMARK                         _______ _______ _______ _____ _____    ______ ____
ROOT
ATOM      1  N   UNL     1       8.859  -6.817   3.003  0.00  0.00    -0.354 N 
ATOM      2  N   UNL     1       9.465  -6.264   5.169  0.00  0.00    -0.372 N 
ATOM      3  N   UNL     1       7.307  -6.925   4.755  0.00  0.00    -0.372 N 
ATOM      4  C   UNL     1       8.537  -6.673   4.295  0.00  0.00    +0.166 C 
ATOM      5  H   UNL     1       9.801  -6.581   2.712  0.00  0.00    +0.163 HD
ATOM      6  H   UNL     1       9.252  -6.149   6.151  0.00  0.00    +0.159 HD
ATOM      7  H   UNL     1      10.418  -6.073   4.884  0.00  0.00    +0.159 HD
ATOM      8  H   UNL     1       6.560  -7.231   4.146  0.00  0.00    +0.159 HD
ATOM      9  H   UNL     1       7.071  -6.805   5.732  0.00  0.00    +0.159 HD
ENDROOT
BRANCH   1  10
ATOM     10  C   UNL     1       7.937  -7.308   1.980  0.00  0.00    +0.151 C 
BRANCH  10  11
ATOM     11  C   UNL     1       7.585  -6.177   1.053  0.00  0.00    -0.028 A 
ATOM     12  C   UNL     1       8.108  -6.134  -0.248  0.00  0.00    +0.005 A 
ATOM     13  C   UNL     1       6.724  -5.149   1.467  0.00  0.00    +0.005 A 
ATOM     14  C   UNL     1       7.758  -5.100  -1.119  0.00  0.00    +0.000 A 
ATOM     15  C   UNL     1       6.378  -4.118   0.594  0.00  0.00    +0.000 A 
ATOM     16  C   UNL     1       6.893  -4.095  -0.700  0.00  0.00    +0.000 A 
ENDBRANCH  10  11
ENDBRANCH   1  10
TORSDOF 2
ENDMDL
MODEL 4
REMARK VINA RESULT:    -5.396     12.616     13.767
REMARK INTER + INTRA:          -6.173
REMARK INTER:                  -5.999
REMARK INTRA:                  -0.173
REMARK UNBOUND:                -0.146
REMARK  Name = 1550473
REMARK  2 active torsions:
REMARK  status: ('A' for Active; 'I' for Inactive)
REMARK    1  A    between atoms: N_1  and  C_4
REMARK    2  A    between atoms: C_4  and  C_5
REMARK                            x       y       z     vdW  Elec       q    Type
REMARK                         _______ _______ _______ _____ _____    ______ ____
ROOT
ATOM      1  N   UNL     1       7.221  -8.486   4.171  0.00  0.00    -0.354 N 
ATOM      2  N   UNL     1       7.461  -8.132   6.447  0.00  0.00    -0.372 N 
ATOM      3  N   UNL     1       5.584  -7.337   5.393  0.00  0.00    -0.372 N 
ATOM      4  C   UNL     1       6.751  -7.986   5.321  0.00  0.00    +0.166 C 
ATOM      5  H   UNL     1       8.126  -8.941   4.177  0.00  0.00    +0.163 HD
ATOM      6  H   UNL     1       7.130  -7.768   7.331  0.00  0.00    +0.159 HD
ATOM      7  H   UNL     1       8.344  -8.627   6.459  0.00  0.00    +0.159 HD
ATOM      8  H   UNL     1       5.003  -7.188   4.578  0.00  0.00    +0.159 HD
ATOM      9  H   UNL     1       5.242  -6.956   6.266  0.00  0.00    +0.159 HD
ENDROOT
BRANCH   1  10
ATOM     10  C   UNL     1       6.501  -8.428   2.900  0.00  0.00    +0.151 C 
BRANCH  10  11
ATOM     11  C   UNL     1       7.014  -7.265   2.097  0.00  0.00    -0.028 A 
ATOM     12  C   UNL     1       8.229  -7.360   1.402  0.00  0.00    +0.005 A 
ATOM     13  C   UNL     1       6.288  -6.066   2.023  0.00  0.00    +0.005 A 
ATOM     14  C   UNL     1       8.691  -6.290   0.631  0.00  0.00    +0.000 A 
ATOM     15  C   UNL     1       6.754  -5.000   1.254  0.00  0.00    +0.000 A 
ATOM     16  C   UNL     1       7.954  -5.113   0.556  0.00  0.00    +0.000 A 
ENDBRANCH  10  11
ENDBRANCH   1  10
TORSDOF 2
ENDMDL
MODEL 5
REMARK VINA RESULT:    -5.287      8.689      9.873
REMARK INTER + INTRA:          -6.052
REMARK INTER:                  -5.890
REMARK INTRA:                  -0.162
REMARK UNBOUND:                -0.146
REMARK  Name = 1550473
REMARK  2 active torsions:
REMARK  status: ('A' for Active; 'I' for Inactive)
REMARK    1  A    between atoms: N_1  and  C_4
REMARK    2  A    between atoms: C_4  and  C_5
REMARK                            x       y       z     vdW  Elec       q    Type
REMARK                         _______ _______ _______ _____ _____    ______ ____
ROOT
ATOM      1  N   UNL     1       6.698  -3.225  -2.448  0.00  0.00    -0.354 N 
ATOM      2  N   UNL     1       7.364  -1.106  -3.103  0.00  0.00    -0.372 N 
ATOM      3  N   UNL     1       8.744  -2.887  -3.538  0.00  0.00    -0.372 N 
ATOM      4  C   UNL     1       7.600  -2.421  -3.026  0.00  0.00    +0.166 C 
ATOM      5  H   UNL     1       5.864  -2.806  -2.052  0.00  0.00    +0.163 HD
ATOM      6  H   UNL     1       8.025  -0.475  -3.536  0.00  0.00    +0.159 HD
ATOM      7  H   UNL     1       6.509  -0.696  -2.747  0.00  0.00    +0.159 HD
ATOM      8  H   UNL     1       8.985  -3.868  -3.507  0.00  0.00    +0.159 HD
ATOM      9  H   UNL     1       9.424  -2.269  -3.965  0.00  0.00    +0.159 HD
ENDROOT
BRANCH   1  10
ATOM     10  C   UNL     1       6.833  -4.678  -2.361  0.00  0.00    +0.151 C 
BRANCH  10  11
ATOM     11  C   UNL     1       7.158  -5.057  -0.943  0.00  0.00    -0.028 A 
ATOM     12  C   UNL     1       6.440  -4.500   0.125  0.00  0.00    +0.005 A 
ATOM     13  C   UNL     1       8.179  -5.978  -0.660  0.00  0.00    +0.005 A 
ATOM     14  C   UNL     1       6.721  -4.874   1.442  0.00  0.00    +0.000 A 
ATOM     15  C   UNL     1       8.457  -6.349   0.655  0.00  0.00    +0.000 A 
ATOM     16  C   UNL     1       7.726  -5.799   1.706  0.00  0.00    +0.000 A 
ENDBRANCH  10  11
ENDBRANCH   1  10
TORSDOF 2
ENDMDL
MODEL 6
REMARK VINA RESULT:    -5.278     20.292     21.222
REMARK INTER + INTRA:          -6.042
REMARK INTER:                  -5.941
REMARK INTRA:                  -0.101
REMARK UNBOUND:                -0.146
REMARK  Name = 1550473
REMARK  2 active torsions:
REMARK  status: ('A' for Active; 'I' for Inactive)
REMARK    1  A    between atoms: N_1  and  C_4
REMARK    2  A    between atoms: C_4  and  C_5
REMARK                            x       y       z     vdW  Elec       q    Type
REMARK                         _______ _______ _______ _____ _____    ______ ____
ROOT
ATOM      1  N   UNL     1       1.038   0.348   7.742  0.00  0.00    -0.354 N 
ATOM      2  N   UNL     1       1.300  -1.560   6.456  0.00  0.00    -0.372 N 
ATOM      3  N   UNL     1       3.096  -0.769   7.644  0.00  0.00    -0.372 N 
ATOM      4  C   UNL     1       1.812  -0.647   7.290  0.00  0.00    +0.166 C 
ATOM      5  H   UNL     1       0.081   0.402   7.413  0.00  0.00    +0.163 HD
ATOM      6  H   UNL     1       1.859  -2.324   6.100  0.00  0.00    +0.159 HD
ATOM      7  H   UNL     1       0.330  -1.530   6.164  0.00  0.00    +0.159 HD
ATOM      8  H   UNL     1       3.545  -0.109   8.266  0.00  0.00    +0.159 HD
ATOM      9  H   UNL     1       3.675  -1.520   7.290  0.00  0.00    +0.159 HD
ENDROOT
BRANCH   1  10
ATOM     10  C   UNL     1       1.484   1.362   8.696  0.00  0.00    +0.151 C 
BRANCH  10  11
ATOM     11  C   UNL     1       0.291   1.892   9.443  0.00  0.00    -0.028 A 
ATOM     12  C   UNL     1      -0.753   2.529   8.757  0.00  0.00    +0.005 A 
ATOM     13  C   UNL     1       0.197   1.755  10.837  0.00  0.00    +0.005 A 
ATOM     14  C   UNL     1      -1.875   2.995   9.447  0.00  0.00    +0.000 A 
ATOM     15  C   UNL     1      -0.924   2.223  11.522  0.00  0.00    +0.000 A 
ATOM     16  C   UNL     1      -1.961   2.840  10.826  0.00  0.00    +0.000 A 
ENDBRANCH  10  11
ENDBRANCH   1  10
TORSDOF 2
ENDMDL
MODEL 7
REMARK VINA RESULT:    -5.093     11.541     12.365
REMARK INTER + INTRA:          -5.834
REMARK INTER:                  -5.700
REMARK INTRA:                  -0.134
REMARK UNBOUND:                -0.146
REMARK  Name = 1550473
REMARK  2 active torsions:
REMARK  status: ('A' for Active; 'I' for Inactive)
REMARK    1  A    between atoms: N_1  and  C_4
REMARK    2  A    between atoms: C_4  and  C_5
REMARK                            x       y       z     vdW  Elec       q    Type
REMARK                         _______ _______ _______ _____ _____    ______ ____
ROOT
ATOM      1  N   UNL     1       6.975  -6.596   2.613  0.00  0.00    -0.354 N 
ATOM      2  N   UNL     1       7.226  -8.545   3.839  0.00  0.00    -0.372 N 
ATOM      3  N   UNL     1       5.184  -8.078   2.902  0.00  0.00    -0.372 N 
ATOM      4  C   UNL     1       6.457  -7.727   3.109  0.00  0.00    +0.166 C 
ATOM      5  H   UNL     1       7.939  -6.371   2.831  0.00  0.00    +0.163 HD
ATOM      6  H   UNL     1       6.864  -9.407   4.223  0.00  0.00    +0.159 HD
ATOM      7  H   UNL     1       8.202  -8.340   4.017  0.00  0.00    +0.159 HD
ATOM      8  H   UNL     1       4.550  -7.502   2.365  0.00  0.00    +0.159 HD
ATOM      9  H   UNL     1       4.800  -8.932   3.288  0.00  0.00    +0.159 HD
ENDROOT
BRANCH   1  10
ATOM     10  C   UNL     1       6.239  -5.663   1.761  0.00  0.00    +0.151 C 
BRANCH  10  11
ATOM     11  C   UNL     1       7.176  -5.091   0.734  0.00  0.00    -0.028 A 
ATOM     12  C   UNL     1       8.409  -5.705   0.475  0.00  0.00    +0.005 A 
ATOM     13  C   UNL     1       6.833  -3.937   0.013  0.00  0.00    +0.005 A 
ATOM     14  C   UNL     1       9.267  -5.191  -0.501  0.00  0.00    +0.000 A 
ATOM     15  C   UNL     1       7.693  -3.426  -0.960  0.00  0.00    +0.000 A 
ATOM     16  C   UNL     1       8.908  -4.054  -1.218  0.00  0.00    +0.000 A 
ENDBRANCH  10  11
ENDBRANCH   1  10
TORSDOF 2
ENDMDL
MODEL 8
REMARK VINA RESULT:    -4.989     17.690     18.572
REMARK INTER + INTRA:          -5.718
REMARK INTER:                  -5.541
REMARK INTRA:                  -0.177
REMARK UNBOUND:                -0.146
REMARK  Name = 1550473
REMARK  2 active torsions:
REMARK  status: ('A' for Active; 'I' for Inactive)
REMARK    1  A    between atoms: N_1  and  C_4
REMARK    2  A    between atoms: C_4  and  C_5
REMARK                            x       y       z     vdW  Elec       q    Type
REMARK                         _______ _______ _______ _____ _____    ______ ____
ROOT
ATOM      1  N   UNL     1      -1.627   1.852   6.278  0.00  0.00    -0.354 N 
ATOM      2  N   UNL     1      -2.346   2.268   8.440  0.00  0.00    -0.372 N 
ATOM      3  N   UNL     1      -0.822   3.693   7.484  0.00  0.00    -0.372 N 
ATOM      4  C   UNL     1      -1.592   2.604   7.386  0.00  0.00    +0.166 C 
ATOM      5  H   UNL     1      -2.208   1.022   6.277  0.00  0.00    +0.163 HD
ATOM      6  H   UNL     1      -2.343   2.818   9.288  0.00  0.00    +0.159 HD
ATOM      7  H   UNL     1      -2.961   1.464   8.420  0.00  0.00    +0.159 HD
ATOM      8  H   UNL     1      -0.225   3.996   6.727  0.00  0.00    +0.159 HD
ATOM      9  H   UNL     1      -0.797   4.249   8.329  0.00  0.00    +0.159 HD
ENDROOT
BRANCH   1  10
ATOM     10  C   UNL     1      -0.885   2.161   5.057  0.00  0.00    +0.151 C 
BRANCH  10  11
ATOM     11  C   UNL     1       0.292   1.231   4.949  0.00  0.00    -0.028 A 
ATOM     12  C   UNL     1       0.102  -0.128   4.656  0.00  0.00    +0.005 A 
ATOM     13  C   UNL     1       1.600   1.703   5.132  0.00  0.00    +0.005 A 
ATOM     14  C   UNL     1       1.196  -0.985   4.526  0.00  0.00    +0.000 A 
ATOM     15  C   UNL     1       2.691   0.844   5.002  0.00  0.00    +0.000 A 
ATOM     16  C   UNL     1       2.489  -0.500   4.697  0.00  0.00    +0.000 A 
ENDBRANCH  10  11
ENDBRANCH   1  10
TORSDOF 2
ENDMDL
MODEL 9
REMARK VINA RESULT:    -4.974     14.427     15.789
REMARK INTER + INTRA:          -5.701
REMARK INTER:                  -5.566
REMARK INTRA:                  -0.135
REMARK UNBOUND:                -0.146
REMARK  Name = 1550473
REMARK  2 active torsions:
REMARK  status: ('A' for Active; 'I' for Inactive)
REMARK    1  A    between atoms: N_1  and  C_4
REMARK    2  A    between atoms: C_4  and  C_5
REMARK                            x       y       z     vdW  Elec       q    Type
REMARK                         _______ _______ _______ _____ _____    ______ ____
ROOT
ATOM      1  N   UNL     1       5.953  -5.982   6.636  0.00  0.00    -0.354 N 
ATOM      2  N   UNL     1       6.286  -4.187   8.060  0.00  0.00    -0.372 N 
ATOM      3  N   UNL     1       6.719  -6.306   8.827  0.00  0.00    -0.372 N 
ATOM      4  C   UNL     1       6.318  -5.505   7.833  0.00  0.00    +0.166 C 
ATOM      5  H   UNL     1       5.630  -5.326   5.934  0.00  0.00    +0.163 HD
ATOM      6  H   UNL     1       6.559  -3.797   8.952  0.00  0.00    +0.159 HD
ATOM      7  H   UNL     1       6.006  -3.529   7.342  0.00  0.00    +0.159 HD
ATOM      8  H   UNL     1       6.760  -7.310   8.721  0.00  0.00    +0.159 HD
ATOM      9  H   UNL     1       6.985  -5.936   9.731  0.00  0.00    +0.159 HD
ENDROOT
BRANCH   1  10
ATOM     10  C   UNL     1       6.003  -7.397   6.269  0.00  0.00    +0.151 C 
BRANCH  10  11
ATOM     11  C   UNL     1       6.505  -7.521   4.857  0.00  0.00    -0.028 A 
ATOM     12  C   UNL     1       6.091  -8.587   4.045  0.00  0.00    +0.005 A 
ATOM     13  C   UNL     1       7.391  -6.572   4.323  0.00  0.00    +0.005 A 
ATOM     14  C   UNL     1       6.534  -8.686   2.724  0.00  0.00    +0.000 A 
ATOM     15  C   UNL     1       7.831  -6.675   3.004  0.00  0.00    +0.000 A 
ATOM     16  C   UNL     1       7.401  -7.731   2.204  0.00  0.00    +0.000 A 
ENDBRANCH  10  11
ENDBRANCH   1  10
TORSDOF 2
ENDMDL
