MODEL 1
REMARK VINA RESULT:    -5.936      0.000      0.000
REMARK INTER + INTRA:          -6.788
REMARK INTER:                  -6.630
REMARK INTRA:                  -0.158
REMARK UNBOUND:                -0.158
REMARK  Name = 1550473
REMARK  2 active torsions:
REMARK  status: ('A' for Active; 'I' for Inactive)
REMARK    1  A    between atoms: N_1  and  C_4
REMARK    2  A    between atoms: C_4  and  C_5
REMARK                            x       y       z     vdW  Elec       q    Type
REMARK                         _______ _______ _______ _____ _____    ______ ____
ROOT
ATOM      1  N   UNL     1       6.607   1.588  15.659  0.00  0.00    -0.354 N 
ATOM      2  N   UNL     1       4.352   1.670  15.140  0.00  0.00    -0.372 N 
ATOM      3  N   UNL     1       5.613   3.573  14.909  0.00  0.00    -0.372 N 
ATOM      4  C   UNL     1       5.539   2.279  15.239  0.00  0.00    +0.166 C 
ATOM      5  H   UNL     1       6.480   0.617  15.922  0.00  0.00    +0.163 HD
ATOM      6  H   UNL     1       3.529   2.165  14.823  0.00  0.00    +0.159 HD
ATOM      7  H   UNL     1       4.236   0.688  15.360  0.00  0.00    +0.159 HD
ATOM      8  H   UNL     1       6.478   4.092  14.967  0.00  0.00    +0.159 HD
ATOM      9  H   UNL     1       4.798   4.088  14.601  0.00  0.00    +0.159 HD
ENDROOT
BRANCH   1  10
ATOM     10  C   UNL     1       7.956   2.143  15.750  0.00  0.00    +0.151 C 
BRANCH  10  11
ATOM     11  C   UNL     1       8.212   2.583  17.166  0.00  0.00    -0.028 A 
ATOM     12  C   UNL     1       8.040   3.924  17.536  0.00  0.00    +0.005 A 
ATOM     13  C   UNL     1       8.619   1.661  18.142  0.00  0.00    +0.005 A 
ATOM     14  C   UNL     1       8.248   4.328  18.858  0.00  0.00    +0.000 A 
ATOM     15  C   UNL     1       8.827   2.068  19.460  0.00  0.00    +0.000 A 
ATOM     16  C   UNL     1       8.639   3.400  19.818  0.00  0.00    +0.000 A 
ENDBRANCH  10  11
ENDBRANCH   1  10
TORSDOF 2
ENDMDL
MODEL 2
REMARK VINA RESULT:    -5.611     32.125     33.376
REMARK INTER + INTRA:          -6.424
REMARK INTER:                  -6.301
REMARK INTRA:                  -0.123
REMARK UNBOUND:                -0.158
REMARK  Name = 1550473
REMARK  2 active torsions:
REMARK  status: ('A' for Active; 'I' for Inactive)
REMARK    1  A    between atoms: N_1  and  C_4
REMARK    2  A    between atoms: C_4  and  C_5
REMARK                            x       y       z     vdW  Elec       q    Type
REMARK                         _______ _______ _______ _____ _____    ______ ____
ROOT
ATOM      1  N   UNL     1      -8.518 -14.706  -7.250  0.00  0.00    -0.354 N 
ATOM      2  N   UNL     1      -9.197 -13.024  -8.690  0.00  0.00    -0.372 N 
ATOM      3  N   UNL     1      -7.617 -12.548  -7.097  0.00  0.00    -0.372 N 
ATOM      4  C   UNL     1      -8.438 -13.435  -7.668  0.00  0.00    +0.166 C 
ATOM      5  H   UNL     1      -9.183 -15.321  -7.706  0.00  0.00    +0.163 HD
ATOM      6  H   UNL     1      -9.156 -12.072  -9.030  0.00  0.00    +0.159 HD
ATOM      7  H   UNL     1      -9.827 -13.653  -9.174  0.00  0.00    +0.159 HD
ATOM      8  H   UNL     1      -7.021 -12.794  -6.317  0.00  0.00    +0.159 HD
ATOM      9  H   UNL     1      -7.569 -11.588  -7.415  0.00  0.00    +0.159 HD
ENDROOT
BRANCH   1  10
ATOM     10  C   UNL     1      -7.696 -15.268  -6.181  0.00  0.00    +0.151 C 
BRANCH  10  11
ATOM     11  C   UNL     1      -8.586 -15.976  -5.197  0.00  0.00    -0.028 A 
ATOM     12  C   UNL     1      -8.537 -15.655  -3.833  0.00  0.00    +0.005 A 
ATOM     13  C   UNL     1      -9.486 -16.965  -5.624  0.00  0.00    +0.005 A 
ATOM     14  C   UNL     1      -9.385 -16.292  -2.923  0.00  0.00    +0.000 A 
ATOM     15  C   UNL     1     -10.330 -17.599  -4.713  0.00  0.00    +0.000 A 
ATOM     16  C   UNL     1     -10.281 -17.260  -3.363  0.00  0.00    +0.000 A 
ENDBRANCH  10  11
ENDBRANCH   1  10
TORSDOF 2
ENDMDL
MODEL 3
REMARK VINA RESULT:    -5.161     31.674     32.570
REMARK INTER + INTRA:          -5.922
REMARK INTER:                  -5.767
REMARK INTRA:                  -0.155
REMARK UNBOUND:                -0.158
REMARK  Name = 1550473
REMARK  2 active torsions:
REMARK  status: ('A' for Active; 'I' for Inactive)
REMARK    1  A    between atoms: N_1  and  C_4
REMARK    2  A    between atoms: C_4  and  C_5
REMARK                            x       y       z     vdW  Elec       q    Type
REMARK                         _______ _______ _______ _____ _____    ______ ____
ROOT
ATOM      1  N   UNL     1      -8.397 -16.929  -4.144  0.00  0.00    -0.354 N 
ATOM      2  N   UNL     1      -8.687 -19.166  -4.668  0.00  0.00    -0.372 N 
ATOM      3  N   UNL     1      -6.598 -18.429  -4.069  0.00  0.00    -0.372 N 
ATOM      4  C   UNL     1      -7.889 -18.160  -4.290  0.00  0.00    +0.166 C 
ATOM      5  H   UNL     1      -9.377 -16.784  -4.356  0.00  0.00    +0.163 HD
ATOM      6  H   UNL     1      -8.333 -20.106  -4.783  0.00  0.00    +0.159 HD
ATOM      7  H   UNL     1      -9.676 -19.028  -4.835  0.00  0.00    +0.159 HD
ATOM      8  H   UNL     1      -5.942 -17.713  -3.787  0.00  0.00    +0.159 HD
ATOM      9  H   UNL     1      -6.223 -19.362  -4.190  0.00  0.00    +0.159 HD
ENDROOT
BRANCH   1  10
ATOM     10  C   UNL     1      -7.625 -15.776  -3.684  0.00  0.00    +0.151 C 
BRANCH  10  11
ATOM     11  C   UNL     1      -7.672 -14.702  -4.737  0.00  0.00    -0.028 A 
ATOM     12  C   UNL     1      -7.126 -14.928  -6.009  0.00  0.00    +0.005 A 
ATOM     13  C   UNL     1      -8.266 -13.459  -4.470  0.00  0.00    +0.005 A 
ATOM     14  C   UNL     1      -7.196 -13.942  -6.996  0.00  0.00    +0.000 A 
ATOM     15  C   UNL     1      -8.333 -12.477  -5.458  0.00  0.00    +0.000 A 
ATOM     16  C   UNL     1      -7.800 -12.720  -6.722  0.00  0.00    +0.000 A 
ENDBRANCH  10  11
ENDBRANCH   1  10
TORSDOF 2
ENDMDL
MODEL 4
REMARK VINA RESULT:    -5.091     31.271     32.706
REMARK INTER + INTRA:          -5.844
REMARK INTER:                  -5.698
REMARK INTRA:                  -0.146
REMARK UNBOUND:                -0.158
REMARK  Name = 1550473
REMARK  2 active torsions:
REMARK  status: ('A' for Active; 'I' for Inactive)
REMARK    1  A    between atoms: N_1  and  C_4
REMARK    2  A    between atoms: C_4  and  C_5
REMARK                            x       y       z     vdW  Elec       q    Type
REMARK                         _______ _______ _______ _____ _____    ______ ____
ROOT
ATOM      1  N   UNL     1      -5.712 -14.544  -5.355  0.00  0.00    -0.354 N 
ATOM      2  N   UNL     1      -3.920 -14.460  -6.821  0.00  0.00    -0.372 N 
ATOM      3  N   UNL     1      -5.844 -13.330  -7.356  0.00  0.00    -0.372 N 
ATOM      4  C   UNL     1      -5.172 -14.110  -6.503  0.00  0.00    +0.166 C 
ATOM      5  H   UNL     1      -5.161 -15.157  -4.766  0.00  0.00    +0.163 HD
ATOM      6  H   UNL     1      -3.485 -14.145  -7.678  0.00  0.00    +0.159 HD
ATOM      7  H   UNL     1      -3.356 -15.036  -6.208  0.00  0.00    +0.159 HD
ATOM      8  H   UNL     1      -6.795 -13.036  -7.177  0.00  0.00    +0.159 HD
ATOM      9  H   UNL     1      -5.431 -13.015  -8.224  0.00  0.00    +0.159 HD
ENDROOT
BRANCH   1  10
ATOM     10  C   UNL     1      -7.048 -14.177  -4.890  0.00  0.00    +0.151 C 
BRANCH  10  11
ATOM     11  C   UNL     1      -7.944 -15.382  -4.968  0.00  0.00    -0.028 A 
ATOM     12  C   UNL     1      -8.446 -15.973  -3.800  0.00  0.00    +0.005 A 
ATOM     13  C   UNL     1      -8.298 -15.936  -6.208  0.00  0.00    +0.005 A 
ATOM     14  C   UNL     1      -9.302 -17.074  -3.873  0.00  0.00    +0.000 A 
ATOM     15  C   UNL     1      -9.152 -17.036  -6.277  0.00  0.00    +0.000 A 
ATOM     16  C   UNL     1      -9.656 -17.604  -5.109  0.00  0.00    +0.000 A 
ENDBRANCH  10  11
ENDBRANCH   1  10
TORSDOF 2
ENDMDL
MODEL 5
REMARK VINA RESULT:    -5.078     33.668     36.580
REMARK INTER + INTRA:          -5.829
REMARK INTER:                  -5.710
REMARK INTRA:                  -0.120
REMARK UNBOUND:                -0.158
REMARK  Name = 1550473
REMARK  2 active torsions:
REMARK  status: ('A' for Active; 'I' for Inactive)
REMARK    1  A    between atoms: N_1  and  C_4
REMARK    2  A    between atoms: C_4  and  C_5
REMARK                            x       y       z     vdW  Elec       q    Type
REMARK                         _______ _______ _______ _____ _____    ______ ____
ROOT
ATOM      1  N   UNL     1     -12.172  -6.214 -10.509  0.00  0.00    -0.354 N 
ATOM      2  N   UNL     1     -11.333  -5.279  -8.563  0.00  0.00    -0.372 N 
ATOM      3  N   UNL     1     -11.652  -3.932 -10.394  0.00  0.00    -0.372 N 
ATOM      4  C   UNL     1     -11.724  -5.146  -9.837  0.00  0.00    +0.166 C 
ATOM      5  H   UNL     1     -12.174  -7.112 -10.040  0.00  0.00    +0.163 HD
ATOM      6  H   UNL     1     -10.995  -4.490  -8.029  0.00  0.00    +0.159 HD
ATOM      7  H   UNL     1     -11.380  -6.169  -8.082  0.00  0.00    +0.159 HD
ATOM      8  H   UNL     1     -11.926  -3.766 -11.353  0.00  0.00    +0.159 HD
ATOM      9  H   UNL     1     -11.304  -3.132  -9.879  0.00  0.00    +0.159 HD
ENDROOT
BRANCH   1  10
ATOM     10  C   UNL     1     -12.671  -6.166 -11.882  0.00  0.00    +0.151 C 
BRANCH  10  11
ATOM     11  C   UNL     1     -12.795  -7.568 -12.410  0.00  0.00    -0.028 A 
ATOM     12  C   UNL     1     -11.918  -8.573 -11.975  0.00  0.00    +0.005 A 
ATOM     13  C   UNL     1     -13.791  -7.901 -13.341  0.00  0.00    +0.005 A 
ATOM     14  C   UNL     1     -12.051  -9.883 -12.442  0.00  0.00    +0.000 A 
ATOM     15  C   UNL     1     -13.921  -9.210 -13.805  0.00  0.00    +0.000 A 
ATOM     16  C   UNL     1     -13.052 -10.201 -13.354  0.00  0.00    +0.000 A 
ENDBRANCH  10  11
ENDBRANCH   1  10
TORSDOF 2
ENDMDL
MODEL 6
REMARK VINA RESULT:    -4.886     33.781     35.547
REMARK INTER + INTRA:          -5.615
REMARK INTER:                  -5.484
REMARK INTRA:                  -0.131
REMARK UNBOUND:                -0.158
REMARK  Name = 1550473
REMARK  2 active torsions:
REMARK  status: ('A' for Active; 'I' for Inactive)
REMARK    1  A    between atoms: N_1  and  C_4
REMARK    2  A    between atoms: C_4  and  C_5
REMARK                            x       y       z     vdW  Elec       q    Type
REMARK                         _______ _______ _______ _____ _____    ______ ____
ROOT
ATOM      1  N   UNL     1     -13.333  -6.164  -9.479  0.00  0.00    -0.354 N 
ATOM      2  N   UNL     1     -11.325  -5.209  -8.832  0.00  0.00    -0.372 N 
ATOM      3  N   UNL     1     -12.945  -3.868  -9.750  0.00  0.00    -0.372 N 
ATOM      4  C   UNL     1     -12.549  -5.084  -9.359  0.00  0.00    +0.166 C 
ATOM      5  H   UNL     1     -12.963  -7.062  -9.193  0.00  0.00    +0.163 HD
ATOM      6  H   UNL     1     -10.711  -4.412  -8.726  0.00  0.00    +0.159 HD
ATOM      7  H   UNL     1     -10.974  -6.101  -8.504  0.00  0.00    +0.159 HD
ATOM      8  H   UNL     1     -13.855  -3.708 -10.160  0.00  0.00    +0.159 HD
ATOM      9  H   UNL     1     -12.341  -3.060  -9.662  0.00  0.00    +0.159 HD
ENDROOT
BRANCH   1  10
ATOM     10  C   UNL     1     -14.703  -6.126  -9.990  0.00  0.00    +0.151 C 
BRANCH  10  11
ATOM     11  C   UNL     1     -15.585  -6.948  -9.091  0.00  0.00    -0.028 A 
ATOM     12  C   UNL     1     -15.066  -8.053  -8.401  0.00  0.00    +0.005 A 
ATOM     13  C   UNL     1     -16.939  -6.623  -8.921  0.00  0.00    +0.005 A 
ATOM     14  C   UNL     1     -15.877  -8.799  -7.543  0.00  0.00    +0.000 A 
ATOM     15  C   UNL     1     -17.747  -7.371  -8.064  0.00  0.00    +0.000 A 
ATOM     16  C   UNL     1     -17.215  -8.457  -7.373  0.00  0.00    +0.000 A 
ENDBRANCH  10  11
ENDBRANCH   1  10
TORSDOF 2
ENDMDL
MODEL 7
REMARK VINA RESULT:    -4.877     31.431     32.758
REMARK INTER + INTRA:          -5.605
REMARK INTER:                  -5.422
REMARK INTRA:                  -0.183
REMARK UNBOUND:                -0.158
REMARK  Name = 1550473
REMARK  2 active torsions:
REMARK  status: ('A' for Active; 'I' for Inactive)
REMARK    1  A    between atoms: N_1  and  C_4
REMARK    2  A    between atoms: C_4  and  C_5
REMARK                            x       y       z     vdW  Elec       q    Type
REMARK                         _______ _______ _______ _____ _____    ______ ____
ROOT
ATOM      1  N   UNL     1      -7.878 -14.115  -4.099  0.00  0.00    -0.354 N 
ATOM      2  N   UNL     1      -8.199 -12.151  -5.283  0.00  0.00    -0.372 N 
ATOM      3  N   UNL     1      -7.666 -14.064  -6.432  0.00  0.00    -0.372 N 
ATOM      4  C   UNL     1      -7.912 -13.458  -5.266  0.00  0.00    +0.166 C 
ATOM      5  H   UNL     1      -8.044 -13.592  -3.247  0.00  0.00    +0.163 HD
ATOM      6  H   UNL     1      -8.235 -11.629  -6.148  0.00  0.00    +0.159 HD
ATOM      7  H   UNL     1      -8.410 -11.640  -4.434  0.00  0.00    +0.159 HD
ATOM      8  H   UNL     1      -7.437 -15.047  -6.487  0.00  0.00    +0.159 HD
ATOM      9  H   UNL     1      -7.686 -13.556  -7.308  0.00  0.00    +0.159 HD
ENDROOT
BRANCH   1  10
ATOM     10  C   UNL     1      -7.628 -15.550  -3.975  0.00  0.00    +0.151 C 
BRANCH  10  11
ATOM     11  C   UNL     1      -8.943 -16.269  -3.850  0.00  0.00    -0.028 A 
ATOM     12  C   UNL     1      -9.445 -17.027  -4.918  0.00  0.00    +0.005 A 
ATOM     13  C   UNL     1      -9.689 -16.201  -2.663  0.00  0.00    +0.005 A 
ATOM     14  C   UNL     1     -10.652 -17.719  -4.791  0.00  0.00    +0.000 A 
ATOM     15  C   UNL     1     -10.894 -16.893  -2.541  0.00  0.00    +0.000 A 
ATOM     16  C   UNL     1     -11.373 -17.654  -3.604  0.00  0.00    +0.000 A 
ENDBRANCH  10  11
ENDBRANCH   1  10
TORSDOF 2
ENDMDL
MODEL 8
REMARK VINA RESULT:    -4.874     34.906     37.102
REMARK INTER + INTRA:          -5.602
REMARK INTER:                  -5.466
REMARK INTRA:                  -0.136
REMARK UNBOUND:                -0.158
REMARK  Name = 1550473
REMARK  2 active torsions:
REMARK  status: ('A' for Active; 'I' for Inactive)
REMARK    1  A    between atoms: N_1  and  C_4
REMARK    2  A    between atoms: C_4  and  C_5
REMARK                            x       y       z     vdW  Elec       q    Type
REMARK                         _______ _______ _______ _____ _____    ______ ____
ROOT
ATOM      1  N   UNL     1     -12.380  -7.103 -11.432  0.00  0.00    -0.354 N 
ATOM      2  N   UNL     1     -11.756  -5.673  -9.720  0.00  0.00    -0.372 N 
ATOM      3  N   UNL     1     -13.911  -6.457  -9.780  0.00  0.00    -0.372 N 
ATOM      4  C   UNL     1     -12.689  -6.421 -10.321  0.00  0.00    +0.166 C 
ATOM      5  H   UNL     1     -11.444  -7.010 -11.809  0.00  0.00    +0.163 HD
ATOM      6  H   UNL     1     -11.958  -5.150  -8.879  0.00  0.00    +0.159 HD
ATOM      7  H   UNL     1     -10.808  -5.618 -10.074  0.00  0.00    +0.159 HD
ATOM      8  H   UNL     1     -14.662  -6.997 -10.188  0.00  0.00    +0.159 HD
ATOM      9  H   UNL     1     -14.137  -5.931  -8.945  0.00  0.00    +0.159 HD
ENDROOT
BRANCH   1  10
ATOM     10  C   UNL     1     -13.309  -7.989 -12.132  0.00  0.00    +0.151 C 
BRANCH  10  11
ATOM     11  C   UNL     1     -12.557  -9.189 -12.637  0.00  0.00    -0.028 A 
ATOM     12  C   UNL     1     -13.133 -10.041 -13.590  0.00  0.00    +0.005 A 
ATOM     13  C   UNL     1     -11.265  -9.477 -12.169  0.00  0.00    +0.005 A 
ATOM     14  C   UNL     1     -12.423 -11.140 -14.081  0.00  0.00    +0.000 A 
ATOM     15  C   UNL     1     -10.560 -10.575 -12.661  0.00  0.00    +0.000 A 
ATOM     16  C   UNL     1     -11.138 -11.405 -13.619  0.00  0.00    +0.000 A 
ENDBRANCH  10  11
ENDBRANCH   1  10
TORSDOF 2
ENDMDL
MODEL 9
REMARK VINA RESULT:    -4.843     31.421     32.620
REMARK INTER + INTRA:          -5.567
REMARK INTER:                  -5.396
REMARK INTRA:                  -0.170
REMARK UNBOUND:                -0.158
REMARK  Name = 1550473
REMARK  2 active torsions:
REMARK  status: ('A' for Active; 'I' for Inactive)
REMARK    1  A    between atoms: N_1  and  C_4
REMARK    2  A    between atoms: C_4  and  C_5
REMARK                            x       y       z     vdW  Elec       q    Type
REMARK                         _______ _______ _______ _____ _____    ______ ____
ROOT
ATOM      1  N   UNL     1      -8.595 -16.317  -3.279  0.00  0.00    -0.354 N 
ATOM      2  N   UNL     1     -10.539 -17.240  -2.420  0.00  0.00    -0.372 N 
ATOM      3  N   UNL     1      -9.930 -17.742  -4.575  0.00  0.00    -0.372 N 
ATOM      4  C   UNL     1      -9.675 -17.095  -3.433  0.00  0.00    +0.166 C 
ATOM      5  H   UNL     1      -8.475 -15.829  -2.398  0.00  0.00    +0.163 HD
ATOM      6  H   UNL     1     -11.360 -17.823  -2.506  0.00  0.00    +0.159 HD
ATOM      7  H   UNL     1     -10.392 -16.788  -1.526  0.00  0.00    +0.159 HD
ATOM      8  H   UNL     1      -9.321 -17.670  -5.379  0.00  0.00    +0.159 HD
ATOM      9  H   UNL     1     -10.753 -18.321  -4.684  0.00  0.00    +0.159 HD
ENDROOT
BRANCH   1  10
ATOM     10  C   UNL     1      -7.566 -16.135  -4.301  0.00  0.00    +0.151 C 
BRANCH  10  11
ATOM     11  C   UNL     1      -7.873 -14.893  -5.091  0.00  0.00    -0.028 A 
ATOM     12  C   UNL     1      -8.006 -13.654  -4.446  0.00  0.00    +0.005 A 
ATOM     13  C   UNL     1      -8.027 -14.947  -6.484  0.00  0.00    +0.005 A 
ATOM     14  C   UNL     1      -8.261 -12.495  -5.183  0.00  0.00    +0.000 A 
ATOM     15  C   UNL     1      -8.283 -13.787  -7.216  0.00  0.00    +0.000 A 
ATOM     16  C   UNL     1      -8.397 -12.561  -6.565  0.00  0.00    +0.000 A 
ENDBRANCH  10  11
ENDBRANCH   1  10
TORSDOF 2
ENDMDL
