MODEL 1
REMARK VINA RESULT:    -5.208      0.000      0.000
REMARK INTER + INTRA:          -5.997
REMARK INTER:                  -5.817
REMARK INTRA:                  -0.180
REMARK UNBOUND:                -0.180
REMARK  Name = 1550473
REMARK  2 active torsions:
REMARK  status: ('A' for Active; 'I' for Inactive)
REMARK    1  A    between atoms: N_1  and  C_4
REMARK    2  A    between atoms: C_4  and  C_5
REMARK                            x       y       z     vdW  Elec       q    Type
REMARK                         _______ _______ _______ _____ _____    ______ ____
ROOT
ATOM      1  N   UNL     1       8.502  -1.692  -6.034  0.00  0.00    -0.354 N 
ATOM      2  N   UNL     1       6.484  -1.982  -4.936  0.00  0.00    -0.372 N 
ATOM      3  N   UNL     1       7.915  -3.767  -5.117  0.00  0.00    -0.372 N 
ATOM      4  C   UNL     1       7.648  -2.481  -5.370  0.00  0.00    +0.166 C 
ATOM      5  H   UNL     1       8.228  -0.734  -6.220  0.00  0.00    +0.163 HD
ATOM      6  H   UNL     1       5.821  -2.553  -4.429  0.00  0.00    +0.159 HD
ATOM      7  H   UNL     1       6.232  -1.012  -5.083  0.00  0.00    +0.159 HD
ATOM      8  H   UNL     1       8.773  -4.205  -5.423  0.00  0.00    +0.159 HD
ATOM      9  H   UNL     1       7.259  -4.357  -4.621  0.00  0.00    +0.159 HD
ENDROOT
BRANCH   1  10
ATOM     10  C   UNL     1       9.819  -2.123  -6.502  0.00  0.00    +0.151 C 
BRANCH  10  11
ATOM     11  C   UNL     1      10.868  -1.613  -5.554  0.00  0.00    -0.028 A 
ATOM     12  C   UNL     1      11.412  -0.330  -5.716  0.00  0.00    +0.005 A 
ATOM     13  C   UNL     1      11.319  -2.405  -4.487  0.00  0.00    +0.005 A 
ATOM     14  C   UNL     1      12.365   0.155  -4.818  0.00  0.00    +0.000 A 
ATOM     15  C   UNL     1      12.272  -1.917  -3.592  0.00  0.00    +0.000 A 
ATOM     16  C   UNL     1      12.792  -0.636  -3.757  0.00  0.00    +0.000 A 
ENDBRANCH  10  11
ENDBRANCH   1  10
TORSDOF 2
ENDMDL
MODEL 2
REMARK VINA RESULT:    -5.029      4.657      5.810
REMARK INTER + INTRA:          -5.796
REMARK INTER:                  -5.697
REMARK INTRA:                  -0.099
REMARK UNBOUND:                -0.180
REMARK  Name = 1550473
REMARK  2 active torsions:
REMARK  status: ('A' for Active; 'I' for Inactive)
REMARK    1  A    between atoms: N_1  and  C_4
REMARK    2  A    between atoms: C_4  and  C_5
REMARK                            x       y       z     vdW  Elec       q    Type
REMARK                         _______ _______ _______ _____ _____    ______ ____
ROOT
ATOM      1  N   UNL     1      13.523  -0.993  -1.127  0.00  0.00    -0.354 N 
ATOM      2  N   UNL     1      13.923  -0.229   1.023  0.00  0.00    -0.372 N 
ATOM      3  N   UNL     1      15.693  -0.466  -0.418  0.00  0.00    -0.372 N 
ATOM      4  C   UNL     1      14.380  -0.568  -0.189  0.00  0.00    +0.166 C 
ATOM      5  H   UNL     1      12.543  -1.076  -0.881  0.00  0.00    +0.163 HD
ATOM      6  H   UNL     1      14.545   0.099   1.749  0.00  0.00    +0.159 HD
ATOM      7  H   UNL     1      12.937  -0.269   1.251  0.00  0.00    +0.159 HD
ATOM      8  H   UNL     1      16.102  -0.712  -1.309  0.00  0.00    +0.159 HD
ATOM      9  H   UNL     1      16.334  -0.152   0.301  0.00  0.00    +0.159 HD
ENDROOT
BRANCH   1  10
ATOM     10  C   UNL     1      13.910  -1.335  -2.494  0.00  0.00    +0.151 C 
BRANCH  10  11
ATOM     11  C   UNL     1      12.761  -1.044  -3.418  0.00  0.00    -0.028 A 
ATOM     12  C   UNL     1      12.839   0.009  -4.341  0.00  0.00    +0.005 A 
ATOM     13  C   UNL     1      11.592  -1.821  -3.380  0.00  0.00    +0.005 A 
ATOM     14  C   UNL     1      11.783   0.262  -5.221  0.00  0.00    +0.000 A 
ATOM     15  C   UNL     1      10.540  -1.565  -4.259  0.00  0.00    +0.000 A 
ATOM     16  C   UNL     1      10.637  -0.525  -5.181  0.00  0.00    +0.000 A 
ENDBRANCH  10  11
ENDBRANCH   1  10
TORSDOF 2
ENDMDL
MODEL 3
REMARK VINA RESULT:    -4.980      1.765      2.701
REMARK INTER + INTRA:          -5.742
REMARK INTER:                  -5.598
REMARK INTRA:                  -0.144
REMARK UNBOUND:                -0.180
REMARK  Name = 1550473
REMARK  2 active torsions:
REMARK  status: ('A' for Active; 'I' for Inactive)
REMARK    1  A    between atoms: N_1  and  C_4
REMARK    2  A    between atoms: C_4  and  C_5
REMARK                            x       y       z     vdW  Elec       q    Type
REMARK                         _______ _______ _______ _____ _____    ______ ____
ROOT
ATOM      1  N   UNL     1       7.179  -2.656  -6.595  0.00  0.00    -0.354 N 
ATOM      2  N   UNL     1       5.812  -1.606  -8.141  0.00  0.00    -0.372 N 
ATOM      3  N   UNL     1       5.291  -1.446  -5.912  0.00  0.00    -0.372 N 
ATOM      4  C   UNL     1       6.101  -1.909  -6.870  0.00  0.00    +0.166 C 
ATOM      5  H   UNL     1       7.736  -3.002  -7.368  0.00  0.00    +0.163 HD
ATOM      6  H   UNL     1       5.007  -1.042  -8.380  0.00  0.00    +0.159 HD
ATOM      7  H   UNL     1       6.396  -1.915  -8.909  0.00  0.00    +0.159 HD
ATOM      8  H   UNL     1       5.452  -1.644  -4.934  0.00  0.00    +0.159 HD
ATOM      9  H   UNL     1       4.475  -0.889  -6.132  0.00  0.00    +0.159 HD
ENDROOT
BRANCH   1  10
ATOM     10  C   UNL     1       7.613  -2.997  -5.241  0.00  0.00    +0.151 C 
BRANCH  10  11
ATOM     11  C   UNL     1       8.918  -2.308  -4.955  0.00  0.00    -0.028 A 
ATOM     12  C   UNL     1      10.082  -3.056  -4.722  0.00  0.00    +0.005 A 
ATOM     13  C   UNL     1       9.000  -0.908  -4.922  0.00  0.00    +0.005 A 
ATOM     14  C   UNL     1      11.301  -2.416  -4.486  0.00  0.00    +0.000 A 
ATOM     15  C   UNL     1      10.219  -0.273  -4.685  0.00  0.00    +0.000 A 
ATOM     16  C   UNL     1      11.370  -1.027  -4.470  0.00  0.00    +0.000 A 
ENDBRANCH  10  11
ENDBRANCH   1  10
TORSDOF 2
ENDMDL
MODEL 4
REMARK VINA RESULT:    -4.853      8.239      9.812
REMARK INTER + INTRA:          -5.600
REMARK INTER:                  -5.481
REMARK INTRA:                  -0.119
REMARK UNBOUND:                -0.180
REMARK  Name = 1550473
REMARK  2 active torsions:
REMARK  status: ('A' for Active; 'I' for Inactive)
REMARK    1  A    between atoms: N_1  and  C_4
REMARK    2  A    between atoms: C_4  and  C_5
REMARK                            x       y       z     vdW  Elec       q    Type
REMARK                         _______ _______ _______ _____ _____    ______ ____
ROOT
ATOM      1  N   UNL     1       1.293  -3.966 -10.778  0.00  0.00    -0.354 N 
ATOM      2  N   UNL     1      -0.775  -3.981  -9.735  0.00  0.00    -0.372 N 
ATOM      3  N   UNL     1      -0.689  -3.965 -12.028  0.00  0.00    -0.372 N 
ATOM      4  C   UNL     1      -0.044  -3.970 -10.857  0.00  0.00    +0.166 C 
ATOM      5  H   UNL     1       1.721  -3.940  -9.860  0.00  0.00    +0.163 HD
ATOM      6  H   UNL     1      -1.786  -3.987  -9.763  0.00  0.00    +0.159 HD
ATOM      7  H   UNL     1      -0.344  -4.000  -8.819  0.00  0.00    +0.159 HD
ATOM      8  H   UNL     1      -0.196  -3.952 -12.911  0.00  0.00    +0.159 HD
ATOM      9  H   UNL     1      -1.700  -3.960 -12.077  0.00  0.00    +0.159 HD
ENDROOT
BRANCH   1  10
ATOM     10  C   UNL     1       2.180  -4.009 -11.939  0.00  0.00    +0.151 C 
BRANCH  10  11
ATOM     11  C   UNL     1       3.511  -3.419 -11.562  0.00  0.00    -0.028 A 
ATOM     12  C   UNL     1       4.704  -4.030 -11.976  0.00  0.00    +0.005 A 
ATOM     13  C   UNL     1       3.587  -2.247 -10.795  0.00  0.00    +0.005 A 
ATOM     14  C   UNL     1       5.940  -3.467 -11.652  0.00  0.00    +0.000 A 
ATOM     15  C   UNL     1       4.823  -1.687 -10.472  0.00  0.00    +0.000 A 
ATOM     16  C   UNL     1       5.999  -2.296 -10.903  0.00  0.00    +0.000 A 
ENDBRANCH  10  11
ENDBRANCH   1  10
TORSDOF 2
ENDMDL
MODEL 5
REMARK VINA RESULT:    -4.778      8.307     10.981
REMARK INTER + INTRA:          -5.516
REMARK INTER:                  -5.410
REMARK INTRA:                  -0.106
REMARK UNBOUND:                -0.180
REMARK  Name = 1550473
REMARK  2 active torsions:
REMARK  status: ('A' for Active; 'I' for Inactive)
REMARK    1  A    between atoms: N_1  and  C_4
REMARK    2  A    between atoms: C_4  and  C_5
REMARK                            x       y       z     vdW  Elec       q    Type
REMARK                         _______ _______ _______ _____ _____    ______ ____
ROOT
ATOM      1  N   UNL     1       3.847  -2.440 -10.643  0.00  0.00    -0.354 N 
ATOM      2  N   UNL     1       4.922  -1.344  -8.908  0.00  0.00    -0.372 N 
ATOM      3  N   UNL     1       5.805  -3.311  -9.694  0.00  0.00    -0.372 N 
ATOM      4  C   UNL     1       4.852  -2.375  -9.760  0.00  0.00    +0.166 C 
ATOM      5  H   UNL     1       3.140  -1.714 -10.622  0.00  0.00    +0.163 HD
ATOM      6  H   UNL     1       5.671  -1.266  -8.233  0.00  0.00    +0.159 HD
ATOM      7  H   UNL     1       4.239  -0.596  -8.920  0.00  0.00    +0.159 HD
ATOM      8  H   UNL     1       5.806  -4.117 -10.305  0.00  0.00    +0.159 HD
ATOM      9  H   UNL     1       6.556  -3.257  -9.017  0.00  0.00    +0.159 HD
ENDROOT
BRANCH   1  10
ATOM     10  C   UNL     1       3.709  -3.491 -11.649  0.00  0.00    +0.151 C 
BRANCH  10  11
ATOM     11  C   UNL     1       2.268  -3.585 -12.067  0.00  0.00    -0.028 A 
ATOM     12  C   UNL     1       1.879  -3.233 -13.368  0.00  0.00    +0.005 A 
ATOM     13  C   UNL     1       1.286  -4.032 -11.168  0.00  0.00    +0.005 A 
ATOM     14  C   UNL     1       0.545  -3.349 -13.765  0.00  0.00    +0.000 A 
ATOM     15  C   UNL     1      -0.045  -4.145 -11.569  0.00  0.00    +0.000 A 
ATOM     16  C   UNL     1      -0.415  -3.806 -12.868  0.00  0.00    +0.000 A 
ENDBRANCH  10  11
ENDBRANCH   1  10
TORSDOF 2
ENDMDL
MODEL 6
REMARK VINA RESULT:    -4.761     12.799     13.743
REMARK INTER + INTRA:          -5.498
REMARK INTER:                  -5.345
REMARK INTRA:                  -0.153
REMARK UNBOUND:                -0.180
REMARK  Name = 1550473
REMARK  2 active torsions:
REMARK  status: ('A' for Active; 'I' for Inactive)
REMARK    1  A    between atoms: N_1  and  C_4
REMARK    2  A    between atoms: C_4  and  C_5
REMARK                            x       y       z     vdW  Elec       q    Type
REMARK                         _______ _______ _______ _____ _____    ______ ____
ROOT
ATOM      1  N   UNL     1       1.064  -8.150 -13.100  0.00  0.00    -0.354 N 
ATOM      2  N   UNL     1       0.134 -10.238 -13.476  0.00  0.00    -0.372 N 
ATOM      3  N   UNL     1      -0.143  -8.599 -15.058  0.00  0.00    -0.372 N 
ATOM      4  C   UNL     1       0.357  -8.981 -13.878  0.00  0.00    +0.166 C 
ATOM      5  H   UNL     1       1.390  -8.492 -12.203  0.00  0.00    +0.163 HD
ATOM      6  H   UNL     1      -0.393 -10.888 -14.043  0.00  0.00    +0.159 HD
ATOM      7  H   UNL     1       0.499 -10.590 -12.600  0.00  0.00    +0.159 HD
ATOM      8  H   UNL     1      -0.015  -7.662 -15.416  0.00  0.00    +0.159 HD
ATOM      9  H   UNL     1      -0.683  -9.232 -15.635  0.00  0.00    +0.159 HD
ENDROOT
BRANCH   1  10
ATOM     10  C   UNL     1       1.409  -6.779 -13.469  0.00  0.00    +0.151 C 
BRANCH  10  11
ATOM     11  C   UNL     1       0.682  -5.827 -12.559  0.00  0.00    -0.028 A 
ATOM     12  C   UNL     1       0.483  -6.147 -11.207  0.00  0.00    +0.005 A 
ATOM     13  C   UNL     1       0.196  -4.602 -13.039  0.00  0.00    +0.005 A 
ATOM     14  C   UNL     1      -0.165  -5.251 -10.354  0.00  0.00    +0.000 A 
ATOM     15  C   UNL     1      -0.452  -3.710 -12.184  0.00  0.00    +0.000 A 
ATOM     16  C   UNL     1      -0.630  -4.034 -10.842  0.00  0.00    +0.000 A 
ENDBRANCH  10  11
ENDBRANCH   1  10
TORSDOF 2
ENDMDL
MODEL 7
REMARK VINA RESULT:    -4.749      8.593     11.235
REMARK INTER + INTRA:          -5.485
REMARK INTER:                  -5.352
REMARK INTRA:                  -0.133
REMARK UNBOUND:                -0.180
REMARK  Name = 1550473
REMARK  2 active torsions:
REMARK  status: ('A' for Active; 'I' for Inactive)
REMARK    1  A    between atoms: N_1  and  C_4
REMARK    2  A    between atoms: C_4  and  C_5
REMARK                            x       y       z     vdW  Elec       q    Type
REMARK                         _______ _______ _______ _____ _____    ______ ____
ROOT
ATOM      1  N   UNL     1       4.049  -5.035 -11.255  0.00  0.00    -0.354 N 
ATOM      2  N   UNL     1       5.020  -6.551  -9.799  0.00  0.00    -0.372 N 
ATOM      3  N   UNL     1       5.279  -4.307  -9.398  0.00  0.00    -0.372 N 
ATOM      4  C   UNL     1       4.777  -5.285 -10.159  0.00  0.00    +0.166 C 
ATOM      5  H   UNL     1       3.723  -5.820 -11.806  0.00  0.00    +0.163 HD
ATOM      6  H   UNL     1       5.564  -6.771  -8.975  0.00  0.00    +0.159 HD
ATOM      7  H   UNL     1       4.654  -7.335 -10.326  0.00  0.00    +0.159 HD
ATOM      8  H   UNL     1       5.136  -3.330  -9.619  0.00  0.00    +0.159 HD
ATOM      9  H   UNL     1       5.835  -4.507  -8.576  0.00  0.00    +0.159 HD
ENDROOT
BRANCH   1  10
ATOM     10  C   UNL     1       3.682  -3.693 -11.704  0.00  0.00    +0.151 C 
BRANCH  10  11
ATOM     11  C   UNL     1       2.229  -3.684 -12.090  0.00  0.00    -0.028 A 
ATOM     12  C   UNL     1       1.835  -3.270 -13.371  0.00  0.00    +0.005 A 
ATOM     13  C   UNL     1       1.241  -4.095 -11.182  0.00  0.00    +0.005 A 
ATOM     14  C   UNL     1       0.487  -3.290 -13.740  0.00  0.00    +0.000 A 
ATOM     15  C   UNL     1      -0.103  -4.113 -11.554  0.00  0.00    +0.000 A 
ATOM     16  C   UNL     1      -0.479  -3.713 -12.834  0.00  0.00    +0.000 A 
ENDBRANCH  10  11
ENDBRANCH   1  10
TORSDOF 2
ENDMDL
MODEL 8
REMARK VINA RESULT:    -4.737      8.602     10.113
REMARK INTER + INTRA:          -5.470
REMARK INTER:                  -5.344
REMARK INTRA:                  -0.126
REMARK UNBOUND:                -0.180
REMARK  Name = 1550473
REMARK  2 active torsions:
REMARK  status: ('A' for Active; 'I' for Inactive)
REMARK    1  A    between atoms: N_1  and  C_4
REMARK    2  A    between atoms: C_4  and  C_5
REMARK                            x       y       z     vdW  Elec       q    Type
REMARK                         _______ _______ _______ _____ _____    ______ ____
ROOT
ATOM      1  N   UNL     1       2.249  -2.999 -12.771  0.00  0.00    -0.354 N 
ATOM      2  N   UNL     1       0.528  -2.977 -14.322  0.00  0.00    -0.372 N 
ATOM      3  N   UNL     1       0.331  -4.310 -12.465  0.00  0.00    -0.372 N 
ATOM      4  C   UNL     1       1.046  -3.431 -13.174  0.00  0.00    +0.166 C 
ATOM      5  H   UNL     1       2.754  -2.355 -13.369  0.00  0.00    +0.163 HD
ATOM      6  H   UNL     1      -0.378  -3.282 -14.649  0.00  0.00    +0.159 HD
ATOM      7  H   UNL     1       1.015  -2.298 -14.894  0.00  0.00    +0.159 HD
ATOM      8  H   UNL     1       0.668  -4.695 -11.593  0.00  0.00    +0.159 HD
ATOM      9  H   UNL     1      -0.574  -4.636 -12.782  0.00  0.00    +0.159 HD
ENDROOT
BRANCH   1  10
ATOM     10  C   UNL     1       2.878  -3.390 -11.511  0.00  0.00    +0.151 C 
BRANCH  10  11
ATOM     11  C   UNL     1       4.333  -3.681 -11.759  0.00  0.00    -0.028 A 
ATOM     12  C   UNL     1       4.719  -4.834 -12.459  0.00  0.00    +0.005 A 
ATOM     13  C   UNL     1       5.329  -2.806 -11.300  0.00  0.00    +0.005 A 
ATOM     14  C   UNL     1       6.068  -5.089 -12.715  0.00  0.00    +0.000 A 
ATOM     15  C   UNL     1       6.675  -3.065 -11.557  0.00  0.00    +0.000 A 
ATOM     16  C   UNL     1       7.044  -4.206 -12.266  0.00  0.00    +0.000 A 
ENDBRANCH  10  11
ENDBRANCH   1  10
TORSDOF 2
ENDMDL
MODEL 9
REMARK VINA RESULT:    -4.693      4.158      5.562
REMARK INTER + INTRA:          -5.421
REMARK INTER:                  -5.332
REMARK INTRA:                  -0.089
REMARK UNBOUND:                -0.180
REMARK  Name = 1550473
REMARK  2 active torsions:
REMARK  status: ('A' for Active; 'I' for Inactive)
REMARK    1  A    between atoms: N_1  and  C_4
REMARK    2  A    between atoms: C_4  and  C_5
REMARK                            x       y       z     vdW  Elec       q    Type
REMARK                         _______ _______ _______ _____ _____    ______ ____
ROOT
ATOM      1  N   UNL     1      12.881  -0.952  -3.046  0.00  0.00    -0.354 N 
ATOM      2  N   UNL     1      10.809  -1.984  -3.096  0.00  0.00    -0.372 N 
ATOM      3  N   UNL     1      12.696  -3.288  -3.083  0.00  0.00    -0.372 N 
ATOM      4  C   UNL     1      12.144  -2.070  -3.075  0.00  0.00    +0.166 C 
ATOM      5  H   UNL     1      12.403  -0.059  -3.072  0.00  0.00    +0.163 HD
ATOM      6  H   UNL     1      10.226  -2.810  -3.115  0.00  0.00    +0.159 HD
ATOM      7  H   UNL     1      10.332  -1.090  -3.076  0.00  0.00    +0.159 HD
ATOM      8  H   UNL     1      13.699  -3.421  -3.074  0.00  0.00    +0.159 HD
ATOM      9  H   UNL     1      12.130  -4.126  -3.113  0.00  0.00    +0.159 HD
ENDROOT
BRANCH   1  10
ATOM     10  C   UNL     1      14.341  -0.937  -2.967  0.00  0.00    +0.151 C 
BRANCH  10  11
ATOM     11  C   UNL     1      14.755  -0.365  -1.639  0.00  0.00    -0.028 A 
ATOM     12  C   UNL     1      13.856  -0.340  -0.563  0.00  0.00    +0.005 A 
ATOM     13  C   UNL     1      16.048   0.147  -1.448  0.00  0.00    +0.005 A 
ATOM     14  C   UNL     1      14.250   0.163   0.679  0.00  0.00    +0.000 A 
ATOM     15  C   UNL     1      16.437   0.649  -0.206  0.00  0.00    +0.000 A 
ATOM     16  C   UNL     1      15.538   0.654   0.858  0.00  0.00    +0.000 A 
ENDBRANCH  10  11
ENDBRANCH   1  10
TORSDOF 2
ENDMDL
