MODEL 1
REMARK VINA RESULT:    -5.570      0.000      0.000
REMARK INTER + INTRA:          -6.364
REMARK INTER:                  -6.222
REMARK INTRA:                  -0.143
REMARK UNBOUND:                -0.143
REMARK  Name = 1550473
REMARK  2 active torsions:
REMARK  status: ('A' for Active; 'I' for Inactive)
REMARK    1  A    between atoms: N_1  and  C_4
REMARK    2  A    between atoms: C_4  and  C_5
REMARK                            x       y       z     vdW  Elec       q    Type
REMARK                         _______ _______ _______ _____ _____    ______ ____
ROOT
ATOM      1  N   UNL     1       0.121   3.963  14.055  0.00  0.00    -0.354 N 
ATOM      2  N   UNL     1       1.277   3.188  15.906  0.00  0.00    -0.372 N 
ATOM      3  N   UNL     1       0.361   5.290  15.971  0.00  0.00    -0.372 N 
ATOM      4  C   UNL     1       0.578   4.155  15.300  0.00  0.00    +0.166 C 
ATOM      5  H   UNL     1       0.346   3.092  13.589  0.00  0.00    +0.163 HD
ATOM      6  H   UNL     1       1.632   3.302  16.846  0.00  0.00    +0.159 HD
ATOM      7  H   UNL     1       1.461   2.300  15.455  0.00  0.00    +0.159 HD
ATOM      8  H   UNL     1      -0.154   6.061  15.568  0.00  0.00    +0.159 HD
ATOM      9  H   UNL     1       0.718   5.428  16.909  0.00  0.00    +0.159 HD
ENDROOT
BRANCH   1  10
ATOM     10  C   UNL     1      -0.696   4.931  13.326  0.00  0.00    +0.151 C 
BRANCH  10  11
ATOM     11  C   UNL     1      -1.929   4.243  12.808  0.00  0.00    -0.028 A 
ATOM     12  C   UNL     1      -2.244   4.279  11.442  0.00  0.00    +0.005 A 
ATOM     13  C   UNL     1      -2.783   3.548  13.679  0.00  0.00    +0.005 A 
ATOM     14  C   UNL     1      -3.373   3.615  10.957  0.00  0.00    +0.000 A 
ATOM     15  C   UNL     1      -3.909   2.887  13.190  0.00  0.00    +0.000 A 
ATOM     16  C   UNL     1      -4.203   2.918  11.829  0.00  0.00    +0.000 A 
ENDBRANCH  10  11
ENDBRANCH   1  10
TORSDOF 2
ENDMDL
MODEL 2
REMARK VINA RESULT:    -5.008     12.783     13.450
REMARK INTER + INTRA:          -5.736
REMARK INTER:                  -5.617
REMARK INTRA:                  -0.119
REMARK UNBOUND:                -0.143
REMARK  Name = 1550473
REMARK  2 active torsions:
REMARK  status: ('A' for Active; 'I' for Inactive)
REMARK    1  A    between atoms: N_1  and  C_4
REMARK    2  A    between atoms: C_4  and  C_5
REMARK                            x       y       z     vdW  Elec       q    Type
REMARK                         _______ _______ _______ _____ _____    ______ ____
ROOT
ATOM      1  N   UNL     1       7.605  10.761  19.793  0.00  0.00    -0.354 N 
ATOM      2  N   UNL     1       6.802   8.939  20.976  0.00  0.00    -0.372 N 
ATOM      3  N   UNL     1       9.039   9.437  21.091  0.00  0.00    -0.372 N 
ATOM      4  C   UNL     1       7.824   9.724  20.613  0.00  0.00    +0.166 C 
ATOM      5  H   UNL     1       6.666  10.907  19.441  0.00  0.00    +0.163 HD
ATOM      6  H   UNL     1       6.936   8.151  21.596  0.00  0.00    +0.159 HD
ATOM      7  H   UNL     1       5.856   9.114  20.660  0.00  0.00    +0.159 HD
ATOM      8  H   UNL     1       9.853   9.987  20.850  0.00  0.00    +0.159 HD
ATOM      9  H   UNL     1       9.195   8.646  21.703  0.00  0.00    +0.159 HD
ENDROOT
BRANCH   1  10
ATOM     10  C   UNL     1       8.639  11.708  19.380  0.00  0.00    +0.151 C 
BRANCH  10  11
ATOM     11  C   UNL     1       8.442  12.048  17.928  0.00  0.00    -0.028 A 
ATOM     12  C   UNL     1       7.939  13.303  17.553  0.00  0.00    +0.005 A 
ATOM     13  C   UNL     1       8.761  11.122  16.923  0.00  0.00    +0.005 A 
ATOM     14  C   UNL     1       7.784  13.630  16.204  0.00  0.00    +0.000 A 
ATOM     15  C   UNL     1       8.604  11.452  15.577  0.00  0.00    +0.000 A 
ATOM     16  C   UNL     1       8.118  12.707  15.218  0.00  0.00    +0.000 A 
ENDBRANCH  10  11
ENDBRANCH   1  10
TORSDOF 2
ENDMDL
MODEL 3
REMARK VINA RESULT:    -4.828     22.167     23.713
REMARK INTER + INTRA:          -5.535
REMARK INTER:                  -5.412
REMARK INTRA:                  -0.122
REMARK UNBOUND:                -0.143
REMARK  Name = 1550473
REMARK  2 active torsions:
REMARK  status: ('A' for Active; 'I' for Inactive)
REMARK    1  A    between atoms: N_1  and  C_4
REMARK    2  A    between atoms: C_4  and  C_5
REMARK                            x       y       z     vdW  Elec       q    Type
REMARK                         _______ _______ _______ _____ _____    ______ ____
ROOT
ATOM      1  N   UNL     1       2.293   3.096 -10.834  0.00  0.00    -0.354 N 
ATOM      2  N   UNL     1       1.458   2.955 -12.990  0.00  0.00    -0.372 N 
ATOM      3  N   UNL     1       1.636   5.018 -12.002  0.00  0.00    -0.372 N 
ATOM      4  C   UNL     1       1.801   3.693 -11.927  0.00  0.00    +0.166 C 
ATOM      5  H   UNL     1       2.365   2.085 -10.829  0.00  0.00    +0.163 HD
ATOM      6  H   UNL     1       1.087   3.378 -13.830  0.00  0.00    +0.159 HD
ATOM      7  H   UNL     1       1.574   1.949 -12.999  0.00  0.00    +0.159 HD
ATOM      8  H   UNL     1       1.869   5.631 -11.232  0.00  0.00    +0.159 HD
ATOM      9  H   UNL     1       1.255   5.459 -12.830  0.00  0.00    +0.159 HD
ENDROOT
BRANCH   1  10
ATOM     10  C   UNL     1       2.746   3.814  -9.644  0.00  0.00    +0.151 C 
BRANCH  10  11
ATOM     11  C   UNL     1       3.058   2.819  -8.560  0.00  0.00    -0.028 A 
ATOM     12  C   UNL     1       3.307   3.251  -7.249  0.00  0.00    +0.005 A 
ATOM     13  C   UNL     1       3.100   1.444  -8.836  0.00  0.00    +0.005 A 
ATOM     14  C   UNL     1       3.568   2.325  -6.235  0.00  0.00    +0.000 A 
ATOM     15  C   UNL     1       3.361   0.524  -7.821  0.00  0.00    +0.000 A 
ATOM     16  C   UNL     1       3.592   0.964  -6.520  0.00  0.00    +0.000 A 
ENDBRANCH  10  11
ENDBRANCH   1  10
TORSDOF 2
ENDMDL
MODEL 4
REMARK VINA RESULT:    -4.809     21.632     23.293
REMARK INTER + INTRA:          -5.513
REMARK INTER:                  -5.333
REMARK INTRA:                  -0.180
REMARK UNBOUND:                -0.143
REMARK  Name = 1550473
REMARK  2 active torsions:
REMARK  status: ('A' for Active; 'I' for Inactive)
REMARK    1  A    between atoms: N_1  and  C_4
REMARK    2  A    between atoms: C_4  and  C_5
REMARK                            x       y       z     vdW  Elec       q    Type
REMARK                         _______ _______ _______ _____ _____    ______ ____
ROOT
ATOM      1  N   UNL     1      -8.702  -8.968  -2.488  0.00  0.00    -0.354 N 
ATOM      2  N   UNL     1      -9.912  -8.813  -0.520  0.00  0.00    -0.372 N 
ATOM      3  N   UNL     1     -10.464 -10.444  -2.036  0.00  0.00    -0.372 N 
ATOM      4  C   UNL     1      -9.686  -9.412  -1.696  0.00  0.00    +0.166 C 
ATOM      5  H   UNL     1      -8.167  -8.161  -2.186  0.00  0.00    +0.163 HD
ATOM      6  H   UNL     1     -10.646  -9.128   0.101  0.00  0.00    +0.159 HD
ATOM      7  H   UNL     1      -9.347  -8.037  -0.200  0.00  0.00    +0.159 HD
ATOM      8  H   UNL     1     -10.349 -10.935  -2.913  0.00  0.00    +0.159 HD
ATOM      9  H   UNL     1     -11.211 -10.767  -1.434  0.00  0.00    +0.159 HD
ENDROOT
BRANCH   1  10
ATOM     10  C   UNL     1      -8.339  -9.583  -3.764  0.00  0.00    +0.151 C 
BRANCH  10  11
ATOM     11  C   UNL     1      -8.961  -8.795  -4.884  0.00  0.00    -0.028 A 
ATOM     12  C   UNL     1      -8.524  -7.492  -5.166  0.00  0.00    +0.005 A 
ATOM     13  C   UNL     1      -9.984  -9.347  -5.670  0.00  0.00    +0.005 A 
ATOM     14  C   UNL     1      -9.080  -6.771  -6.225  0.00  0.00    +0.000 A 
ATOM     15  C   UNL     1     -10.537  -8.623  -6.726  0.00  0.00    +0.000 A 
ATOM     16  C   UNL     1     -10.084  -7.336  -7.005  0.00  0.00    +0.000 A 
ENDBRANCH  10  11
ENDBRANCH   1  10
TORSDOF 2
ENDMDL
MODEL 5
REMARK VINA RESULT:    -4.773     20.464     21.902
REMARK INTER + INTRA:          -5.474
REMARK INTER:                  -5.326
REMARK INTRA:                  -0.148
REMARK UNBOUND:                -0.143
REMARK  Name = 1550473
REMARK  2 active torsions:
REMARK  status: ('A' for Active; 'I' for Inactive)
REMARK    1  A    between atoms: N_1  and  C_4
REMARK    2  A    between atoms: C_4  and  C_5
REMARK                            x       y       z     vdW  Elec       q    Type
REMARK                         _______ _______ _______ _____ _____    ______ ____
ROOT
ATOM      1  N   UNL     1       3.326   1.956  -5.890  0.00  0.00    -0.354 N 
ATOM      2  N   UNL     1       2.168   0.777  -4.268  0.00  0.00    -0.372 N 
ATOM      3  N   UNL     1       3.638  -0.351  -5.621  0.00  0.00    -0.372 N 
ATOM      4  C   UNL     1       3.053   0.800  -5.272  0.00  0.00    +0.166 C 
ATOM      5  H   UNL     1       2.826   2.788  -5.598  0.00  0.00    +0.163 HD
ATOM      6  H   UNL     1       1.944  -0.080  -3.780  0.00  0.00    +0.159 HD
ATOM      7  H   UNL     1       1.704   1.618  -3.947  0.00  0.00    +0.159 HD
ATOM      8  H   UNL     1       4.311  -0.402  -6.375  0.00  0.00    +0.159 HD
ATOM      9  H   UNL     1       3.419  -1.221  -5.153  0.00  0.00    +0.159 HD
ENDROOT
BRANCH   1  10
ATOM     10  C   UNL     1       4.314   2.099  -6.959  0.00  0.00    +0.151 C 
BRANCH  10  11
ATOM     11  C   UNL     1       3.624   2.587  -8.203  0.00  0.00    -0.028 A 
ATOM     12  C   UNL     1       3.278   1.689  -9.224  0.00  0.00    +0.005 A 
ATOM     13  C   UNL     1       3.309   3.945  -8.364  0.00  0.00    +0.005 A 
ATOM     14  C   UNL     1       2.610   2.138 -10.366  0.00  0.00    +0.000 A 
ATOM     15  C   UNL     1       2.643   4.388  -9.507  0.00  0.00    +0.000 A 
ATOM     16  C   UNL     1       2.292   3.484 -10.506  0.00  0.00    +0.000 A 
ENDBRANCH  10  11
ENDBRANCH   1  10
TORSDOF 2
ENDMDL
MODEL 6
REMARK VINA RESULT:    -4.555     26.148     27.448
REMARK INTER + INTRA:          -5.230
REMARK INTER:                  -5.112
REMARK INTRA:                  -0.118
REMARK UNBOUND:                -0.143
REMARK  Name = 1550473
REMARK  2 active torsions:
REMARK  status: ('A' for Active; 'I' for Inactive)
REMARK    1  A    between atoms: N_1  and  C_4
REMARK    2  A    between atoms: C_4  and  C_5
REMARK                            x       y       z     vdW  Elec       q    Type
REMARK                         _______ _______ _______ _____ _____    ______ ____
ROOT
ATOM      1  N   UNL     1      -8.131   8.640 -13.755  0.00  0.00    -0.354 N 
ATOM      2  N   UNL     1      -5.968   9.449 -13.928  0.00  0.00    -0.372 N 
ATOM      3  N   UNL     1      -7.682  10.933 -13.575  0.00  0.00    -0.372 N 
ATOM      4  C   UNL     1      -7.276   9.671 -13.752  0.00  0.00    +0.166 C 
ATOM      5  H   UNL     1      -7.764   7.711 -13.924  0.00  0.00    +0.163 HD
ATOM      6  H   UNL     1      -5.299  10.207 -13.927  0.00  0.00    +0.159 HD
ATOM      7  H   UNL     1      -5.598   8.514 -14.051  0.00  0.00    +0.159 HD
ATOM      8  H   UNL     1      -8.657  11.169 -13.443  0.00  0.00    +0.159 HD
ATOM      9  H   UNL     1      -7.029  11.706 -13.583  0.00  0.00    +0.159 HD
ENDROOT
BRANCH   1  10
ATOM     10  C   UNL     1      -9.568   8.769 -13.518  0.00  0.00    +0.151 C 
BRANCH  10  11
ATOM     11  C   UNL     1      -9.940   7.961 -12.306  0.00  0.00    -0.028 A 
ATOM     12  C   UNL     1     -11.227   7.417 -12.179  0.00  0.00    +0.005 A 
ATOM     13  C   UNL     1      -9.009   7.729 -11.282  0.00  0.00    +0.005 A 
ATOM     14  C   UNL     1     -11.564   6.642 -11.068  0.00  0.00    +0.000 A 
ATOM     15  C   UNL     1      -9.349   6.955 -10.173  0.00  0.00    +0.000 A 
ATOM     16  C   UNL     1     -10.626   6.409 -10.068  0.00  0.00    +0.000 A 
ENDBRANCH  10  11
ENDBRANCH   1  10
TORSDOF 2
ENDMDL
MODEL 7
REMARK VINA RESULT:    -4.552     18.962     20.844
REMARK INTER + INTRA:          -5.227
REMARK INTER:                  -5.108
REMARK INTRA:                  -0.119
REMARK UNBOUND:                -0.143
REMARK  Name = 1550473
REMARK  2 active torsions:
REMARK  status: ('A' for Active; 'I' for Inactive)
REMARK    1  A    between atoms: N_1  and  C_4
REMARK    2  A    between atoms: C_4  and  C_5
REMARK                            x       y       z     vdW  Elec       q    Type
REMARK                         _______ _______ _______ _____ _____    ______ ____
ROOT
ATOM      1  N   UNL     1      -8.271   4.519  -4.368  0.00  0.00    -0.354 N 
ATOM      2  N   UNL     1      -6.311   4.519  -3.134  0.00  0.00    -0.372 N 
ATOM      3  N   UNL     1      -7.539   2.585  -3.266  0.00  0.00    -0.372 N 
ATOM      4  C   UNL     1      -7.387   3.872  -3.597  0.00  0.00    +0.166 C 
ATOM      5  H   UNL     1      -8.114   5.503  -4.557  0.00  0.00    +0.163 HD
ATOM      6  H   UNL     1      -5.625   4.055  -2.553  0.00  0.00    +0.159 HD
ATOM      7  H   UNL     1      -6.133   5.489  -3.363  0.00  0.00    +0.159 HD
ATOM      8  H   UNL     1      -8.333   2.042  -3.578  0.00  0.00    +0.159 HD
ATOM      9  H   UNL     1      -6.869   2.107  -2.676  0.00  0.00    +0.159 HD
ENDROOT
BRANCH   1  10
ATOM     10  C   UNL     1      -9.448   3.892  -4.967  0.00  0.00    +0.151 C 
BRANCH  10  11
ATOM     11  C   UNL     1      -9.806   4.626  -6.230  0.00  0.00    -0.028 A 
ATOM     12  C   UNL     1      -9.548   5.999  -6.353  0.00  0.00    +0.005 A 
ATOM     13  C   UNL     1     -10.398   3.952  -7.309  0.00  0.00    +0.005 A 
ATOM     14  C   UNL     1      -9.853   6.675  -7.537  0.00  0.00    +0.000 A 
ATOM     15  C   UNL     1     -10.702   4.631  -8.489  0.00  0.00    +0.000 A 
ATOM     16  C   UNL     1     -10.427   5.991  -8.604  0.00  0.00    +0.000 A 
ENDBRANCH  10  11
ENDBRANCH   1  10
TORSDOF 2
ENDMDL
MODEL 8
REMARK VINA RESULT:    -4.506     18.853     20.278
REMARK INTER + INTRA:          -5.175
REMARK INTER:                  -5.044
REMARK INTRA:                  -0.131
REMARK UNBOUND:                -0.143
REMARK  Name = 1550473
REMARK  2 active torsions:
REMARK  status: ('A' for Active; 'I' for Inactive)
REMARK    1  A    between atoms: N_1  and  C_4
REMARK    2  A    between atoms: C_4  and  C_5
REMARK                            x       y       z     vdW  Elec       q    Type
REMARK                         _______ _______ _______ _____ _____    ______ ____
ROOT
ATOM      1  N   UNL     1     -11.383   1.771  -3.867  0.00  0.00    -0.354 N 
ATOM      2  N   UNL     1     -12.118  -0.236  -2.974  0.00  0.00    -0.372 N 
ATOM      3  N   UNL     1     -12.449   0.171  -5.207  0.00  0.00    -0.372 N 
ATOM      4  C   UNL     1     -11.979   0.581  -4.025  0.00  0.00    +0.166 C 
ATOM      5  H   UNL     1     -11.076   2.036  -2.938  0.00  0.00    +0.163 HD
ATOM      6  H   UNL     1     -12.561  -1.141  -3.063  0.00  0.00    +0.159 HD
ATOM      7  H   UNL     1     -11.769   0.013  -2.056  0.00  0.00    +0.159 HD
ATOM      8  H   UNL     1     -12.381   0.743  -6.038  0.00  0.00    +0.159 HD
ATOM      9  H   UNL     1     -12.905  -0.726  -5.314  0.00  0.00    +0.159 HD
ENDROOT
BRANCH   1  10
ATOM     10  C   UNL     1     -11.134   2.711  -4.958  0.00  0.00    +0.151 C 
BRANCH  10  11
ATOM     11  C   UNL     1      -9.905   3.517  -4.641  0.00  0.00    -0.028 A 
ATOM     12  C   UNL     1      -9.593   4.664  -5.386  0.00  0.00    +0.005 A 
ATOM     13  C   UNL     1      -9.050   3.143  -3.593  0.00  0.00    +0.005 A 
ATOM     14  C   UNL     1      -8.468   5.430  -5.073  0.00  0.00    +0.000 A 
ATOM     15  C   UNL     1      -7.927   3.909  -3.284  0.00  0.00    +0.000 A 
ATOM     16  C   UNL     1      -7.637   5.054  -4.022  0.00  0.00    +0.000 A 
ENDBRANCH  10  11
ENDBRANCH   1  10
TORSDOF 2
ENDMDL
MODEL 9
REMARK VINA RESULT:    -4.455     20.291     21.721
REMARK INTER + INTRA:          -5.118
REMARK INTER:                  -5.023
REMARK INTRA:                  -0.095
REMARK UNBOUND:                -0.143
REMARK  Name = 1550473
REMARK  2 active torsions:
REMARK  status: ('A' for Active; 'I' for Inactive)
REMARK    1  A    between atoms: N_1  and  C_4
REMARK    2  A    between atoms: C_4  and  C_5
REMARK                            x       y       z     vdW  Elec       q    Type
REMARK                         _______ _______ _______ _____ _____    ______ ____
ROOT
ATOM      1  N   UNL     1       2.635   3.576  -6.049  0.00  0.00    -0.354 N 
ATOM      2  N   UNL     1       1.662   4.151  -4.027  0.00  0.00    -0.372 N 
ATOM      3  N   UNL     1       3.916   3.726  -4.092  0.00  0.00    -0.372 N 
ATOM      4  C   UNL     1       2.747   3.813  -4.735  0.00  0.00    +0.166 C 
ATOM      5  H   UNL     1       1.715   3.630  -6.471  0.00  0.00    +0.163 HD
ATOM      6  H   UNL     1       1.716   4.340  -3.035  0.00  0.00    +0.159 HD
ATOM      7  H   UNL     1       0.752   4.249  -4.460  0.00  0.00    +0.159 HD
ATOM      8  H   UNL     1       4.771   3.469  -4.568  0.00  0.00    +0.159 HD
ATOM      9  H   UNL     1       3.988   3.899  -3.097  0.00  0.00    +0.159 HD
ENDROOT
BRANCH   1  10
ATOM     10  C   UNL     1       3.763   3.254  -6.920  0.00  0.00    +0.151 C 
BRANCH  10  11
ATOM     11  C   UNL     1       3.270   3.124  -8.335  0.00  0.00    -0.028 A 
ATOM     12  C   UNL     1       3.185   1.865  -8.947  0.00  0.00    +0.005 A 
ATOM     13  C   UNL     1       2.880   4.256  -9.067  0.00  0.00    +0.005 A 
ATOM     14  C   UNL     1       2.698   1.741 -10.251  0.00  0.00    +0.000 A 
ATOM     15  C   UNL     1       2.395   4.128 -10.369  0.00  0.00    +0.000 A 
ATOM     16  C   UNL     1       2.302   2.871 -10.959  0.00  0.00    +0.000 A 
ENDBRANCH  10  11
ENDBRANCH   1  10
TORSDOF 2
ENDMDL
