MODEL 1
REMARK VINA RESULT:    -4.957      0.000      0.000
REMARK INTER + INTRA:          -5.699
REMARK INTER:                  -5.537
REMARK INTRA:                  -0.162
REMARK UNBOUND:                -0.162
REMARK  Name = 1550473
REMARK  2 active torsions:
REMARK  status: ('A' for Active; 'I' for Inactive)
REMARK    1  A    between atoms: N_1  and  C_4
REMARK    2  A    between atoms: C_4  and  C_5
REMARK                            x       y       z     vdW  Elec       q    Type
REMARK                         _______ _______ _______ _____ _____    ______ ____
ROOT
ATOM      1  N   UNL     1     -14.520   4.113  31.410  0.00  0.00    -0.354 N 
ATOM      2  N   UNL     1     -13.718   4.486  33.551  0.00  0.00    -0.372 N 
ATOM      3  N   UNL     1     -13.400   6.100  31.951  0.00  0.00    -0.372 N 
ATOM      4  C   UNL     1     -13.884   4.900  32.289  0.00  0.00    +0.166 C 
ATOM      5  H   UNL     1     -14.836   3.202  31.721  0.00  0.00    +0.163 HD
ATOM      6  H   UNL     1     -13.245   5.059  34.237  0.00  0.00    +0.159 HD
ATOM      7  H   UNL     1     -14.076   3.594  33.871  0.00  0.00    +0.159 HD
ATOM      8  H   UNL     1     -13.487   6.467  31.013  0.00  0.00    +0.159 HD
ATOM      9  H   UNL     1     -12.914   6.683  32.620  0.00  0.00    +0.159 HD
ENDROOT
BRANCH   1  10
ATOM     10  C   UNL     1     -14.800   4.492  30.027  0.00  0.00    +0.151 C 
BRANCH  10  11
ATOM     11  C   UNL     1     -13.694   3.982  29.145  0.00  0.00    -0.028 A 
ATOM     12  C   UNL     1     -13.565   2.610  28.886  0.00  0.00    +0.005 A 
ATOM     13  C   UNL     1     -12.774   4.867  28.560  0.00  0.00    +0.005 A 
ATOM     14  C   UNL     1     -12.556   2.138  28.042  0.00  0.00    +0.000 A 
ATOM     15  C   UNL     1     -11.768   4.392  27.719  0.00  0.00    +0.000 A 
ATOM     16  C   UNL     1     -11.661   3.028  27.459  0.00  0.00    +0.000 A 
ENDBRANCH  10  11
ENDBRANCH   1  10
TORSDOF 2
ENDMDL
MODEL 2
REMARK VINA RESULT:    -4.794     21.146     22.515
REMARK INTER + INTRA:          -5.517
REMARK INTER:                  -5.410
REMARK INTRA:                  -0.107
REMARK UNBOUND:                -0.162
REMARK  Name = 1550473
REMARK  2 active torsions:
REMARK  status: ('A' for Active; 'I' for Inactive)
REMARK    1  A    between atoms: N_1  and  C_4
REMARK    2  A    between atoms: C_4  and  C_5
REMARK                            x       y       z     vdW  Elec       q    Type
REMARK                         _______ _______ _______ _____ _____    ______ ____
ROOT
ATOM      1  N   UNL     1     -11.534   6.829   8.754  0.00  0.00    -0.354 N 
ATOM      2  N   UNL     1     -12.493   5.079   9.930  0.00  0.00    -0.372 N 
ATOM      3  N   UNL     1     -13.688   6.066   8.238  0.00  0.00    -0.372 N 
ATOM      4  C   UNL     1     -12.568   6.004   8.965  0.00  0.00    +0.166 C 
ATOM      5  H   UNL     1     -10.724   6.751   9.359  0.00  0.00    +0.163 HD
ATOM      6  H   UNL     1     -13.255   4.440  10.109  0.00  0.00    +0.159 HD
ATOM      7  H   UNL     1     -11.665   4.973  10.503  0.00  0.00    +0.159 HD
ATOM      8  H   UNL     1     -13.810   6.745   7.498  0.00  0.00    +0.159 HD
ATOM      9  H   UNL     1     -14.467   5.443   8.410  0.00  0.00    +0.159 HD
ENDROOT
BRANCH   1  10
ATOM     10  C   UNL     1     -11.493   7.835   7.694  0.00  0.00    +0.151 C 
BRANCH  10  11
ATOM     11  C   UNL     1     -10.124   8.458   7.660  0.00  0.00    -0.028 A 
ATOM     12  C   UNL     1      -9.473   8.679   6.438  0.00  0.00    +0.005 A 
ATOM     13  C   UNL     1      -9.476   8.834   8.846  0.00  0.00    +0.005 A 
ATOM     14  C   UNL     1      -8.215   9.285   6.404  0.00  0.00    +0.000 A 
ATOM     15  C   UNL     1      -8.219   9.437   8.808  0.00  0.00    +0.000 A 
ATOM     16  C   UNL     1      -7.590   9.665   7.587  0.00  0.00    +0.000 A 
ENDBRANCH  10  11
ENDBRANCH   1  10
TORSDOF 2
ENDMDL
MODEL 3
REMARK VINA RESULT:    -4.628     56.391     57.896
REMARK INTER + INTRA:          -5.332
REMARK INTER:                  -5.241
REMARK INTRA:                  -0.091
REMARK UNBOUND:                -0.162
REMARK  Name = 1550473
REMARK  2 active torsions:
REMARK  status: ('A' for Active; 'I' for Inactive)
REMARK    1  A    between atoms: N_1  and  C_4
REMARK    2  A    between atoms: C_4  and  C_5
REMARK                            x       y       z     vdW  Elec       q    Type
REMARK                         _______ _______ _______ _____ _____    ______ ____
ROOT
ATOM      1  N   UNL     1     -11.920 -11.455 -24.226  0.00  0.00    -0.354 N 
ATOM      2  N   UNL     1     -11.124 -11.660 -22.061  0.00  0.00    -0.372 N 
ATOM      3  N   UNL     1     -11.655  -9.574 -22.854  0.00  0.00    -0.372 N 
ATOM      4  C   UNL     1     -11.572 -10.892 -23.061  0.00  0.00    +0.166 C 
ATOM      5  H   UNL     1     -11.805 -12.456 -24.330  0.00  0.00    +0.163 HD
ATOM      6  H   UNL     1     -10.857 -11.264 -21.169  0.00  0.00    +0.159 HD
ATOM      7  H   UNL     1     -11.053 -12.666 -22.152  0.00  0.00    +0.159 HD
ATOM      8  H   UNL     1     -11.980  -8.938 -23.570  0.00  0.00    +0.159 HD
ATOM      9  H   UNL     1     -11.381  -9.157 -21.972  0.00  0.00    +0.159 HD
ENDROOT
BRANCH   1  10
ATOM     10  C   UNL     1     -12.470 -10.714 -25.360  0.00  0.00    +0.151 C 
BRANCH  10  11
ATOM     11  C   UNL     1     -12.713 -11.667 -26.498  0.00  0.00    -0.028 A 
ATOM     12  C   UNL     1     -13.995 -12.188 -26.728  0.00  0.00    +0.005 A 
ATOM     13  C   UNL     1     -11.667 -12.049 -27.352  0.00  0.00    +0.005 A 
ATOM     14  C   UNL     1     -14.228 -13.049 -27.803  0.00  0.00    +0.000 A 
ATOM     15  C   UNL     1     -11.904 -12.910 -28.423  0.00  0.00    +0.000 A 
ATOM     16  C   UNL     1     -13.185 -13.408 -28.650  0.00  0.00    +0.000 A 
ENDBRANCH  10  11
ENDBRANCH   1  10
TORSDOF 2
ENDMDL
MODEL 4
REMARK VINA RESULT:    -4.571     59.417     60.999
REMARK INTER + INTRA:          -5.268
REMARK INTER:                  -5.097
REMARK INTRA:                  -0.171
REMARK UNBOUND:                -0.162
REMARK  Name = 1550473
REMARK  2 active torsions:
REMARK  status: ('A' for Active; 'I' for Inactive)
REMARK    1  A    between atoms: N_1  and  C_4
REMARK    2  A    between atoms: C_4  and  C_5
REMARK                            x       y       z     vdW  Elec       q    Type
REMARK                         _______ _______ _______ _____ _____    ______ ____
ROOT
ATOM      1  N   UNL     1       0.468 -29.313 -20.599  0.00  0.00    -0.354 N 
ATOM      2  N   UNL     1       0.183 -27.583 -22.112  0.00  0.00    -0.372 N 
ATOM      3  N   UNL     1      -1.276 -29.353 -22.163  0.00  0.00    -0.372 N 
ATOM      4  C   UNL     1      -0.208 -28.763 -21.616  0.00  0.00    +0.166 C 
ATOM      5  H   UNL     1       1.287 -28.830 -20.249  0.00  0.00    +0.163 HD
ATOM      6  H   UNL     1      -0.310 -27.141 -22.876  0.00  0.00    +0.159 HD
ATOM      7  H   UNL     1       0.974 -27.080 -21.729  0.00  0.00    +0.159 HD
ATOM      8  H   UNL     1      -1.619 -30.247 -21.839  0.00  0.00    +0.159 HD
ATOM      9  H   UNL     1      -1.776 -28.932 -22.937  0.00  0.00    +0.159 HD
ENDROOT
BRANCH   1  10
ATOM     10  C   UNL     1       0.093 -30.569 -19.951  0.00  0.00    +0.151 C 
BRANCH  10  11
ATOM     11  C   UNL     1      -0.418 -30.274 -18.568  0.00  0.00    -0.028 A 
ATOM     12  C   UNL     1       0.467 -30.203 -17.482  0.00  0.00    +0.005 A 
ATOM     13  C   UNL     1      -1.785 -30.058 -18.337  0.00  0.00    +0.005 A 
ATOM     14  C   UNL     1      -0.003 -29.900 -16.202  0.00  0.00    +0.000 A 
ATOM     15  C   UNL     1      -2.251 -29.756 -17.057  0.00  0.00    +0.000 A 
ATOM     16  C   UNL     1      -1.359 -29.675 -15.991  0.00  0.00    +0.000 A 
ENDBRANCH  10  11
ENDBRANCH   1  10
TORSDOF 2
ENDMDL
MODEL 5
REMARK VINA RESULT:    -4.437     60.821     61.846
REMARK INTER + INTRA:          -5.118
REMARK INTER:                  -4.960
REMARK INTRA:                  -0.158
REMARK UNBOUND:                -0.162
REMARK  Name = 1550473
REMARK  2 active torsions:
REMARK  status: ('A' for Active; 'I' for Inactive)
REMARK    1  A    between atoms: N_1  and  C_4
REMARK    2  A    between atoms: C_4  and  C_5
REMARK                            x       y       z     vdW  Elec       q    Type
REMARK                         _______ _______ _______ _____ _____    ______ ____
ROOT
ATOM      1  N   UNL     1      -7.223 -16.916 -27.367  0.00  0.00    -0.354 N 
ATOM      2  N   UNL     1      -6.530 -14.866 -28.193  0.00  0.00    -0.372 N 
ATOM      3  N   UNL     1      -6.518 -16.686 -29.590  0.00  0.00    -0.372 N 
ATOM      4  C   UNL     1      -6.761 -16.171 -28.381  0.00  0.00    +0.166 C 
ATOM      5  H   UNL     1      -7.358 -16.472 -26.466  0.00  0.00    +0.163 HD
ATOM      6  H   UNL     1      -6.184 -14.279 -28.940  0.00  0.00    +0.159 HD
ATOM      7  H   UNL     1      -6.709 -14.416 -27.304  0.00  0.00    +0.159 HD
ATOM      8  H   UNL     1      -6.666 -17.666 -29.795  0.00  0.00    +0.159 HD
ATOM      9  H   UNL     1      -6.160 -16.117 -30.347  0.00  0.00    +0.159 HD
ENDROOT
BRANCH   1  10
ATOM     10  C   UNL     1      -7.558 -18.334 -27.482  0.00  0.00    +0.151 C 
BRANCH  10  11
ATOM     11  C   UNL     1      -6.466 -19.150 -26.847  0.00  0.00    -0.028 A 
ATOM     12  C   UNL     1      -5.292 -19.443 -27.556  0.00  0.00    +0.005 A 
ATOM     13  C   UNL     1      -6.597 -19.628 -25.534  0.00  0.00    +0.005 A 
ATOM     14  C   UNL     1      -4.265 -20.175 -26.956  0.00  0.00    +0.000 A 
ATOM     15  C   UNL     1      -5.569 -20.359 -24.938  0.00  0.00    +0.000 A 
ATOM     16  C   UNL     1      -4.402 -20.631 -25.649  0.00  0.00    +0.000 A 
ENDBRANCH  10  11
ENDBRANCH   1  10
TORSDOF 2
ENDMDL
MODEL 6
REMARK VINA RESULT:    -4.415     51.983     53.548
REMARK INTER + INTRA:          -5.094
REMARK INTER:                  -4.936
REMARK INTRA:                  -0.158
REMARK UNBOUND:                -0.162
REMARK  Name = 1550473
REMARK  2 active torsions:
REMARK  status: ('A' for Active; 'I' for Inactive)
REMARK    1  A    between atoms: N_1  and  C_4
REMARK    2  A    between atoms: C_4  and  C_5
REMARK                            x       y       z     vdW  Elec       q    Type
REMARK                         _______ _______ _______ _____ _____    ______ ____
ROOT
ATOM      1  N   UNL     1      -6.327  -2.504 -21.563  0.00  0.00    -0.354 N 
ATOM      2  N   UNL     1      -6.659  -0.348 -20.786  0.00  0.00    -0.372 N 
ATOM      3  N   UNL     1      -5.243  -1.736 -19.632  0.00  0.00    -0.372 N 
ATOM      4  C   UNL     1      -6.072  -1.544 -20.663  0.00  0.00    +0.166 C 
ATOM      5  H   UNL     1      -6.988  -2.305 -22.305  0.00  0.00    +0.163 HD
ATOM      6  H   UNL     1      -6.484   0.397 -20.125  0.00  0.00    +0.159 HD
ATOM      7  H   UNL     1      -7.284  -0.137 -21.554  0.00  0.00    +0.159 HD
ATOM      8  H   UNL     1      -4.773  -2.619 -19.480  0.00  0.00    +0.159 HD
ATOM      9  H   UNL     1      -5.064  -1.007 -18.953  0.00  0.00    +0.159 HD
ENDROOT
BRANCH   1  10
ATOM     10  C   UNL     1      -5.698  -3.824 -21.551  0.00  0.00    +0.151 C 
BRANCH  10  11
ATOM     11  C   UNL     1      -4.731  -3.918 -22.698  0.00  0.00    -0.028 A 
ATOM     12  C   UNL     1      -5.107  -3.499 -23.983  0.00  0.00    +0.005 A 
ATOM     13  C   UNL     1      -3.435  -4.420 -22.506  0.00  0.00    +0.005 A 
ATOM     14  C   UNL     1      -4.199  -3.559 -25.043  0.00  0.00    +0.000 A 
ATOM     15  C   UNL     1      -2.531  -4.479 -23.567  0.00  0.00    +0.000 A 
ATOM     16  C   UNL     1      -2.913  -4.046 -24.835  0.00  0.00    +0.000 A 
ENDBRANCH  10  11
ENDBRANCH   1  10
TORSDOF 2
ENDMDL
MODEL 7
REMARK VINA RESULT:    -4.371     27.929     29.447
REMARK INTER + INTRA:          -5.044
REMARK INTER:                  -4.886
REMARK INTRA:                  -0.158
REMARK UNBOUND:                -0.162
REMARK  Name = 1550473
REMARK  2 active torsions:
REMARK  status: ('A' for Active; 'I' for Inactive)
REMARK    1  A    between atoms: N_1  and  C_4
REMARK    2  A    between atoms: C_4  and  C_5
REMARK                            x       y       z     vdW  Elec       q    Type
REMARK                         _______ _______ _______ _____ _____    ______ ____
ROOT
ATOM      1  N   UNL     1      13.578  14.051  18.094  0.00  0.00    -0.354 N 
ATOM      2  N   UNL     1      15.811  14.021  18.706  0.00  0.00    -0.372 N 
ATOM      3  N   UNL     1      14.305  15.102  20.058  0.00  0.00    -0.372 N 
ATOM      4  C   UNL     1      14.549  14.393  18.951  0.00  0.00    +0.166 C 
ATOM      5  H   UNL     1      13.832  13.540  17.257  0.00  0.00    +0.163 HD
ATOM      6  H   UNL     1      16.564  14.261  19.336  0.00  0.00    +0.159 HD
ATOM      7  H   UNL     1      16.056  13.470  17.892  0.00  0.00    +0.159 HD
ATOM      8  H   UNL     1      13.375  15.419  20.297  0.00  0.00    +0.159 HD
ATOM      9  H   UNL     1      15.047  15.362  20.695  0.00  0.00    +0.159 HD
ENDROOT
BRANCH   1  10
ATOM     10  C   UNL     1      12.163  14.361  18.295  0.00  0.00    +0.151 C 
BRANCH  10  11
ATOM     11  C   UNL     1      11.419  13.088  18.591  0.00  0.00    -0.028 A 
ATOM     12  C   UNL     1      11.541  12.467  19.843  0.00  0.00    +0.005 A 
ATOM     13  C   UNL     1      10.586  12.501  17.627  0.00  0.00    +0.005 A 
ATOM     14  C   UNL     1      10.827  11.301  20.129  0.00  0.00    +0.000 A 
ATOM     15  C   UNL     1       9.875  11.337  17.916  0.00  0.00    +0.000 A 
ATOM     16  C   UNL     1       9.994  10.738  19.168  0.00  0.00    +0.000 A 
ENDBRANCH  10  11
ENDBRANCH   1  10
TORSDOF 2
ENDMDL
MODEL 8
REMARK VINA RESULT:    -4.280     60.332     61.911
REMARK INTER + INTRA:          -4.943
REMARK INTER:                  -4.835
REMARK INTRA:                  -0.108
REMARK UNBOUND:                -0.162
REMARK  Name = 1550473
REMARK  2 active torsions:
REMARK  status: ('A' for Active; 'I' for Inactive)
REMARK    1  A    between atoms: N_1  and  C_4
REMARK    2  A    between atoms: C_4  and  C_5
REMARK                            x       y       z     vdW  Elec       q    Type
REMARK                         _______ _______ _______ _____ _____    ______ ____
ROOT
ATOM      1  N   UNL     1      -4.106 -20.057 -27.398  0.00  0.00    -0.354 N 
ATOM      2  N   UNL     1      -5.196 -18.567 -28.796  0.00  0.00    -0.372 N 
ATOM      3  N   UNL     1      -5.776 -20.786 -28.872  0.00  0.00    -0.372 N 
ATOM      4  C   UNL     1      -5.020 -19.816 -28.347  0.00  0.00    +0.166 C 
ATOM      5  H   UNL     1      -3.544 -19.284 -27.062  0.00  0.00    +0.163 HD
ATOM      6  H   UNL     1      -5.880 -18.353 -29.509  0.00  0.00    +0.159 HD
ATOM      7  H   UNL     1      -4.665 -17.788 -28.426  0.00  0.00    +0.159 HD
ATOM      8  H   UNL     1      -5.688 -21.750 -28.581  0.00  0.00    +0.159 HD
ATOM      9  H   UNL     1      -6.458 -20.594 -29.595  0.00  0.00    +0.159 HD
ENDROOT
BRANCH   1  10
ATOM     10  C   UNL     1      -3.874 -21.372 -26.802  0.00  0.00    +0.151 C 
BRANCH  10  11
ATOM     11  C   UNL     1      -3.395 -21.193 -25.388  0.00  0.00    -0.028 A 
ATOM     12  C   UNL     1      -2.051 -21.420 -25.058  0.00  0.00    +0.005 A 
ATOM     13  C   UNL     1      -4.279 -20.792 -24.375  0.00  0.00    +0.005 A 
ATOM     14  C   UNL     1      -1.599 -21.225 -23.750  0.00  0.00    +0.000 A 
ATOM     15  C   UNL     1      -3.824 -20.599 -23.071  0.00  0.00    +0.000 A 
ATOM     16  C   UNL     1      -2.484 -20.813 -22.759  0.00  0.00    +0.000 A 
ENDBRANCH  10  11
ENDBRANCH   1  10
TORSDOF 2
ENDMDL
MODEL 9
REMARK VINA RESULT:    -4.200     21.883     23.247
REMARK INTER + INTRA:          -4.853
REMARK INTER:                  -4.718
REMARK INTRA:                  -0.135
REMARK UNBOUND:                -0.162
REMARK  Name = 1550473
REMARK  2 active torsions:
REMARK  status: ('A' for Active; 'I' for Inactive)
REMARK    1  A    between atoms: N_1  and  C_4
REMARK    2  A    between atoms: C_4  and  C_5
REMARK                            x       y       z     vdW  Elec       q    Type
REMARK                         _______ _______ _______ _____ _____    ______ ____
ROOT
ATOM      1  N   UNL     1     -10.782   7.640   8.439  0.00  0.00    -0.354 N 
ATOM      2  N   UNL     1     -12.812   6.526   8.377  0.00  0.00    -0.372 N 
ATOM      3  N   UNL     1     -12.615   8.401   9.686  0.00  0.00    -0.372 N 
ATOM      4  C   UNL     1     -12.057   7.531   8.836  0.00  0.00    +0.166 C 
ATOM      5  H   UNL     1     -10.410   6.932   7.817  0.00  0.00    +0.163 HD
ATOM      6  H   UNL     1     -13.778   6.420   8.657  0.00  0.00    +0.159 HD
ATOM      7  H   UNL     1     -12.450   5.845   7.720  0.00  0.00    +0.159 HD
ATOM      8  H   UNL     1     -12.098   9.178  10.073  0.00  0.00    +0.159 HD
ATOM      9  H   UNL     1     -13.577   8.305   9.986  0.00  0.00    +0.159 HD
ENDROOT
BRANCH   1  10
ATOM     10  C   UNL     1      -9.892   8.729   8.838  0.00  0.00    +0.151 C 
BRANCH  10  11
ATOM     11  C   UNL     1      -9.078   9.158   7.648  0.00  0.00    -0.028 A 
ATOM     12  C   UNL     1      -8.306  10.328   7.699  0.00  0.00    +0.005 A 
ATOM     13  C   UNL     1      -9.071   8.397   6.469  0.00  0.00    +0.005 A 
ATOM     14  C   UNL     1      -7.527  10.712   6.604  0.00  0.00    +0.000 A 
ATOM     15  C   UNL     1      -8.292   8.784   5.379  0.00  0.00    +0.000 A 
ATOM     16  C   UNL     1      -7.518   9.940   5.448  0.00  0.00    +0.000 A 
ENDBRANCH  10  11
ENDBRANCH   1  10
TORSDOF 2
ENDMDL
