MODEL 1
REMARK VINA RESULT:    -6.241      0.000      0.000
REMARK INTER + INTRA:          -7.102
REMARK INTER:                  -6.970
REMARK INTRA:                  -0.132
REMARK UNBOUND:                -0.132
REMARK  Name = 1550473
REMARK  2 active torsions:
REMARK  status: ('A' for Active; 'I' for Inactive)
REMARK    1  A    between atoms: N_1  and  C_4
REMARK    2  A    between atoms: C_4  and  C_5
REMARK                            x       y       z     vdW  Elec       q    Type
REMARK                         _______ _______ _______ _____ _____    ______ ____
ROOT
ATOM      1  N   UNL     1     -11.235  -8.738  -6.112  0.00  0.00    -0.354 N 
ATOM      2  N   UNL     1     -13.000  -9.071  -4.650  0.00  0.00    -0.372 N 
ATOM      3  N   UNL     1     -12.587  -6.952  -5.427  0.00  0.00    -0.372 N 
ATOM      4  C   UNL     1     -12.263  -8.249  -5.406  0.00  0.00    +0.166 C 
ATOM      5  H   UNL     1     -11.022  -9.726  -6.030  0.00  0.00    +0.163 HD
ATOM      6  H   UNL     1     -13.784  -8.731  -4.110  0.00  0.00    +0.159 HD
ATOM      7  H   UNL     1     -12.813 -10.065  -4.606  0.00  0.00    +0.159 HD
ATOM      8  H   UNL     1     -12.067  -6.278  -5.972  0.00  0.00    +0.159 HD
ATOM      9  H   UNL     1     -13.361  -6.590  -4.883  0.00  0.00    +0.159 HD
ENDROOT
BRANCH   1  10
ATOM     10  C   UNL     1     -10.402  -7.937  -7.007  0.00  0.00    +0.151 C 
BRANCH  10  11
ATOM     11  C   UNL     1      -9.275  -7.330  -6.218  0.00  0.00    -0.028 A 
ATOM     12  C   UNL     1      -8.461  -8.133  -5.406  0.00  0.00    +0.005 A 
ATOM     13  C   UNL     1      -9.013  -5.953  -6.283  0.00  0.00    +0.005 A 
ATOM     14  C   UNL     1      -7.395  -7.574  -4.697  0.00  0.00    +0.000 A 
ATOM     15  C   UNL     1      -7.949  -5.398  -5.572  0.00  0.00    +0.000 A 
ATOM     16  C   UNL     1      -7.139  -6.210  -4.781  0.00  0.00    +0.000 A 
ENDBRANCH  10  11
ENDBRANCH   1  10
TORSDOF 2
ENDMDL
MODEL 2
REMARK VINA RESULT:    -5.802      3.202      4.703
REMARK INTER + INTRA:          -6.612
REMARK INTER:                  -6.520
REMARK INTRA:                  -0.092
REMARK UNBOUND:                -0.132
REMARK  Name = 1550473
REMARK  2 active torsions:
REMARK  status: ('A' for Active; 'I' for Inactive)
REMARK    1  A    between atoms: N_1  and  C_4
REMARK    2  A    between atoms: C_4  and  C_5
REMARK                            x       y       z     vdW  Elec       q    Type
REMARK                         _______ _______ _______ _____ _____    ______ ____
ROOT
ATOM      1  N   UNL     1      -7.718  -6.326  -5.785  0.00  0.00    -0.354 N 
ATOM      2  N   UNL     1      -8.102  -8.610  -5.783  0.00  0.00    -0.372 N 
ATOM      3  N   UNL     1      -7.483  -7.588  -3.824  0.00  0.00    -0.372 N 
ATOM      4  C   UNL     1      -7.765  -7.493  -5.128  0.00  0.00    +0.166 C 
ATOM      5  H   UNL     1      -7.913  -6.326  -6.780  0.00  0.00    +0.163 HD
ATOM      6  H   UNL     1      -8.149  -9.504  -5.313  0.00  0.00    +0.159 HD
ATOM      7  H   UNL     1      -8.341  -8.600  -6.767  0.00  0.00    +0.159 HD
ATOM      8  H   UNL     1      -7.216  -6.782  -3.274  0.00  0.00    +0.159 HD
ATOM      9  H   UNL     1      -7.513  -8.475  -3.339  0.00  0.00    +0.159 HD
ENDROOT
BRANCH   1  10
ATOM     10  C   UNL     1      -7.414  -5.043  -5.154  0.00  0.00    +0.151 C 
BRANCH  10  11
ATOM     11  C   UNL     1      -7.597  -3.944  -6.163  0.00  0.00    -0.028 A 
ATOM     12  C   UNL     1      -6.499  -3.444  -6.878  0.00  0.00    +0.005 A 
ATOM     13  C   UNL     1      -8.867  -3.400  -6.413  0.00  0.00    +0.005 A 
ATOM     14  C   UNL     1      -6.672  -2.443  -7.837  0.00  0.00    +0.000 A 
ATOM     15  C   UNL     1      -9.036  -2.401  -7.371  0.00  0.00    +0.000 A 
ATOM     16  C   UNL     1      -7.939  -1.924  -8.084  0.00  0.00    +0.000 A 
ENDBRANCH  10  11
ENDBRANCH   1  10
TORSDOF 2
ENDMDL
MODEL 3
REMARK VINA RESULT:    -5.783      4.173      5.445
REMARK INTER + INTRA:          -6.591
REMARK INTER:                  -6.423
REMARK INTRA:                  -0.168
REMARK UNBOUND:                -0.132
REMARK  Name = 1550473
REMARK  2 active torsions:
REMARK  status: ('A' for Active; 'I' for Inactive)
REMARK    1  A    between atoms: N_1  and  C_4
REMARK    2  A    between atoms: C_4  and  C_5
REMARK                            x       y       z     vdW  Elec       q    Type
REMARK                         _______ _______ _______ _____ _____    ______ ____
ROOT
ATOM      1  N   UNL     1      -8.017  -3.238  -7.274  0.00  0.00    -0.354 N 
ATOM      2  N   UNL     1      -6.337  -2.058  -8.347  0.00  0.00    -0.372 N 
ATOM      3  N   UNL     1      -6.656  -1.736  -6.098  0.00  0.00    -0.372 N 
ATOM      4  C   UNL     1      -7.014  -2.350  -7.230  0.00  0.00    +0.166 C 
ATOM      5  H   UNL     1      -8.259  -3.647  -8.170  0.00  0.00    +0.163 HD
ATOM      6  H   UNL     1      -5.574  -1.395  -8.344  0.00  0.00    +0.159 HD
ATOM      7  H   UNL     1      -6.551  -2.502  -9.232  0.00  0.00    +0.159 HD
ATOM      8  H   UNL     1      -7.131  -1.908  -5.222  0.00  0.00    +0.159 HD
ATOM      9  H   UNL     1      -5.902  -1.060  -6.077  0.00  0.00    +0.159 HD
ENDROOT
BRANCH   1  10
ATOM     10  C   UNL     1      -8.781  -3.667  -6.105  0.00  0.00    +0.151 C 
BRANCH  10  11
ATOM     11  C   UNL     1      -8.465  -5.107  -5.812  0.00  0.00    -0.028 A 
ATOM     12  C   UNL     1      -9.343  -6.125  -6.212  0.00  0.00    +0.005 A 
ATOM     13  C   UNL     1      -7.285  -5.462  -5.139  0.00  0.00    +0.005 A 
ATOM     14  C   UNL     1      -9.034  -7.465  -5.967  0.00  0.00    +0.000 A 
ATOM     15  C   UNL     1      -6.981  -6.801  -4.895  0.00  0.00    +0.000 A 
ATOM     16  C   UNL     1      -7.855  -7.802  -5.311  0.00  0.00    +0.000 A 
ENDBRANCH  10  11
ENDBRANCH   1  10
TORSDOF 2
ENDMDL
MODEL 4
REMARK VINA RESULT:    -5.610      4.647      6.151
REMARK INTER + INTRA:          -6.397
REMARK INTER:                  -6.299
REMARK INTRA:                  -0.099
REMARK UNBOUND:                -0.132
REMARK  Name = 1550473
REMARK  2 active torsions:
REMARK  status: ('A' for Active; 'I' for Inactive)
REMARK    1  A    between atoms: N_1  and  C_4
REMARK    2  A    between atoms: C_4  and  C_5
REMARK                            x       y       z     vdW  Elec       q    Type
REMARK                         _______ _______ _______ _____ _____    ______ ____
ROOT
ATOM      1  N   UNL     1      -6.047  -5.090  -6.076  0.00  0.00    -0.354 N 
ATOM      2  N   UNL     1      -4.358  -6.652  -5.804  0.00  0.00    -0.372 N 
ATOM      3  N   UNL     1      -6.054  -6.571  -4.260  0.00  0.00    -0.372 N 
ATOM      4  C   UNL     1      -5.499  -6.095  -5.379  0.00  0.00    +0.166 C 
ATOM      5  H   UNL     1      -5.561  -4.755  -6.900  0.00  0.00    +0.163 HD
ATOM      6  H   UNL     1      -3.923  -7.414  -5.301  0.00  0.00    +0.159 HD
ATOM      7  H   UNL     1      -3.899  -6.346  -6.653  0.00  0.00    +0.159 HD
ATOM      8  H   UNL     1      -6.911  -6.190  -3.883  0.00  0.00    +0.159 HD
ATOM      9  H   UNL     1      -5.627  -7.325  -3.736  0.00  0.00    +0.159 HD
ENDROOT
BRANCH   1  10
ATOM     10  C   UNL     1      -7.314  -4.450  -5.729  0.00  0.00    +0.151 C 
BRANCH  10  11
ATOM     11  C   UNL     1      -7.529  -3.265  -6.629  0.00  0.00    -0.028 A 
ATOM     12  C   UNL     1      -8.599  -3.245  -7.535  0.00  0.00    +0.005 A 
ATOM     13  C   UNL     1      -6.670  -2.157  -6.576  0.00  0.00    +0.005 A 
ATOM     14  C   UNL     1      -8.817  -2.131  -8.351  0.00  0.00    +0.000 A 
ATOM     15  C   UNL     1      -6.890  -1.048  -7.393  0.00  0.00    +0.000 A 
ATOM     16  C   UNL     1      -7.965  -1.034  -8.278  0.00  0.00    +0.000 A 
ENDBRANCH  10  11
ENDBRANCH   1  10
TORSDOF 2
ENDMDL
MODEL 5
REMARK VINA RESULT:    -5.559      7.297      8.422
REMARK INTER + INTRA:          -6.341
REMARK INTER:                  -6.188
REMARK INTRA:                  -0.153
REMARK UNBOUND:                -0.132
REMARK  Name = 1550473
REMARK  2 active torsions:
REMARK  status: ('A' for Active; 'I' for Inactive)
REMARK    1  A    between atoms: N_1  and  C_4
REMARK    2  A    between atoms: C_4  and  C_5
REMARK                            x       y       z     vdW  Elec       q    Type
REMARK                         _______ _______ _______ _____ _____    ______ ____
ROOT
ATOM      1  N   UNL     1      -7.670  -1.712  -8.069  0.00  0.00    -0.354 N 
ATOM      2  N   UNL     1      -6.453  -1.844  -6.102  0.00  0.00    -0.372 N 
ATOM      3  N   UNL     1      -6.591   0.172  -7.188  0.00  0.00    -0.372 N 
ATOM      4  C   UNL     1      -6.912  -1.125  -7.133  0.00  0.00    +0.166 C 
ATOM      5  H   UNL     1      -7.852  -2.706  -7.986  0.00  0.00    +0.163 HD
ATOM      6  H   UNL     1      -5.882  -1.428  -5.379  0.00  0.00    +0.159 HD
ATOM      7  H   UNL     1      -6.675  -2.827  -5.998  0.00  0.00    +0.159 HD
ATOM      8  H   UNL     1      -6.900   0.769  -7.943  0.00  0.00    +0.159 HD
ATOM      9  H   UNL     1      -6.010   0.605  -6.480  0.00  0.00    +0.159 HD
ENDROOT
BRANCH   1  10
ATOM     10  C   UNL     1      -8.263  -1.006  -9.203  0.00  0.00    +0.151 C 
BRANCH  10  11
ATOM     11  C   UNL     1      -7.736  -1.598 -10.481  0.00  0.00    -0.028 A 
ATOM     12  C   UNL     1      -6.362  -1.577 -10.761  0.00  0.00    +0.005 A 
ATOM     13  C   UNL     1      -8.605  -2.186 -11.413  0.00  0.00    +0.005 A 
ATOM     14  C   UNL     1      -5.868  -2.153 -11.934  0.00  0.00    +0.000 A 
ATOM     15  C   UNL     1      -8.108  -2.759 -12.583  0.00  0.00    +0.000 A 
ATOM     16  C   UNL     1      -6.739  -2.745 -12.842  0.00  0.00    +0.000 A 
ENDBRANCH  10  11
ENDBRANCH   1  10
TORSDOF 2
ENDMDL
MODEL 6
REMARK VINA RESULT:    -5.046     12.952     14.516
REMARK INTER + INTRA:          -5.768
REMARK INTER:                  -5.657
REMARK INTRA:                  -0.110
REMARK UNBOUND:                -0.132
REMARK  Name = 1550473
REMARK  2 active torsions:
REMARK  status: ('A' for Active; 'I' for Inactive)
REMARK    1  A    between atoms: N_1  and  C_4
REMARK    2  A    between atoms: C_4  and  C_5
REMARK                            x       y       z     vdW  Elec       q    Type
REMARK                         _______ _______ _______ _____ _____    ______ ____
ROOT
ATOM      1  N   UNL     1      -6.844   4.019 -10.271  0.00  0.00    -0.354 N 
ATOM      2  N   UNL     1      -8.053   2.044 -10.280  0.00  0.00    -0.372 N 
ATOM      3  N   UNL     1      -5.761   1.942 -10.338  0.00  0.00    -0.372 N 
ATOM      4  C   UNL     1      -6.875   2.680 -10.297  0.00  0.00    +0.166 C 
ATOM      5  H   UNL     1      -7.724   4.522 -10.271  0.00  0.00    +0.163 HD
ATOM      6  H   UNL     1      -8.108   1.034 -10.295  0.00  0.00    +0.159 HD
ATOM      7  H   UNL     1      -8.930   2.548 -10.233  0.00  0.00    +0.159 HD
ATOM      8  H   UNL     1      -4.841   2.362 -10.358  0.00  0.00    +0.159 HD
ATOM      9  H   UNL     1      -5.796   0.931 -10.365  0.00  0.00    +0.159 HD
ENDROOT
BRANCH   1  10
ATOM     10  C   UNL     1      -5.614   4.808 -10.232  0.00  0.00    +0.151 C 
BRANCH  10  11
ATOM     11  C   UNL     1      -5.967   6.269 -10.204  0.00  0.00    -0.028 A 
ATOM     12  C   UNL     1      -6.988   6.771 -11.026  0.00  0.00    +0.005 A 
ATOM     13  C   UNL     1      -5.290   7.157  -9.354  0.00  0.00    +0.005 A 
ATOM     14  C   UNL     1      -7.337   8.123 -10.978  0.00  0.00    +0.000 A 
ATOM     15  C   UNL     1      -5.641   8.506  -9.310  0.00  0.00    +0.000 A 
ATOM     16  C   UNL     1      -6.666   8.988 -10.120  0.00  0.00    +0.000 A 
ENDBRANCH  10  11
ENDBRANCH   1  10
TORSDOF 2
ENDMDL
MODEL 7
REMARK VINA RESULT:    -4.953     30.065     31.818
REMARK INTER + INTRA:          -5.664
REMARK INTER:                  -5.548
REMARK INTRA:                  -0.116
REMARK UNBOUND:                -0.132
REMARK  Name = 1550473
REMARK  2 active torsions:
REMARK  status: ('A' for Active; 'I' for Inactive)
REMARK    1  A    between atoms: N_1  and  C_4
REMARK    2  A    between atoms: C_4  and  C_5
REMARK                            x       y       z     vdW  Elec       q    Type
REMARK                         _______ _______ _______ _____ _____    ______ ____
ROOT
ATOM      1  N   UNL     1      18.538   0.218   2.188  0.00  0.00    -0.354 N 
ATOM      2  N   UNL     1      17.593  -1.895   2.250  0.00  0.00    -0.372 N 
ATOM      3  N   UNL     1      16.655  -0.299   0.893  0.00  0.00    -0.372 N 
ATOM      4  C   UNL     1      17.600  -0.643   1.775  0.00  0.00    +0.166 C 
ATOM      5  H   UNL     1      19.209  -0.095   2.880  0.00  0.00    +0.163 HD
ATOM      6  H   UNL     1      16.899  -2.568   1.954  0.00  0.00    +0.159 HD
ATOM      7  H   UNL     1      18.291  -2.219   2.907  0.00  0.00    +0.159 HD
ATOM      8  H   UNL     1      16.601   0.631   0.501  0.00  0.00    +0.159 HD
ATOM      9  H   UNL     1      15.945  -0.956   0.594  0.00  0.00    +0.159 HD
ENDROOT
BRANCH   1  10
ATOM     10  C   UNL     1      18.667   1.587   1.691  0.00  0.00    +0.151 C 
BRANCH  10  11
ATOM     11  C   UNL     1      19.871   2.228   2.324  0.00  0.00    -0.028 A 
ATOM     12  C   UNL     1      20.563   3.253   1.661  0.00  0.00    +0.005 A 
ATOM     13  C   UNL     1      20.323   1.820   3.588  0.00  0.00    +0.005 A 
ATOM     14  C   UNL     1      21.664   3.869   2.261  0.00  0.00    +0.000 A 
ATOM     15  C   UNL     1      21.423   2.437   4.183  0.00  0.00    +0.000 A 
ATOM     16  C   UNL     1      22.091   3.463   3.520  0.00  0.00    +0.000 A 
ENDBRANCH  10  11
ENDBRANCH   1  10
TORSDOF 2
ENDMDL
MODEL 8
REMARK VINA RESULT:    -4.871      7.818      8.909
REMARK INTER + INTRA:          -5.572
REMARK INTER:                  -5.409
REMARK INTRA:                  -0.163
REMARK UNBOUND:                -0.132
REMARK  Name = 1550473
REMARK  2 active torsions:
REMARK  status: ('A' for Active; 'I' for Inactive)
REMARK    1  A    between atoms: N_1  and  C_4
REMARK    2  A    between atoms: C_4  and  C_5
REMARK                            x       y       z     vdW  Elec       q    Type
REMARK                         _______ _______ _______ _____ _____    ______ ____
ROOT
ATOM      1  N   UNL     1      -8.085   0.277  -9.155  0.00  0.00    -0.354 N 
ATOM      2  N   UNL     1      -9.389   2.182  -8.969  0.00  0.00    -0.372 N 
ATOM      3  N   UNL     1     -10.351   0.137  -8.575  0.00  0.00    -0.372 N 
ATOM      4  C   UNL     1      -9.268   0.851  -8.900  0.00  0.00    +0.166 C 
ATOM      5  H   UNL     1      -7.310   0.871  -9.426  0.00  0.00    +0.163 HD
ATOM      6  H   UNL     1     -10.268   2.644  -8.779  0.00  0.00    +0.159 HD
ATOM      7  H   UNL     1      -8.601   2.777  -9.195  0.00  0.00    +0.159 HD
ATOM      8  H   UNL     1     -10.328  -0.872  -8.512  0.00  0.00    +0.159 HD
ATOM      9  H   UNL     1     -11.243   0.579  -8.393  0.00  0.00    +0.159 HD
ENDROOT
BRANCH   1  10
ATOM     10  C   UNL     1      -7.835  -1.160  -9.055  0.00  0.00    +0.151 C 
BRANCH  10  11
ATOM     11  C   UNL     1      -7.526  -1.701 -10.424  0.00  0.00    -0.028 A 
ATOM     12  C   UNL     1      -6.211  -1.696 -10.912  0.00  0.00    +0.005 A 
ATOM     13  C   UNL     1      -8.544  -2.225 -11.236  0.00  0.00    +0.005 A 
ATOM     14  C   UNL     1      -5.920  -2.226 -12.171  0.00  0.00    +0.000 A 
ATOM     15  C   UNL     1      -8.249  -2.753 -12.493  0.00  0.00    +0.000 A 
ATOM     16  C   UNL     1      -6.936  -2.755 -12.959  0.00  0.00    +0.000 A 
ENDBRANCH  10  11
ENDBRANCH   1  10
TORSDOF 2
ENDMDL
MODEL 9
REMARK VINA RESULT:    -4.813     19.015     20.301
REMARK INTER + INTRA:          -5.508
REMARK INTER:                  -5.372
REMARK INTRA:                  -0.135
REMARK UNBOUND:                -0.132
REMARK  Name = 1550473
REMARK  2 active torsions:
REMARK  status: ('A' for Active; 'I' for Inactive)
REMARK    1  A    between atoms: N_1  and  C_4
REMARK    2  A    between atoms: C_4  and  C_5
REMARK                            x       y       z     vdW  Elec       q    Type
REMARK                         _______ _______ _______ _____ _____    ______ ____
ROOT
ATOM      1  N   UNL     1      -7.166  13.069  -7.790  0.00  0.00    -0.354 N 
ATOM      2  N   UNL     1      -9.381  13.581  -7.348  0.00  0.00    -0.372 N 
ATOM      3  N   UNL     1      -8.174  14.969  -8.719  0.00  0.00    -0.372 N 
ATOM      4  C   UNL     1      -8.225  13.872  -7.957  0.00  0.00    +0.166 C 
ATOM      5  H   UNL     1      -7.261  12.268  -7.175  0.00  0.00    +0.163 HD
ATOM      6  H   UNL     1     -10.198  14.167  -7.458  0.00  0.00    +0.159 HD
ATOM      7  H   UNL     1      -9.487  12.756  -6.771  0.00  0.00    +0.159 HD
ATOM      8  H   UNL     1      -7.329  15.248  -9.201  0.00  0.00    +0.159 HD
ATOM      9  H   UNL     1      -8.978  15.574  -8.832  0.00  0.00    +0.159 HD
ENDROOT
BRANCH   1  10
ATOM     10  C   UNL     1      -5.878  13.266  -8.451  0.00  0.00    +0.151 C 
BRANCH  10  11
ATOM     11  C   UNL     1      -5.367  11.939  -8.939  0.00  0.00    -0.028 A 
ATOM     12  C   UNL     1      -4.002  11.628  -8.860  0.00  0.00    +0.005 A 
ATOM     13  C   UNL     1      -6.244  10.985  -9.477  0.00  0.00    +0.005 A 
ATOM     14  C   UNL     1      -3.531  10.384  -9.285  0.00  0.00    +0.000 A 
ATOM     15  C   UNL     1      -5.770   9.743  -9.901  0.00  0.00    +0.000 A 
ATOM     16  C   UNL     1      -4.414   9.442  -9.803  0.00  0.00    +0.000 A 
ENDBRANCH  10  11
ENDBRANCH   1  10
TORSDOF 2
ENDMDL
