MODEL 1
REMARK VINA RESULT:    -6.004      0.000      0.000
REMARK INTER + INTRA:          -6.847
REMARK INTER:                  -6.705
REMARK INTRA:                  -0.141
REMARK UNBOUND:                -0.141
REMARK  Name = 1550473
REMARK  2 active torsions:
REMARK  status: ('A' for Active; 'I' for Inactive)
REMARK    1  A    between atoms: N_1  and  C_4
REMARK    2  A    between atoms: C_4  and  C_5
REMARK                            x       y       z     vdW  Elec       q    Type
REMARK                         _______ _______ _______ _____ _____    ______ ____
ROOT
ATOM      1  N   UNL     1      -2.468 -10.430  -3.722  0.00  0.00    -0.354 N 
ATOM      2  N   UNL     1      -1.703  -8.708  -5.069  0.00  0.00    -0.372 N 
ATOM      3  N   UNL     1      -3.190 -10.221  -5.942  0.00  0.00    -0.372 N 
ATOM      4  C   UNL     1      -2.460  -9.799  -4.904  0.00  0.00    +0.166 C 
ATOM      5  H   UNL     1      -1.869 -10.077  -2.984  0.00  0.00    +0.163 HD
ATOM      6  H   UNL     1      -1.680  -8.209  -5.948  0.00  0.00    +0.159 HD
ATOM      7  H   UNL     1      -1.141  -8.331  -4.316  0.00  0.00    +0.159 HD
ATOM      8  H   UNL     1      -3.778 -11.042  -5.884  0.00  0.00    +0.159 HD
ATOM      9  H   UNL     1      -3.171  -9.742  -6.833  0.00  0.00    +0.159 HD
ENDROOT
BRANCH   1  10
ATOM     10  C   UNL     1      -3.298 -11.595  -3.423  0.00  0.00    +0.151 C 
BRANCH  10  11
ATOM     11  C   UNL     1      -4.070 -11.336  -2.158  0.00  0.00    -0.028 A 
ATOM     12  C   UNL     1      -5.003 -10.291  -2.095  0.00  0.00    +0.005 A 
ATOM     13  C   UNL     1      -3.877 -12.136  -1.021  0.00  0.00    +0.005 A 
ATOM     14  C   UNL     1      -5.742 -10.069  -0.930  0.00  0.00    +0.000 A 
ATOM     15  C   UNL     1      -4.616 -11.911   0.140  0.00  0.00    +0.000 A 
ATOM     16  C   UNL     1      -5.550 -10.879   0.184  0.00  0.00    +0.000 A 
ENDBRANCH  10  11
ENDBRANCH   1  10
TORSDOF 2
ENDMDL
MODEL 2
REMARK VINA RESULT:    -5.721      4.596      5.976
REMARK INTER + INTRA:          -6.531
REMARK INTER:                  -6.426
REMARK INTRA:                  -0.105
REMARK UNBOUND:                -0.141
REMARK  Name = 1550473
REMARK  2 active torsions:
REMARK  status: ('A' for Active; 'I' for Inactive)
REMARK    1  A    between atoms: N_1  and  C_4
REMARK    2  A    between atoms: C_4  and  C_5
REMARK                            x       y       z     vdW  Elec       q    Type
REMARK                         _______ _______ _______ _____ _____    ______ ____
ROOT
ATOM      1  N   UNL     1      -8.167  -9.687   0.187  0.00  0.00    -0.354 N 
ATOM      2  N   UNL     1     -10.432  -9.271  -0.059  0.00  0.00    -0.372 N 
ATOM      3  N   UNL     1      -9.458  -8.928   1.990  0.00  0.00    -0.372 N 
ATOM      4  C   UNL     1      -9.337  -9.298   0.710  0.00  0.00    +0.166 C 
ATOM      5  H   UNL     1      -8.148  -9.984  -0.782  0.00  0.00    +0.163 HD
ATOM      6  H   UNL     1     -11.328  -8.978   0.307  0.00  0.00    +0.159 HD
ATOM      7  H   UNL     1     -10.401  -9.524  -1.039  0.00  0.00    +0.159 HD
ATOM      8  H   UNL     1      -8.671  -8.932   2.625  0.00  0.00    +0.159 HD
ATOM      9  H   UNL     1     -10.349  -8.644   2.378  0.00  0.00    +0.159 HD
ENDROOT
BRANCH   1  10
ATOM     10  C   UNL     1      -6.905  -9.701   0.926  0.00  0.00    +0.151 C 
BRANCH  10  11
ATOM     11  C   UNL     1      -5.881 -10.464   0.133  0.00  0.00    -0.028 A 
ATOM     12  C   UNL     1      -5.681 -10.186  -1.227  0.00  0.00    +0.005 A 
ATOM     13  C   UNL     1      -5.102 -11.463   0.737  0.00  0.00    +0.005 A 
ATOM     14  C   UNL     1      -4.708 -10.874  -1.957  0.00  0.00    +0.000 A 
ATOM     15  C   UNL     1      -4.132 -12.148   0.005  0.00  0.00    +0.000 A 
ATOM     16  C   UNL     1      -3.934 -11.851  -1.341  0.00  0.00    +0.000 A 
ENDBRANCH  10  11
ENDBRANCH   1  10
TORSDOF 2
ENDMDL
MODEL 3
REMARK VINA RESULT:    -5.070      5.200      6.770
REMARK INTER + INTRA:          -5.804
REMARK INTER:                  -5.688
REMARK INTRA:                  -0.117
REMARK UNBOUND:                -0.141
REMARK  Name = 1550473
REMARK  2 active torsions:
REMARK  status: ('A' for Active; 'I' for Inactive)
REMARK    1  A    between atoms: N_1  and  C_4
REMARK    2  A    between atoms: C_4  and  C_5
REMARK                            x       y       z     vdW  Elec       q    Type
REMARK                         _______ _______ _______ _____ _____    ______ ____
ROOT
ATOM      1  N   UNL     1      -8.496  -9.319   0.823  0.00  0.00    -0.354 N 
ATOM      2  N   UNL     1     -10.504  -9.202  -0.327  0.00  0.00    -0.372 N 
ATOM      3  N   UNL     1     -10.535  -9.151   1.967  0.00  0.00    -0.372 N 
ATOM      4  C   UNL     1      -9.833  -9.225   0.831  0.00  0.00    +0.166 C 
ATOM      5  H   UNL     1      -8.025  -9.402  -0.071  0.00  0.00    +0.163 HD
ATOM      6  H   UNL     1     -11.512  -9.129  -0.352  0.00  0.00    +0.159 HD
ATOM      7  H   UNL     1     -10.027  -9.239  -1.219  0.00  0.00    +0.159 HD
ATOM      8  H   UNL     1     -10.089  -9.169   2.874  0.00  0.00    +0.159 HD
ATOM      9  H   UNL     1     -11.545  -9.088   1.963  0.00  0.00    +0.159 HD
ENDROOT
BRANCH   1  10
ATOM     10  C   UNL     1      -7.668  -9.297   2.027  0.00  0.00    +0.151 C 
BRANCH  10  11
ATOM     11  C   UNL     1      -6.597 -10.346   1.906  0.00  0.00    -0.028 A 
ATOM     12  C   UNL     1      -6.395 -11.279   2.933  0.00  0.00    +0.005 A 
ATOM     13  C   UNL     1      -5.786 -10.416   0.763  0.00  0.00    +0.005 A 
ATOM     14  C   UNL     1      -5.420 -12.272   2.808  0.00  0.00    +0.000 A 
ATOM     15  C   UNL     1      -4.814 -11.409   0.642  0.00  0.00    +0.000 A 
ATOM     16  C   UNL     1      -4.633 -12.338   1.663  0.00  0.00    +0.000 A 
ENDBRANCH  10  11
ENDBRANCH   1  10
TORSDOF 2
ENDMDL
MODEL 4
REMARK VINA RESULT:    -4.905      6.416      8.094
REMARK INTER + INTRA:          -5.620
REMARK INTER:                  -5.494
REMARK INTRA:                  -0.125
REMARK UNBOUND:                -0.141
REMARK  Name = 1550473
REMARK  2 active torsions:
REMARK  status: ('A' for Active; 'I' for Inactive)
REMARK    1  A    between atoms: N_1  and  C_4
REMARK    2  A    between atoms: C_4  and  C_5
REMARK                            x       y       z     vdW  Elec       q    Type
REMARK                         _______ _______ _______ _____ _____    ______ ____
ROOT
ATOM      1  N   UNL     1      -9.612  -9.382   2.676  0.00  0.00    -0.354 N 
ATOM      2  N   UNL     1     -11.831  -9.085   2.084  0.00  0.00    -0.372 N 
ATOM      3  N   UNL     1     -11.343 -10.005   4.128  0.00  0.00    -0.372 N 
ATOM      4  C   UNL     1     -10.915  -9.494   2.969  0.00  0.00    +0.166 C 
ATOM      5  H   UNL     1      -9.353  -9.015   1.768  0.00  0.00    +0.163 HD
ATOM      6  H   UNL     1     -12.821  -9.154   2.278  0.00  0.00    +0.159 HD
ATOM      7  H   UNL     1     -11.569  -8.676   1.195  0.00  0.00    +0.159 HD
ATOM      8  H   UNL     1     -10.702 -10.337   4.837  0.00  0.00    +0.159 HD
ATOM      9  H   UNL     1     -12.330 -10.092   4.337  0.00  0.00    +0.159 HD
ENDROOT
BRANCH   1  10
ATOM     10  C   UNL     1      -8.534  -9.748   3.593  0.00  0.00    +0.151 C 
BRANCH  10  11
ATOM     11  C   UNL     1      -7.327 -10.154   2.794  0.00  0.00    -0.028 A 
ATOM     12  C   UNL     1      -7.204  -9.778   1.448  0.00  0.00    +0.005 A 
ATOM     13  C   UNL     1      -6.299 -10.910   3.378  0.00  0.00    +0.005 A 
ATOM     14  C   UNL     1      -6.069 -10.130   0.714  0.00  0.00    +0.000 A 
ATOM     15  C   UNL     1      -5.167 -11.260   2.641  0.00  0.00    +0.000 A 
ATOM     16  C   UNL     1      -5.051 -10.867   1.310  0.00  0.00    +0.000 A 
ENDBRANCH  10  11
ENDBRANCH   1  10
TORSDOF 2
ENDMDL
MODEL 5
REMARK VINA RESULT:    -4.843     31.117     31.946
REMARK INTER + INTRA:          -5.550
REMARK INTER:                  -5.405
REMARK INTRA:                  -0.146
REMARK UNBOUND:                -0.141
REMARK  Name = 1550473
REMARK  2 active torsions:
REMARK  status: ('A' for Active; 'I' for Inactive)
REMARK    1  A    between atoms: N_1  and  C_4
REMARK    2  A    between atoms: C_4  and  C_5
REMARK                            x       y       z     vdW  Elec       q    Type
REMARK                         _______ _______ _______ _____ _____    ______ ____
ROOT
ATOM      1  N   UNL     1       2.545  13.447  16.519  0.00  0.00    -0.354 N 
ATOM      2  N   UNL     1       0.402  14.326  16.512  0.00  0.00    -0.372 N 
ATOM      3  N   UNL     1       1.025  12.911  14.817  0.00  0.00    -0.372 N 
ATOM      4  C   UNL     1       1.338  13.554  15.947  0.00  0.00    +0.166 C 
ATOM      5  H   UNL     1       2.729  13.984  17.358  0.00  0.00    +0.163 HD
ATOM      6  H   UNL     1      -0.519  14.424  16.106  0.00  0.00    +0.159 HD
ATOM      7  H   UNL     1       0.574  14.825  17.377  0.00  0.00    +0.159 HD
ATOM      8  H   UNL     1       1.688  12.317  14.337  0.00  0.00    +0.159 HD
ATOM      9  H   UNL     1       0.112  13.005  14.389  0.00  0.00    +0.159 HD
ENDROOT
BRANCH   1  10
ATOM     10  C   UNL     1       3.616  12.590  16.012  0.00  0.00    +0.151 C 
BRANCH  10  11
ATOM     11  C   UNL     1       4.862  13.414  15.838  0.00  0.00    -0.028 A 
ATOM     12  C   UNL     1       4.938  14.711  16.366  0.00  0.00    +0.005 A 
ATOM     13  C   UNL     1       5.972  12.900  15.150  0.00  0.00    +0.005 A 
ATOM     14  C   UNL     1       6.106  15.465  16.231  0.00  0.00    +0.000 A 
ATOM     15  C   UNL     1       7.137  13.657  15.016  0.00  0.00    +0.000 A 
ATOM     16  C   UNL     1       7.204  14.938  15.559  0.00  0.00    +0.000 A 
ENDBRANCH  10  11
ENDBRANCH   1  10
TORSDOF 2
ENDMDL
MODEL 6
REMARK VINA RESULT:    -4.826      4.879      6.154
REMARK INTER + INTRA:          -5.531
REMARK INTER:                  -5.370
REMARK INTRA:                  -0.161
REMARK UNBOUND:                -0.141
REMARK  Name = 1550473
REMARK  2 active torsions:
REMARK  status: ('A' for Active; 'I' for Inactive)
REMARK    1  A    between atoms: N_1  and  C_4
REMARK    2  A    between atoms: C_4  and  C_5
REMARK                            x       y       z     vdW  Elec       q    Type
REMARK                         _______ _______ _______ _____ _____    ______ ____
ROOT
ATOM      1  N   UNL     1      -5.314 -13.519   2.604  0.00  0.00    -0.354 N 
ATOM      2  N   UNL     1      -6.641 -15.406   2.806  0.00  0.00    -0.372 N 
ATOM      3  N   UNL     1      -4.921 -15.418   1.288  0.00  0.00    -0.372 N 
ATOM      4  C   UNL     1      -5.615 -14.770   2.229  0.00  0.00    +0.166 C 
ATOM      5  H   UNL     1      -5.897 -13.072   3.302  0.00  0.00    +0.163 HD
ATOM      6  H   UNL     1      -6.890 -16.351   2.546  0.00  0.00    +0.159 HD
ATOM      7  H   UNL     1      -7.194 -14.974   3.536  0.00  0.00    +0.159 HD
ATOM      8  H   UNL     1      -4.139 -14.991   0.810  0.00  0.00    +0.159 HD
ATOM      9  H   UNL     1      -5.162 -16.360   1.006  0.00  0.00    +0.159 HD
ENDROOT
BRANCH   1  10
ATOM     10  C   UNL     1      -4.183 -12.758   2.077  0.00  0.00    +0.151 C 
BRANCH  10  11
ATOM     11  C   UNL     1      -4.649 -11.934   0.907  0.00  0.00    -0.028 A 
ATOM     12  C   UNL     1      -5.528 -10.858   1.099  0.00  0.00    +0.005 A 
ATOM     13  C   UNL     1      -4.209 -12.221  -0.394  0.00  0.00    +0.005 A 
ATOM     14  C   UNL     1      -5.937 -10.075   0.018  0.00  0.00    +0.000 A 
ATOM     15  C   UNL     1      -4.621 -11.436  -1.472  0.00  0.00    +0.000 A 
ATOM     16  C   UNL     1      -5.482 -10.362  -1.265  0.00  0.00    +0.000 A 
ENDBRANCH  10  11
ENDBRANCH   1  10
TORSDOF 2
ENDMDL
MODEL 7
REMARK VINA RESULT:    -4.813      4.746      6.353
REMARK INTER + INTRA:          -5.516
REMARK INTER:                  -5.395
REMARK INTRA:                  -0.121
REMARK UNBOUND:                -0.141
REMARK  Name = 1550473
REMARK  2 active torsions:
REMARK  status: ('A' for Active; 'I' for Inactive)
REMARK    1  A    between atoms: N_1  and  C_4
REMARK    2  A    between atoms: C_4  and  C_5
REMARK                            x       y       z     vdW  Elec       q    Type
REMARK                         _______ _______ _______ _____ _____    ______ ____
ROOT
ATOM      1  N   UNL     1      -6.632 -10.582   2.331  0.00  0.00    -0.354 N 
ATOM      2  N   UNL     1      -7.883 -11.291   4.147  0.00  0.00    -0.372 N 
ATOM      3  N   UNL     1      -8.512  -9.380   3.045  0.00  0.00    -0.372 N 
ATOM      4  C   UNL     1      -7.669 -10.411   3.162  0.00  0.00    +0.166 C 
ATOM      5  H   UNL     1      -6.012 -11.367   2.492  0.00  0.00    +0.163 HD
ATOM      6  H   UNL     1      -8.659 -11.190   4.787  0.00  0.00    +0.159 HD
ATOM      7  H   UNL     1      -7.288 -12.101   4.276  0.00  0.00    +0.159 HD
ATOM      8  H   UNL     1      -8.403  -8.676   2.327  0.00  0.00    +0.159 HD
ATOM      9  H   UNL     1      -9.288  -9.255   3.683  0.00  0.00    +0.159 HD
ENDROOT
BRANCH   1  10
ATOM     10  C   UNL     1      -6.342  -9.710   1.194  0.00  0.00    +0.151 C 
BRANCH  10  11
ATOM     11  C   UNL     1      -5.556 -10.482   0.171  0.00  0.00    -0.028 A 
ATOM     12  C   UNL     1      -5.548 -10.080  -1.173  0.00  0.00    +0.005 A 
ATOM     13  C   UNL     1      -4.812 -11.614   0.540  0.00  0.00    +0.005 A 
ATOM     14  C   UNL     1      -4.793 -10.779  -2.118  0.00  0.00    +0.000 A 
ATOM     15  C   UNL     1      -4.061 -12.310  -0.407  0.00  0.00    +0.000 A 
ATOM     16  C   UNL     1      -4.050 -11.891  -1.735  0.00  0.00    +0.000 A 
ENDBRANCH  10  11
ENDBRANCH   1  10
TORSDOF 2
ENDMDL
MODEL 8
REMARK VINA RESULT:    -4.588      7.283      9.047
REMARK INTER + INTRA:          -5.266
REMARK INTER:                  -5.136
REMARK INTRA:                  -0.130
REMARK UNBOUND:                -0.141
REMARK  Name = 1550473
REMARK  2 active torsions:
REMARK  status: ('A' for Active; 'I' for Inactive)
REMARK    1  A    between atoms: N_1  and  C_4
REMARK    2  A    between atoms: C_4  and  C_5
REMARK                            x       y       z     vdW  Elec       q    Type
REMARK                         _______ _______ _______ _____ _____    ______ ____
ROOT
ATOM      1  N   UNL     1     -11.028  -9.945   2.664  0.00  0.00    -0.354 N 
ATOM      2  N   UNL     1     -12.704  -8.374   2.961  0.00  0.00    -0.372 N 
ATOM      3  N   UNL     1     -12.447 -10.032   4.526  0.00  0.00    -0.372 N 
ATOM      4  C   UNL     1     -12.049  -9.462   3.384  0.00  0.00    +0.166 C 
ATOM      5  H   UNL     1     -10.795  -9.485   1.791  0.00  0.00    +0.163 HD
ATOM      6  H   UNL     1     -13.476  -7.985   3.485  0.00  0.00    +0.159 HD
ATOM      7  H   UNL     1     -12.439  -7.890   2.112  0.00  0.00    +0.159 HD
ATOM      8  H   UNL     1     -11.999 -10.859   4.897  0.00  0.00    +0.159 HD
ATOM      9  H   UNL     1     -13.226  -9.664   5.059  0.00  0.00    +0.159 HD
ENDROOT
BRANCH   1  10
ATOM     10  C   UNL     1     -10.215 -11.092   3.064  0.00  0.00    +0.151 C 
BRANCH  10  11
ATOM     11  C   UNL     1      -8.775 -10.813   2.735  0.00  0.00    -0.028 A 
ATOM     12  C   UNL     1      -7.747 -11.501   3.397  0.00  0.00    +0.005 A 
ATOM     13  C   UNL     1      -8.431  -9.865   1.759  0.00  0.00    +0.005 A 
ATOM     14  C   UNL     1      -6.410 -11.263   3.070  0.00  0.00    +0.000 A 
ATOM     15  C   UNL     1      -7.095  -9.630   1.436  0.00  0.00    +0.000 A 
ATOM     16  C   UNL     1      -6.084 -10.331   2.091  0.00  0.00    +0.000 A 
ENDBRANCH  10  11
ENDBRANCH   1  10
TORSDOF 2
ENDMDL
MODEL 9
REMARK VINA RESULT:    -4.515     25.504     26.036
REMARK INTER + INTRA:          -5.184
REMARK INTER:                  -5.065
REMARK INTRA:                  -0.119
REMARK UNBOUND:                -0.141
REMARK  Name = 1550473
REMARK  2 active torsions:
REMARK  status: ('A' for Active; 'I' for Inactive)
REMARK    1  A    between atoms: N_1  and  C_4
REMARK    2  A    between atoms: C_4  and  C_5
REMARK                            x       y       z     vdW  Elec       q    Type
REMARK                         _______ _______ _______ _____ _____    ______ ____
ROOT
ATOM      1  N   UNL     1      16.450   2.326   8.412  0.00  0.00    -0.354 N 
ATOM      2  N   UNL     1      16.281   4.138   6.980  0.00  0.00    -0.372 N 
ATOM      3  N   UNL     1      17.407   4.393   8.963  0.00  0.00    -0.372 N 
ATOM      4  C   UNL     1      16.715   3.609   8.130  0.00  0.00    +0.166 C 
ATOM      5  H   UNL     1      15.895   1.793   7.753  0.00  0.00    +0.163 HD
ATOM      6  H   UNL     1      16.469   5.102   6.738  0.00  0.00    +0.159 HD
ATOM      7  H   UNL     1      15.766   3.590   6.302  0.00  0.00    +0.159 HD
ATOM      8  H   UNL     1      17.758   4.055   9.850  0.00  0.00    +0.159 HD
ATOM      9  H   UNL     1      17.595   5.363   8.744  0.00  0.00    +0.159 HD
ENDROOT
BRANCH   1  10
ATOM     10  C   UNL     1      16.923   1.638   9.612  0.00  0.00    +0.151 C 
BRANCH  10  11
ATOM     11  C   UNL     1      15.928   0.577   9.994  0.00  0.00    -0.028 A 
ATOM     12  C   UNL     1      15.207  -0.111   9.008  0.00  0.00    +0.005 A 
ATOM     13  C   UNL     1      15.707   0.251  11.341  0.00  0.00    +0.005 A 
ATOM     14  C   UNL     1      14.306  -1.118   9.360  0.00  0.00    +0.000 A 
ATOM     15  C   UNL     1      14.805  -0.755  11.689  0.00  0.00    +0.000 A 
ATOM     16  C   UNL     1      14.106  -1.440  10.698  0.00  0.00    +0.000 A 
ENDBRANCH  10  11
ENDBRANCH   1  10
TORSDOF 2
ENDMDL
