MODEL 1
REMARK VINA RESULT:    -5.185      0.000      0.000
REMARK INTER + INTRA:          -5.929
REMARK INTER:                  -5.791
REMARK INTRA:                  -0.137
REMARK UNBOUND:                -0.137
REMARK  Name = 1550473
REMARK  2 active torsions:
REMARK  status: ('A' for Active; 'I' for Inactive)
REMARK    1  A    between atoms: N_1  and  C_4
REMARK    2  A    between atoms: C_4  and  C_5
REMARK                            x       y       z     vdW  Elec       q    Type
REMARK                         _______ _______ _______ _____ _____    ______ ____
ROOT
ATOM      1  N   UNL     1      10.769   9.970   6.734  0.00  0.00    -0.354 N 
ATOM      2  N   UNL     1      12.904   9.073   6.753  0.00  0.00    -0.372 N 
ATOM      3  N   UNL     1      11.456   8.524   8.446  0.00  0.00    -0.372 N 
ATOM      4  C   UNL     1      11.695   9.194   7.313  0.00  0.00    +0.166 C 
ATOM      5  H   UNL     1      11.022  10.475   5.893  0.00  0.00    +0.163 HD
ATOM      6  H   UNL     1      13.621   8.491   7.165  0.00  0.00    +0.159 HD
ATOM      7  H   UNL     1      13.139   9.542   5.887  0.00  0.00    +0.159 HD
ATOM      8  H   UNL     1      10.565   8.578   8.922  0.00  0.00    +0.159 HD
ATOM      9  H   UNL     1      12.165   7.947   8.880  0.00  0.00    +0.159 HD
ENDROOT
BRANCH   1  10
ATOM     10  C   UNL     1       9.404  10.128   7.235  0.00  0.00    +0.151 C 
BRANCH  10  11
ATOM     11  C   UNL     1       9.019  11.579   7.161  0.00  0.00    -0.028 A 
ATOM     12  C   UNL     1       7.851  12.038   7.788  0.00  0.00    +0.005 A 
ATOM     13  C   UNL     1       9.820  12.502   6.471  0.00  0.00    +0.005 A 
ATOM     14  C   UNL     1       7.508  13.392   7.745  0.00  0.00    +0.000 A 
ATOM     15  C   UNL     1       9.473  13.852   6.429  0.00  0.00    +0.000 A 
ATOM     16  C   UNL     1       8.319  14.297   7.069  0.00  0.00    +0.000 A 
ENDBRANCH  10  11
ENDBRANCH   1  10
TORSDOF 2
ENDMDL
MODEL 2
REMARK VINA RESULT:    -4.805     36.464     37.171
REMARK INTER + INTRA:          -5.504
REMARK INTER:                  -5.366
REMARK INTRA:                  -0.138
REMARK UNBOUND:                -0.137
REMARK  Name = 1550473
REMARK  2 active torsions:
REMARK  status: ('A' for Active; 'I' for Inactive)
REMARK    1  A    between atoms: N_1  and  C_4
REMARK    2  A    between atoms: C_4  and  C_5
REMARK                            x       y       z     vdW  Elec       q    Type
REMARK                         _______ _______ _______ _____ _____    ______ ____
ROOT
ATOM      1  N   UNL     1     -12.466  -5.745 -14.669  0.00  0.00    -0.354 N 
ATOM      2  N   UNL     1     -10.194  -6.172 -14.806  0.00  0.00    -0.372 N 
ATOM      3  N   UNL     1     -11.233  -6.343 -12.767  0.00  0.00    -0.372 N 
ATOM      4  C   UNL     1     -11.313  -6.084 -14.077  0.00  0.00    +0.166 C 
ATOM      5  H   UNL     1     -12.454  -5.532 -15.659  0.00  0.00    +0.163 HD
ATOM      6  H   UNL     1      -9.310  -6.429 -14.388  0.00  0.00    +0.159 HD
ATOM      7  H   UNL     1     -10.194  -6.003 -15.804  0.00  0.00    +0.159 HD
ATOM      8  H   UNL     1     -12.040  -6.289 -12.161  0.00  0.00    +0.159 HD
ATOM      9  H   UNL     1     -10.355  -6.591 -12.328  0.00  0.00    +0.159 HD
ENDROOT
BRANCH   1  10
ATOM     10  C   UNL     1     -13.751  -5.674 -13.975  0.00  0.00    +0.151 C 
BRANCH  10  11
ATOM     11  C   UNL     1     -14.803  -6.335 -14.821  0.00  0.00    -0.028 A 
ATOM     12  C   UNL     1     -16.128  -5.875 -14.798  0.00  0.00    +0.005 A 
ATOM     13  C   UNL     1     -14.481  -7.418 -15.653  0.00  0.00    +0.005 A 
ATOM     14  C   UNL     1     -17.100  -6.470 -15.607  0.00  0.00    +0.000 A 
ATOM     15  C   UNL     1     -15.455  -8.010 -16.458  0.00  0.00    +0.000 A 
ATOM     16  C   UNL     1     -16.763  -7.533 -16.437  0.00  0.00    +0.000 A 
ENDBRANCH  10  11
ENDBRANCH   1  10
TORSDOF 2
ENDMDL
MODEL 3
REMARK VINA RESULT:    -4.759     26.291     27.367
REMARK INTER + INTRA:          -5.452
REMARK INTER:                  -5.321
REMARK INTRA:                  -0.131
REMARK UNBOUND:                -0.137
REMARK  Name = 1550473
REMARK  2 active torsions:
REMARK  status: ('A' for Active; 'I' for Inactive)
REMARK    1  A    between atoms: N_1  and  C_4
REMARK    2  A    between atoms: C_4  and  C_5
REMARK                            x       y       z     vdW  Elec       q    Type
REMARK                         _______ _______ _______ _____ _____    ______ ____
ROOT
ATOM      1  N   UNL     1       3.712 -10.189  -7.153  0.00  0.00    -0.354 N 
ATOM      2  N   UNL     1       4.693  -9.508  -5.169  0.00  0.00    -0.372 N 
ATOM      3  N   UNL     1       5.993  -9.657  -7.054  0.00  0.00    -0.372 N 
ATOM      4  C   UNL     1       4.795  -9.789  -6.473  0.00  0.00    +0.166 C 
ATOM      5  H   UNL     1       2.840 -10.298  -6.649  0.00  0.00    +0.163 HD
ATOM      6  H   UNL     1       5.492  -9.201  -4.630  0.00  0.00    +0.159 HD
ATOM      7  H   UNL     1       3.810  -9.574  -4.677  0.00  0.00    +0.159 HD
ATOM      8  H   UNL     1       6.138  -9.860  -8.034  0.00  0.00    +0.159 HD
ATOM      9  H   UNL     1       6.807  -9.363  -6.529  0.00  0.00    +0.159 HD
ENDROOT
BRANCH   1  10
ATOM     10  C   UNL     1       3.705 -10.468  -8.588  0.00  0.00    +0.151 C 
BRANCH  10  11
ATOM     11  C   UNL     1       2.361 -10.099  -9.153  0.00  0.00    -0.028 A 
ATOM     12  C   UNL     1       1.298  -9.764  -8.302  0.00  0.00    +0.005 A 
ATOM     13  C   UNL     1       2.145 -10.078 -10.540  0.00  0.00    +0.005 A 
ATOM     14  C   UNL     1       0.058  -9.393  -8.827  0.00  0.00    +0.000 A 
ATOM     15  C   UNL     1       0.905  -9.708 -11.060  0.00  0.00    +0.000 A 
ATOM     16  C   UNL     1      -0.138  -9.363 -10.203  0.00  0.00    +0.000 A 
ENDBRANCH  10  11
ENDBRANCH   1  10
TORSDOF 2
ENDMDL
MODEL 4
REMARK VINA RESULT:    -4.641     28.377     29.314
REMARK INTER + INTRA:          -5.321
REMARK INTER:                  -5.165
REMARK INTRA:                  -0.155
REMARK UNBOUND:                -0.137
REMARK  Name = 1550473
REMARK  2 active torsions:
REMARK  status: ('A' for Active; 'I' for Inactive)
REMARK    1  A    between atoms: N_1  and  C_4
REMARK    2  A    between atoms: C_4  and  C_5
REMARK                            x       y       z     vdW  Elec       q    Type
REMARK                         _______ _______ _______ _____ _____    ______ ____
ROOT
ATOM      1  N   UNL     1       1.733  -9.269 -11.635  0.00  0.00    -0.354 N 
ATOM      2  N   UNL     1       1.863  -9.778 -13.891  0.00  0.00    -0.372 N 
ATOM      3  N   UNL     1      -0.029  -8.753 -13.092  0.00  0.00    -0.372 N 
ATOM      4  C   UNL     1       1.186  -9.262 -12.858  0.00  0.00    +0.166 C 
ATOM      5  H   UNL     1       2.645  -9.697 -11.518  0.00  0.00    +0.163 HD
ATOM      6  H   UNL     1       1.476  -9.784 -14.825  0.00  0.00    +0.159 HD
ATOM      7  H   UNL     1       2.792 -10.164 -13.779  0.00  0.00    +0.159 HD
ATOM      8  H   UNL     1      -0.593  -8.355 -12.354  0.00  0.00    +0.159 HD
ATOM      9  H   UNL     1      -0.437  -8.761 -14.018  0.00  0.00    +0.159 HD
ENDROOT
BRANCH   1  10
ATOM     10  C   UNL     1       1.102  -8.685 -10.453  0.00  0.00    +0.151 C 
BRANCH  10  11
ATOM     11  C   UNL     1       0.825  -9.775  -9.455  0.00  0.00    -0.028 A 
ATOM     12  C   UNL     1      -0.460 -10.324  -9.339  0.00  0.00    +0.005 A 
ATOM     13  C   UNL     1       1.845 -10.266  -8.625  0.00  0.00    +0.005 A 
ATOM     14  C   UNL     1      -0.711 -11.357  -8.433  0.00  0.00    +0.000 A 
ATOM     15  C   UNL     1       1.590 -11.297  -7.721  0.00  0.00    +0.000 A 
ATOM     16  C   UNL     1       0.312 -11.844  -7.627  0.00  0.00    +0.000 A 
ENDBRANCH  10  11
ENDBRANCH   1  10
TORSDOF 2
ENDMDL
MODEL 5
REMARK VINA RESULT:    -4.449     25.755     26.243
REMARK INTER + INTRA:          -5.107
REMARK INTER:                  -5.004
REMARK INTRA:                  -0.103
REMARK UNBOUND:                -0.137
REMARK  Name = 1550473
REMARK  2 active torsions:
REMARK  status: ('A' for Active; 'I' for Inactive)
REMARK    1  A    between atoms: N_1  and  C_4
REMARK    2  A    between atoms: C_4  and  C_5
REMARK                            x       y       z     vdW  Elec       q    Type
REMARK                         _______ _______ _______ _____ _____    ______ ____
ROOT
ATOM      1  N   UNL     1      -4.654   0.223 -10.193  0.00  0.00    -0.354 N 
ATOM      2  N   UNL     1      -2.395  -0.044  -9.758  0.00  0.00    -0.372 N 
ATOM      3  N   UNL     1      -3.559  -1.788 -10.691  0.00  0.00    -0.372 N 
ATOM      4  C   UNL     1      -3.551  -0.537 -10.218  0.00  0.00    +0.166 C 
ATOM      5  H   UNL     1      -4.589   1.153  -9.794  0.00  0.00    +0.163 HD
ATOM      6  H   UNL     1      -1.546  -0.593  -9.767  0.00  0.00    +0.159 HD
ATOM      7  H   UNL     1      -2.323   0.901  -9.402  0.00  0.00    +0.159 HD
ATOM      8  H   UNL     1      -4.400  -2.221 -11.046  0.00  0.00    +0.159 HD
ATOM      9  H   UNL     1      -2.721  -2.357 -10.697  0.00  0.00    +0.159 HD
ENDROOT
BRANCH   1  10
ATOM     10  C   UNL     1      -5.951  -0.200 -10.718  0.00  0.00    +0.151 C 
BRANCH  10  11
ATOM     11  C   UNL     1      -6.689   1.005 -11.233  0.00  0.00    -0.028 A 
ATOM     12  C   UNL     1      -7.588   1.696 -10.408  0.00  0.00    +0.005 A 
ATOM     13  C   UNL     1      -6.488   1.465 -12.544  0.00  0.00    +0.005 A 
ATOM     14  C   UNL     1      -8.251   2.833 -10.876  0.00  0.00    +0.000 A 
ATOM     15  C   UNL     1      -7.153   2.600 -13.008  0.00  0.00    +0.000 A 
ATOM     16  C   UNL     1      -8.032   3.285 -12.173  0.00  0.00    +0.000 A 
ENDBRANCH  10  11
ENDBRANCH   1  10
TORSDOF 2
ENDMDL
MODEL 6
REMARK VINA RESULT:    -4.323      9.300     10.305
REMARK INTER + INTRA:          -4.966
REMARK INTER:                  -4.838
REMARK INTRA:                  -0.128
REMARK UNBOUND:                -0.137
REMARK  Name = 1550473
REMARK  2 active torsions:
REMARK  status: ('A' for Active; 'I' for Inactive)
REMARK    1  A    between atoms: N_1  and  C_4
REMARK    2  A    between atoms: C_4  and  C_5
REMARK                            x       y       z     vdW  Elec       q    Type
REMARK                         _______ _______ _______ _____ _____    ______ ____
ROOT
ATOM      1  N   UNL     1      13.995   3.816   4.749  0.00  0.00    -0.354 N 
ATOM      2  N   UNL     1      12.600   4.514   3.038  0.00  0.00    -0.372 N 
ATOM      3  N   UNL     1      14.176   2.906   2.597  0.00  0.00    -0.372 N 
ATOM      4  C   UNL     1      13.602   3.739   3.471  0.00  0.00    +0.166 C 
ATOM      5  H   UNL     1      13.539   4.489   5.354  0.00  0.00    +0.163 HD
ATOM      6  H   UNL     1      12.279   4.476   2.080  0.00  0.00    +0.159 HD
ATOM      7  H   UNL     1      12.115   5.154   3.656  0.00  0.00    +0.159 HD
ATOM      8  H   UNL     1      14.941   2.299   2.859  0.00  0.00    +0.159 HD
ATOM      9  H   UNL     1      13.877   2.862   1.631  0.00  0.00    +0.159 HD
ENDROOT
BRANCH   1  10
ATOM     10  C   UNL     1      15.040   2.977   5.334  0.00  0.00    +0.151 C 
BRANCH  10  11
ATOM     11  C   UNL     1      16.176   3.852   5.788  0.00  0.00    -0.028 A 
ATOM     12  C   UNL     1      16.146   5.235   5.555  0.00  0.00    +0.005 A 
ATOM     13  C   UNL     1      17.282   3.305   6.457  0.00  0.00    +0.005 A 
ATOM     14  C   UNL     1      17.187   6.052   6.003  0.00  0.00    +0.000 A 
ATOM     15  C   UNL     1      18.319   4.124   6.902  0.00  0.00    +0.000 A 
ATOM     16  C   UNL     1      18.270   5.498   6.677  0.00  0.00    +0.000 A 
ENDBRANCH  10  11
ENDBRANCH   1  10
TORSDOF 2
ENDMDL
MODEL 7
REMARK VINA RESULT:    -4.322     10.621     11.832
REMARK INTER + INTRA:          -4.965
REMARK INTER:                  -4.787
REMARK INTRA:                  -0.177
REMARK UNBOUND:                -0.137
REMARK  Name = 1550473
REMARK  2 active torsions:
REMARK  status: ('A' for Active; 'I' for Inactive)
REMARK    1  A    between atoms: N_1  and  C_4
REMARK    2  A    between atoms: C_4  and  C_5
REMARK                            x       y       z     vdW  Elec       q    Type
REMARK                         _______ _______ _______ _____ _____    ______ ____
ROOT
ATOM      1  N   UNL     1       7.452  15.619  16.485  0.00  0.00    -0.354 N 
ATOM      2  N   UNL     1       7.099  13.387  16.993  0.00  0.00    -0.372 N 
ATOM      3  N   UNL     1       5.922  14.331  15.265  0.00  0.00    -0.372 N 
ATOM      4  C   UNL     1       6.825  14.461  16.242  0.00  0.00    +0.166 C 
ATOM      5  H   UNL     1       8.104  15.661  17.260  0.00  0.00    +0.163 HD
ATOM      6  H   UNL     1       6.644  12.499  16.832  0.00  0.00    +0.159 HD
ATOM      7  H   UNL     1       7.785  13.420  17.738  0.00  0.00    +0.159 HD
ATOM      8  H   UNL     1       5.665  15.104  14.666  0.00  0.00    +0.159 HD
ATOM      9  H   UNL     1       5.447  13.453  15.095  0.00  0.00    +0.159 HD
ENDROOT
BRANCH   1  10
ATOM     10  C   UNL     1       7.265  16.832  15.691  0.00  0.00    +0.151 C 
BRANCH  10  11
ATOM     11  C   UNL     1       6.390  17.788  16.454  0.00  0.00    -0.028 A 
ATOM     12  C   UNL     1       6.955  18.723  17.333  0.00  0.00    +0.005 A 
ATOM     13  C   UNL     1       4.996  17.768  16.297  0.00  0.00    +0.005 A 
ATOM     14  C   UNL     1       6.145  19.631  18.020  0.00  0.00    +0.000 A 
ATOM     15  C   UNL     1       4.190  18.676  16.985  0.00  0.00    +0.000 A 
ATOM     16  C   UNL     1       4.765  19.609  17.844  0.00  0.00    +0.000 A 
ENDBRANCH  10  11
ENDBRANCH   1  10
TORSDOF 2
ENDMDL
MODEL 8
REMARK VINA RESULT:    -4.249     28.954     29.580
REMARK INTER + INTRA:          -4.883
REMARK INTER:                  -4.759
REMARK INTRA:                  -0.124
REMARK UNBOUND:                -0.137
REMARK  Name = 1550473
REMARK  2 active torsions:
REMARK  status: ('A' for Active; 'I' for Inactive)
REMARK    1  A    between atoms: N_1  and  C_4
REMARK    2  A    between atoms: C_4  and  C_5
REMARK                            x       y       z     vdW  Elec       q    Type
REMARK                         _______ _______ _______ _____ _____    ______ ____
ROOT
ATOM      1  N   UNL     1       5.172   3.540 -19.851  0.00  0.00    -0.354 N 
ATOM      2  N   UNL     1       4.957   5.374 -18.453  0.00  0.00    -0.372 N 
ATOM      3  N   UNL     1       5.972   3.479 -17.649  0.00  0.00    -0.372 N 
ATOM      4  C   UNL     1       5.369   4.117 -18.658  0.00  0.00    +0.166 C 
ATOM      5  H   UNL     1       4.682   4.066 -20.565  0.00  0.00    +0.163 HD
ATOM      6  H   UNL     1       5.095   5.837 -17.565  0.00  0.00    +0.159 HD
ATOM      7  H   UNL     1       4.508   5.913 -19.183  0.00  0.00    +0.159 HD
ATOM      8  H   UNL     1       6.301   2.527 -17.738  0.00  0.00    +0.159 HD
ATOM      9  H   UNL     1       6.109   3.922 -16.749  0.00  0.00    +0.159 HD
ENDROOT
BRANCH   1  10
ATOM     10  C   UNL     1       5.631   2.195 -20.195  0.00  0.00    +0.151 C 
BRANCH  10  11
ATOM     11  C   UNL     1       4.444   1.352 -20.570  0.00  0.00    -0.028 A 
ATOM     12  C   UNL     1       3.192   1.582 -19.981  0.00  0.00    +0.005 A 
ATOM     13  C   UNL     1       4.563   0.324 -21.518  0.00  0.00    +0.005 A 
ATOM     14  C   UNL     1       2.082   0.819 -20.351  0.00  0.00    +0.000 A 
ATOM     15  C   UNL     1       3.452  -0.436 -21.885  0.00  0.00    +0.000 A 
ATOM     16  C   UNL     1       2.212  -0.187 -21.303  0.00  0.00    +0.000 A 
ENDBRANCH  10  11
ENDBRANCH   1  10
TORSDOF 2
ENDMDL
MODEL 9
REMARK VINA RESULT:    -4.153     34.097     34.773
REMARK INTER + INTRA:          -4.776
REMARK INTER:                  -4.599
REMARK INTRA:                  -0.176
REMARK UNBOUND:                -0.137
REMARK  Name = 1550473
REMARK  2 active torsions:
REMARK  status: ('A' for Active; 'I' for Inactive)
REMARK    1  A    between atoms: N_1  and  C_4
REMARK    2  A    between atoms: C_4  and  C_5
REMARK                            x       y       z     vdW  Elec       q    Type
REMARK                         _______ _______ _______ _____ _____    ______ ____
ROOT
ATOM      1  N   UNL     1     -10.883  -6.028 -13.347  0.00  0.00    -0.354 N 
ATOM      2  N   UNL     1      -9.378  -5.420 -15.000  0.00  0.00    -0.372 N 
ATOM      3  N   UNL     1     -11.243  -6.621 -15.586  0.00  0.00    -0.372 N 
ATOM      4  C   UNL     1     -10.513  -6.029 -14.635  0.00  0.00    +0.166 C 
ATOM      5  H   UNL     1     -10.270  -5.588 -12.671  0.00  0.00    +0.163 HD
ATOM      6  H   UNL     1      -9.075  -5.401 -15.964  0.00  0.00    +0.159 HD
ATOM      7  H   UNL     1      -8.791  -4.941 -14.328  0.00  0.00    +0.159 HD
ATOM      8  H   UNL     1     -12.107  -7.102 -15.375  0.00  0.00    +0.159 HD
ATOM      9  H   UNL     1     -10.951  -6.623 -16.555  0.00  0.00    +0.159 HD
ENDROOT
BRANCH   1  10
ATOM     10  C   UNL     1     -12.127  -6.616 -12.854  0.00  0.00    +0.151 C 
BRANCH  10  11
ATOM     11  C   UNL     1     -13.172  -5.539 -12.753  0.00  0.00    -0.028 A 
ATOM     12  C   UNL     1     -12.902  -4.347 -12.066  0.00  0.00    +0.005 A 
ATOM     13  C   UNL     1     -14.433  -5.703 -13.347  0.00  0.00    +0.005 A 
ATOM     14  C   UNL     1     -13.862  -3.334 -11.997  0.00  0.00    +0.000 A 
ATOM     15  C   UNL     1     -15.389  -4.690 -13.275  0.00  0.00    +0.000 A 
ATOM     16  C   UNL     1     -15.102  -3.505 -12.603  0.00  0.00    +0.000 A 
ENDBRANCH  10  11
ENDBRANCH   1  10
TORSDOF 2
ENDMDL
