MODEL 1
REMARK VINA RESULT:    -5.924      0.000      0.000
REMARK INTER + INTRA:          -6.745
REMARK INTER:                  -6.616
REMARK INTRA:                  -0.128
REMARK UNBOUND:                -0.128
REMARK  Name = 1550473
REMARK  2 active torsions:
REMARK  status: ('A' for Active; 'I' for Inactive)
REMARK    1  A    between atoms: N_1  and  C_4
REMARK    2  A    between atoms: C_4  and  C_5
REMARK                            x       y       z     vdW  Elec       q    Type
REMARK                         _______ _______ _______ _____ _____    ______ ____
ROOT
ATOM      1  N   UNL     1     -10.152  -6.004  -3.961  0.00  0.00    -0.354 N 
ATOM      2  N   UNL     1      -8.186  -5.860  -5.178  0.00  0.00    -0.372 N 
ATOM      3  N   UNL     1     -10.189  -5.835  -6.298  0.00  0.00    -0.372 N 
ATOM      4  C   UNL     1      -9.524  -5.901  -5.140  0.00  0.00    +0.166 C 
ATOM      5  H   UNL     1      -9.590  -6.080  -3.121  0.00  0.00    +0.163 HD
ATOM      6  H   UNL     1      -7.685  -5.779  -6.052  0.00  0.00    +0.159 HD
ATOM      7  H   UNL     1      -7.628  -5.890  -4.333  0.00  0.00    +0.159 HD
ATOM      8  H   UNL     1     -11.199  -5.867  -6.338  0.00  0.00    +0.159 HD
ATOM      9  H   UNL     1      -9.704  -5.766  -7.184  0.00  0.00    +0.159 HD
ENDROOT
BRANCH   1  10
ATOM     10  C   UNL     1     -11.606  -6.003  -3.806  0.00  0.00    +0.151 C 
BRANCH  10  11
ATOM     11  C   UNL     1     -12.013  -7.195  -2.986  0.00  0.00    -0.028 A 
ATOM     12  C   UNL     1     -12.468  -8.366  -3.609  0.00  0.00    +0.005 A 
ATOM     13  C   UNL     1     -11.942  -7.162  -1.585  0.00  0.00    +0.005 A 
ATOM     14  C   UNL     1     -12.819  -9.484  -2.848  0.00  0.00    +0.000 A 
ATOM     15  C   UNL     1     -12.294  -8.280  -0.829  0.00  0.00    +0.000 A 
ATOM     16  C   UNL     1     -12.730  -9.442  -1.461  0.00  0.00    +0.000 A 
ENDBRANCH  10  11
ENDBRANCH   1  10
TORSDOF 2
ENDMDL
MODEL 2
REMARK VINA RESULT:    -5.902      1.731      2.701
REMARK INTER + INTRA:          -6.720
REMARK INTER:                  -6.546
REMARK INTRA:                  -0.174
REMARK UNBOUND:                -0.128
REMARK  Name = 1550473
REMARK  2 active torsions:
REMARK  status: ('A' for Active; 'I' for Inactive)
REMARK    1  A    between atoms: N_1  and  C_4
REMARK    2  A    between atoms: C_4  and  C_5
REMARK                            x       y       z     vdW  Elec       q    Type
REMARK                         _______ _______ _______ _____ _____    ______ ____
ROOT
ATOM      1  N   UNL     1     -12.078  -5.220  -4.336  0.00  0.00    -0.354 N 
ATOM      2  N   UNL     1     -13.707  -4.050  -5.495  0.00  0.00    -0.372 N 
ATOM      3  N   UNL     1     -12.666  -5.816  -6.525  0.00  0.00    -0.372 N 
ATOM      4  C   UNL     1     -12.805  -5.038  -5.446  0.00  0.00    +0.166 C 
ATOM      5  H   UNL     1     -12.210  -4.577  -3.563  0.00  0.00    +0.163 HD
ATOM      6  H   UNL     1     -14.273  -3.890  -6.317  0.00  0.00    +0.159 HD
ATOM      7  H   UNL     1     -13.869  -3.437  -4.704  0.00  0.00    +0.159 HD
ATOM      8  H   UNL     1     -11.999  -6.575  -6.554  0.00  0.00    +0.159 HD
ATOM      9  H   UNL     1     -13.214  -5.665  -7.362  0.00  0.00    +0.159 HD
ENDROOT
BRANCH   1  10
ATOM     10  C   UNL     1     -11.109  -6.300  -4.161  0.00  0.00    +0.151 C 
BRANCH  10  11
ATOM     11  C   UNL     1     -11.675  -7.320  -3.213  0.00  0.00    -0.028 A 
ATOM     12  C   UNL     1     -11.667  -7.089  -1.830  0.00  0.00    +0.005 A 
ATOM     13  C   UNL     1     -12.228  -8.518  -3.692  0.00  0.00    +0.005 A 
ATOM     14  C   UNL     1     -12.220  -8.023  -0.950  0.00  0.00    +0.000 A 
ATOM     15  C   UNL     1     -12.778  -9.448  -2.811  0.00  0.00    +0.000 A 
ATOM     16  C   UNL     1     -12.777  -9.199  -1.441  0.00  0.00    +0.000 A 
ENDBRANCH  10  11
ENDBRANCH   1  10
TORSDOF 2
ENDMDL
MODEL 3
REMARK VINA RESULT:    -5.807      1.546      2.158
REMARK INTER + INTRA:          -6.614
REMARK INTER:                  -6.482
REMARK INTRA:                  -0.133
REMARK UNBOUND:                -0.128
REMARK  Name = 1550473
REMARK  2 active torsions:
REMARK  status: ('A' for Active; 'I' for Inactive)
REMARK    1  A    between atoms: N_1  and  C_4
REMARK    2  A    between atoms: C_4  and  C_5
REMARK                            x       y       z     vdW  Elec       q    Type
REMARK                         _______ _______ _______ _____ _____    ______ ____
ROOT
ATOM      1  N   UNL     1     -11.432  -6.421  -5.235  0.00  0.00    -0.354 N 
ATOM      2  N   UNL     1     -12.992  -5.449  -6.643  0.00  0.00    -0.372 N 
ATOM      3  N   UNL     1     -12.776  -4.646  -4.504  0.00  0.00    -0.372 N 
ATOM      4  C   UNL     1     -12.390  -5.510  -5.449  0.00  0.00    +0.166 C 
ATOM      5  H   UNL     1     -11.206  -7.068  -5.982  0.00  0.00    +0.163 HD
ATOM      6  H   UNL     1     -13.716  -4.769  -6.835  0.00  0.00    +0.159 HD
ATOM      7  H   UNL     1     -12.733  -6.066  -7.403  0.00  0.00    +0.159 HD
ATOM      8  H   UNL     1     -12.365  -4.645  -3.580  0.00  0.00    +0.159 HD
ATOM      9  H   UNL     1     -13.507  -3.967  -4.674  0.00  0.00    +0.159 HD
ENDROOT
BRANCH   1  10
ATOM     10  C   UNL     1     -10.677  -6.537  -3.988  0.00  0.00    +0.151 C 
BRANCH  10  11
ATOM     11  C   UNL     1     -11.423  -7.439  -3.044  0.00  0.00    -0.028 A 
ATOM     12  C   UNL     1     -11.888  -8.690  -3.474  0.00  0.00    +0.005 A 
ATOM     13  C   UNL     1     -11.662  -7.051  -1.717  0.00  0.00    +0.005 A 
ATOM     14  C   UNL     1     -12.554  -9.542  -2.589  0.00  0.00    +0.000 A 
ATOM     15  C   UNL     1     -12.328  -7.903  -0.837  0.00  0.00    +0.000 A 
ATOM     16  C   UNL     1     -12.772  -9.150  -1.273  0.00  0.00    +0.000 A 
ENDBRANCH  10  11
ENDBRANCH   1  10
TORSDOF 2
ENDMDL
MODEL 4
REMARK VINA RESULT:    -5.764     16.929     17.850
REMARK INTER + INTRA:          -6.566
REMARK INTER:                  -6.426
REMARK INTRA:                  -0.140
REMARK UNBOUND:                -0.128
REMARK  Name = 1550473
REMARK  2 active torsions:
REMARK  status: ('A' for Active; 'I' for Inactive)
REMARK    1  A    between atoms: N_1  and  C_4
REMARK    2  A    between atoms: C_4  and  C_5
REMARK                            x       y       z     vdW  Elec       q    Type
REMARK                         _______ _______ _______ _____ _____    ______ ____
ROOT
ATOM      1  N   UNL     1      -0.399 -14.996 -15.971  0.00  0.00    -0.354 N 
ATOM      2  N   UNL     1      -1.627 -16.840 -15.295  0.00  0.00    -0.372 N 
ATOM      3  N   UNL     1      -2.472 -15.489 -16.946  0.00  0.00    -0.372 N 
ATOM      4  C   UNL     1      -1.493 -15.761 -16.077  0.00  0.00    +0.166 C 
ATOM      5  H   UNL     1       0.292 -15.239 -15.271  0.00  0.00    +0.163 HD
ATOM      6  H   UNL     1      -2.440 -17.438 -15.355  0.00  0.00    +0.159 HD
ATOM      7  H   UNL     1      -0.913 -17.107 -14.629  0.00  0.00    +0.159 HD
ATOM      8  H   UNL     1      -2.434 -14.686 -17.561  0.00  0.00    +0.159 HD
ATOM      9  H   UNL     1      -3.299 -16.069 -17.013  0.00  0.00    +0.159 HD
ENDROOT
BRANCH   1  10
ATOM     10  C   UNL     1      -0.132 -13.831 -16.812  0.00  0.00    +0.151 C 
BRANCH  10  11
ATOM     11  C   UNL     1      -0.022 -12.610 -15.940  0.00  0.00    -0.028 A 
ATOM     12  C   UNL     1      -0.942 -11.559 -16.067  0.00  0.00    +0.005 A 
ATOM     13  C   UNL     1       0.998 -12.501 -14.982  0.00  0.00    +0.005 A 
ATOM     14  C   UNL     1      -0.858 -10.439 -15.237  0.00  0.00    +0.000 A 
ATOM     15  C   UNL     1       1.079 -11.380 -14.156  0.00  0.00    +0.000 A 
ATOM     16  C   UNL     1       0.149 -10.350 -14.282  0.00  0.00    +0.000 A 
ENDBRANCH  10  11
ENDBRANCH   1  10
TORSDOF 2
ENDMDL
MODEL 5
REMARK VINA RESULT:    -5.628     16.510     18.217
REMARK INTER + INTRA:          -6.415
REMARK INTER:                  -6.272
REMARK INTRA:                  -0.143
REMARK UNBOUND:                -0.128
REMARK  Name = 1550473
REMARK  2 active torsions:
REMARK  status: ('A' for Active; 'I' for Inactive)
REMARK    1  A    between atoms: N_1  and  C_4
REMARK    2  A    between atoms: C_4  and  C_5
REMARK                            x       y       z     vdW  Elec       q    Type
REMARK                         _______ _______ _______ _____ _____    ______ ____
ROOT
ATOM      1  N   UNL     1      -3.062 -17.264 -13.781  0.00  0.00    -0.354 N 
ATOM      2  N   UNL     1      -2.680 -17.097 -11.502  0.00  0.00    -0.372 N 
ATOM      3  N   UNL     1      -1.734 -18.837 -12.660  0.00  0.00    -0.372 N 
ATOM      4  C   UNL     1      -2.493 -17.736 -12.663  0.00  0.00    +0.166 C 
ATOM      5  H   UNL     1      -3.650 -16.442 -13.711  0.00  0.00    +0.163 HD
ATOM      6  H   UNL     1      -2.261 -17.427 -10.643  0.00  0.00    +0.159 HD
ATOM      7  H   UNL     1      -3.232 -16.249 -11.444  0.00  0.00    +0.159 HD
ATOM      8  H   UNL     1      -1.559 -19.369 -13.502  0.00  0.00    +0.159 HD
ATOM      9  H   UNL     1      -1.316 -19.190 -11.809  0.00  0.00    +0.159 HD
ENDROOT
BRANCH   1  10
ATOM     10  C   UNL     1      -2.877 -17.855 -15.105  0.00  0.00    +0.151 C 
BRANCH  10  11
ATOM     11  C   UNL     1      -2.413 -16.789 -16.058  0.00  0.00    -0.028 A 
ATOM     12  C   UNL     1      -3.237 -16.368 -17.112  0.00  0.00    +0.005 A 
ATOM     13  C   UNL     1      -1.152 -16.191 -15.910  0.00  0.00    +0.005 A 
ATOM     14  C   UNL     1      -2.819 -15.356 -17.980  0.00  0.00    +0.000 A 
ATOM     15  C   UNL     1      -0.737 -15.182 -16.779  0.00  0.00    +0.000 A 
ATOM     16  C   UNL     1      -1.572 -14.763 -17.812  0.00  0.00    +0.000 A 
ENDBRANCH  10  11
ENDBRANCH   1  10
TORSDOF 2
ENDMDL
MODEL 6
REMARK VINA RESULT:    -5.576      3.048      3.389
REMARK INTER + INTRA:          -6.357
REMARK INTER:                  -6.255
REMARK INTRA:                  -0.102
REMARK UNBOUND:                -0.128
REMARK  Name = 1550473
REMARK  2 active torsions:
REMARK  status: ('A' for Active; 'I' for Inactive)
REMARK    1  A    between atoms: N_1  and  C_4
REMARK    2  A    between atoms: C_4  and  C_5
REMARK                            x       y       z     vdW  Elec       q    Type
REMARK                         _______ _______ _______ _____ _____    ______ ____
ROOT
ATOM      1  N   UNL     1      -9.504 -10.251  -4.262  0.00  0.00    -0.354 N 
ATOM      2  N   UNL     1      -7.541 -11.470  -4.423  0.00  0.00    -0.372 N 
ATOM      3  N   UNL     1      -8.030  -9.935  -6.057  0.00  0.00    -0.372 N 
ATOM      4  C   UNL     1      -8.371 -10.543  -4.916  0.00  0.00    +0.166 C 
ATOM      5  H   UNL     1      -9.719 -10.769  -3.418  0.00  0.00    +0.163 HD
ATOM      6  H   UNL     1      -6.677 -11.708  -4.892  0.00  0.00    +0.159 HD
ATOM      7  H   UNL     1      -7.736 -11.953  -3.555  0.00  0.00    +0.159 HD
ATOM      8  H   UNL     1      -8.616  -9.230  -6.484  0.00  0.00    +0.159 HD
ATOM      9  H   UNL     1      -7.176 -10.169  -6.547  0.00  0.00    +0.159 HD
ENDROOT
BRANCH   1  10
ATOM     10  C   UNL     1     -10.449  -9.220  -4.685  0.00  0.00    +0.151 C 
BRANCH  10  11
ATOM     11  C   UNL     1     -11.143  -8.662  -3.473  0.00  0.00    -0.028 A 
ATOM     12  C   UNL     1     -11.922  -9.492  -2.654  0.00  0.00    +0.005 A 
ATOM     13  C   UNL     1     -11.019  -7.306  -3.135  0.00  0.00    +0.005 A 
ATOM     14  C   UNL     1     -12.542  -8.981  -1.511  0.00  0.00    +0.000 A 
ATOM     15  C   UNL     1     -11.640  -6.799  -1.993  0.00  0.00    +0.000 A 
ATOM     16  C   UNL     1     -12.400  -7.637  -1.180  0.00  0.00    +0.000 A 
ENDBRANCH  10  11
ENDBRANCH   1  10
TORSDOF 2
ENDMDL
MODEL 7
REMARK VINA RESULT:    -5.436      2.211      2.603
REMARK INTER + INTRA:          -6.200
REMARK INTER:                  -6.048
REMARK INTRA:                  -0.152
REMARK UNBOUND:                -0.128
REMARK  Name = 1550473
REMARK  2 active torsions:
REMARK  status: ('A' for Active; 'I' for Inactive)
REMARK    1  A    between atoms: N_1  and  C_4
REMARK    2  A    between atoms: C_4  and  C_5
REMARK                            x       y       z     vdW  Elec       q    Type
REMARK                         _______ _______ _______ _____ _____    ______ ____
ROOT
ATOM      1  N   UNL     1      -9.508  -8.406  -4.697  0.00  0.00    -0.354 N 
ATOM      2  N   UNL     1      -8.276  -9.934  -5.926  0.00  0.00    -0.372 N 
ATOM      3  N   UNL     1     -10.277  -9.191  -6.767  0.00  0.00    -0.372 N 
ATOM      4  C   UNL     1      -9.364  -9.167  -5.791  0.00  0.00    +0.166 C 
ATOM      5  H   UNL     1      -8.795  -8.456  -3.979  0.00  0.00    +0.163 HD
ATOM      6  H   UNL     1      -8.138 -10.516  -6.742  0.00  0.00    +0.159 HD
ATOM      7  H   UNL     1      -7.542  -9.947  -5.228  0.00  0.00    +0.159 HD
ATOM      8  H   UNL     1     -11.124  -8.639  -6.723  0.00  0.00    +0.159 HD
ATOM      9  H   UNL     1     -10.163  -9.776  -7.586  0.00  0.00    +0.159 HD
ENDROOT
BRANCH   1  10
ATOM     10  C   UNL     1     -10.630  -7.495  -4.477  0.00  0.00    +0.151 C 
BRANCH  10  11
ATOM     11  C   UNL     1     -11.368  -7.914  -3.236  0.00  0.00    -0.028 A 
ATOM     12  C   UNL     1     -11.505  -7.031  -2.156  0.00  0.00    +0.005 A 
ATOM     13  C   UNL     1     -11.938  -9.193  -3.137  0.00  0.00    +0.005 A 
ATOM     14  C   UNL     1     -12.216  -7.409  -1.015  0.00  0.00    +0.000 A 
ATOM     15  C   UNL     1     -12.647  -9.567  -1.996  0.00  0.00    +0.000 A 
ATOM     16  C   UNL     1     -12.788  -8.675  -0.936  0.00  0.00    +0.000 A 
ENDBRANCH  10  11
ENDBRANCH   1  10
TORSDOF 2
ENDMDL
MODEL 8
REMARK VINA RESULT:    -5.287     18.579     19.060
REMARK INTER + INTRA:          -6.034
REMARK INTER:                  -5.905
REMARK INTRA:                  -0.129
REMARK UNBOUND:                -0.128
REMARK  Name = 1550473
REMARK  2 active torsions:
REMARK  status: ('A' for Active; 'I' for Inactive)
REMARK    1  A    between atoms: N_1  and  C_4
REMARK    2  A    between atoms: C_4  and  C_5
REMARK                            x       y       z     vdW  Elec       q    Type
REMARK                         _______ _______ _______ _____ _____    ______ ____
ROOT
ATOM      1  N   UNL     1      -5.718 -15.905 -19.385  0.00  0.00    -0.354 N 
ATOM      2  N   UNL     1      -7.743 -16.861 -19.977  0.00  0.00    -0.372 N 
ATOM      3  N   UNL     1      -7.682 -14.629 -19.448  0.00  0.00    -0.372 N 
ATOM      4  C   UNL     1      -7.035 -15.789 -19.599  0.00  0.00    +0.166 C 
ATOM      5  H   UNL     1      -5.292 -16.819 -19.488  0.00  0.00    +0.163 HD
ATOM      6  H   UNL     1      -8.737 -16.803 -20.148  0.00  0.00    +0.159 HD
ATOM      7  H   UNL     1      -7.306 -17.763 -20.123  0.00  0.00    +0.159 HD
ATOM      8  H   UNL     1      -7.207 -13.784 -19.159  0.00  0.00    +0.159 HD
ATOM      9  H   UNL     1      -8.680 -14.554 -19.604  0.00  0.00    +0.159 HD
ENDROOT
BRANCH   1  10
ATOM     10  C   UNL     1      -4.847 -14.787 -19.024  0.00  0.00    +0.151 C 
BRANCH  10  11
ATOM     11  C   UNL     1      -3.626 -15.322 -18.327  0.00  0.00    -0.028 A 
ATOM     12  C   UNL     1      -3.546 -16.676 -17.970  0.00  0.00    +0.005 A 
ATOM     13  C   UNL     1      -2.544 -14.481 -18.025  0.00  0.00    +0.005 A 
ATOM     14  C   UNL     1      -2.400 -17.179 -17.349  0.00  0.00    +0.000 A 
ATOM     15  C   UNL     1      -1.402 -14.987 -17.405  0.00  0.00    +0.000 A 
ATOM     16  C   UNL     1      -1.329 -16.336 -17.070  0.00  0.00    +0.000 A 
ENDBRANCH  10  11
ENDBRANCH   1  10
TORSDOF 2
ENDMDL
MODEL 9
REMARK VINA RESULT:    -5.202      1.586      1.850
REMARK INTER + INTRA:          -5.938
REMARK INTER:                  -5.808
REMARK INTRA:                  -0.130
REMARK UNBOUND:                -0.128
REMARK  Name = 1550473
REMARK  2 active torsions:
REMARK  status: ('A' for Active; 'I' for Inactive)
REMARK    1  A    between atoms: N_1  and  C_4
REMARK    2  A    between atoms: C_4  and  C_5
REMARK                            x       y       z     vdW  Elec       q    Type
REMARK                         _______ _______ _______ _____ _____    ______ ____
ROOT
ATOM      1  N   UNL     1     -10.527  -7.668  -5.507  0.00  0.00    -0.354 N 
ATOM      2  N   UNL     1      -9.783  -8.551  -7.515  0.00  0.00    -0.372 N 
ATOM      3  N   UNL     1      -8.365  -7.223  -6.294  0.00  0.00    -0.372 N 
ATOM      4  C   UNL     1      -9.561  -7.807  -6.425  0.00  0.00    +0.166 C 
ATOM      5  H   UNL     1     -11.422  -8.111  -5.679  0.00  0.00    +0.163 HD
ATOM      6  H   UNL     1      -9.073  -8.677  -8.223  0.00  0.00    +0.159 HD
ATOM      7  H   UNL     1     -10.663  -9.030  -7.662  0.00  0.00    +0.159 HD
ATOM      8  H   UNL     1      -8.136  -6.644  -5.497  0.00  0.00    +0.159 HD
ATOM      9  H   UNL     1      -7.645  -7.327  -6.998  0.00  0.00    +0.159 HD
ENDROOT
BRANCH   1  10
ATOM     10  C   UNL     1     -10.368  -6.924  -4.259  0.00  0.00    +0.151 C 
BRANCH  10  11
ATOM     11  C   UNL     1     -11.255  -7.532  -3.208  0.00  0.00    -0.028 A 
ATOM     12  C   UNL     1     -11.716  -8.850  -3.341  0.00  0.00    +0.005 A 
ATOM     13  C   UNL     1     -11.633  -6.798  -2.073  0.00  0.00    +0.005 A 
ATOM     14  C   UNL     1     -12.515  -9.426  -2.350  0.00  0.00    +0.000 A 
ATOM     15  C   UNL     1     -12.432  -7.376  -1.087  0.00  0.00    +0.000 A 
ATOM     16  C   UNL     1     -12.871  -8.691  -1.224  0.00  0.00    +0.000 A 
ENDBRANCH  10  11
ENDBRANCH   1  10
TORSDOF 2
ENDMDL
