MODEL 1
REMARK VINA RESULT:    -5.203      0.000      0.000
REMARK INTER + INTRA:          -5.968
REMARK INTER:                  -5.811
REMARK INTRA:                  -0.157
REMARK UNBOUND:                -0.157
REMARK  Name = 1550473
REMARK  2 active torsions:
REMARK  status: ('A' for Active; 'I' for Inactive)
REMARK    1  A    between atoms: N_1  and  C_4
REMARK    2  A    between atoms: C_4  and  C_5
REMARK                            x       y       z     vdW  Elec       q    Type
REMARK                         _______ _______ _______ _____ _____    ______ ____
ROOT
ATOM      1  N   UNL     1     -10.247   3.197 -10.488  0.00  0.00    -0.354 N 
ATOM      2  N   UNL     1     -10.977   4.056  -8.465  0.00  0.00    -0.372 N 
ATOM      3  N   UNL     1     -10.617   5.495 -10.215  0.00  0.00    -0.372 N 
ATOM      4  C   UNL     1     -10.608   4.246  -9.737  0.00  0.00    +0.166 C 
ATOM      5  H   UNL     1     -10.233   2.280 -10.057  0.00  0.00    +0.163 HD
ATOM      6  H   UNL     1     -11.258   4.828  -7.875  0.00  0.00    +0.159 HD
ATOM      7  H   UNL     1     -11.006   3.133  -8.050  0.00  0.00    +0.159 HD
ATOM      8  H   UNL     1     -10.344   5.707 -11.166  0.00  0.00    +0.159 HD
ATOM      9  H   UNL     1     -10.884   6.282  -9.637  0.00  0.00    +0.159 HD
ENDROOT
BRANCH   1  10
ATOM     10  C   UNL     1      -9.880   3.290 -11.900  0.00  0.00    +0.151 C 
BRANCH  10  11
ATOM     11  C   UNL     1     -10.875   2.513 -12.717  0.00  0.00    -0.028 A 
ATOM     12  C   UNL     1     -12.048   3.125 -13.183  0.00  0.00    +0.005 A 
ATOM     13  C   UNL     1     -10.648   1.165 -13.035  0.00  0.00    +0.005 A 
ATOM     14  C   UNL     1     -12.958   2.413 -13.967  0.00  0.00    +0.000 A 
ATOM     15  C   UNL     1     -11.559   0.456 -13.818  0.00  0.00    +0.000 A 
ATOM     16  C   UNL     1     -12.713   1.081 -14.286  0.00  0.00    +0.000 A 
ENDBRANCH  10  11
ENDBRANCH   1  10
TORSDOF 2
ENDMDL
MODEL 2
REMARK VINA RESULT:    -5.132     25.886     27.463
REMARK INTER + INTRA:          -5.889
REMARK INTER:                  -5.711
REMARK INTRA:                  -0.178
REMARK UNBOUND:                -0.157
REMARK  Name = 1550473
REMARK  2 active torsions:
REMARK  status: ('A' for Active; 'I' for Inactive)
REMARK    1  A    between atoms: N_1  and  C_4
REMARK    2  A    between atoms: C_4  and  C_5
REMARK                            x       y       z     vdW  Elec       q    Type
REMARK                         _______ _______ _______ _____ _____    ______ ____
ROOT
ATOM      1  N   UNL     1      12.229  -0.858   5.031  0.00  0.00    -0.354 N 
ATOM      2  N   UNL     1      12.078  -0.635   7.332  0.00  0.00    -0.372 N 
ATOM      3  N   UNL     1      11.460  -2.623   6.367  0.00  0.00    -0.372 N 
ATOM      4  C   UNL     1      11.923  -1.376   6.228  0.00  0.00    +0.166 C 
ATOM      5  H   UNL     1      12.547   0.104   4.990  0.00  0.00    +0.163 HD
ATOM      6  H   UNL     1      11.858  -1.000   8.249  0.00  0.00    +0.159 HD
ATOM      7  H   UNL     1      12.439   0.311   7.292  0.00  0.00    +0.159 HD
ATOM      8  H   UNL     1      11.315  -3.232   5.573  0.00  0.00    +0.159 HD
ATOM      9  H   UNL     1      11.224  -3.002   7.276  0.00  0.00    +0.159 HD
ENDROOT
BRANCH   1  10
ATOM     10  C   UNL     1      12.147  -1.599   3.774  0.00  0.00    +0.151 C 
BRANCH  10  11
ATOM     11  C   UNL     1      10.932  -1.144   3.014  0.00  0.00    -0.028 A 
ATOM     12  C   UNL     1       9.697  -1.785   3.195  0.00  0.00    +0.005 A 
ATOM     13  C   UNL     1      11.006  -0.068   2.117  0.00  0.00    +0.005 A 
ATOM     14  C   UNL     1       8.562  -1.343   2.512  0.00  0.00    +0.000 A 
ATOM     15  C   UNL     1       9.870   0.370   1.436  0.00  0.00    +0.000 A 
ATOM     16  C   UNL     1       8.648  -0.267   1.636  0.00  0.00    +0.000 A 
ENDBRANCH  10  11
ENDBRANCH   1  10
TORSDOF 2
ENDMDL
MODEL 3
REMARK VINA RESULT:    -5.123      0.222      1.471
REMARK INTER + INTRA:          -5.879
REMARK INTER:                  -5.724
REMARK INTRA:                  -0.156
REMARK UNBOUND:                -0.157
REMARK  Name = 1550473
REMARK  2 active torsions:
REMARK  status: ('A' for Active; 'I' for Inactive)
REMARK    1  A    between atoms: N_1  and  C_4
REMARK    2  A    between atoms: C_4  and  C_5
REMARK                            x       y       z     vdW  Elec       q    Type
REMARK                         _______ _______ _______ _____ _____    ______ ____
ROOT
ATOM      1  N   UNL     1     -10.272   3.188 -10.701  0.00  0.00    -0.354 N 
ATOM      2  N   UNL     1     -10.887   4.009  -8.624  0.00  0.00    -0.372 N 
ATOM      3  N   UNL     1     -10.648   5.478 -10.371  0.00  0.00    -0.372 N 
ATOM      4  C   UNL     1     -10.598   4.222  -9.914  0.00  0.00    +0.166 C 
ATOM      5  H   UNL     1     -10.223   2.264 -10.287  0.00  0.00    +0.163 HD
ATOM      6  H   UNL     1     -11.140   4.769  -8.007  0.00  0.00    +0.159 HD
ATOM      7  H   UNL     1     -10.882   3.079  -8.224  0.00  0.00    +0.159 HD
ATOM      8  H   UNL     1     -10.435   5.706 -11.333  0.00  0.00    +0.159 HD
ATOM      9  H   UNL     1     -10.888   6.253  -9.766  0.00  0.00    +0.159 HD
ENDROOT
BRANCH   1  10
ATOM     10  C   UNL     1      -9.993   3.306 -12.131  0.00  0.00    +0.151 C 
BRANCH  10  11
ATOM     11  C   UNL     1     -11.025   2.527 -12.899  0.00  0.00    -0.028 A 
ATOM     12  C   UNL     1     -10.812   1.176 -13.209  0.00  0.00    +0.005 A 
ATOM     13  C   UNL     1     -12.220   3.133 -13.315  0.00  0.00    +0.005 A 
ATOM     14  C   UNL     1     -11.784   0.444 -13.896  0.00  0.00    +0.000 A 
ATOM     15  C   UNL     1     -13.188   2.399 -14.001  0.00  0.00    +0.000 A 
ATOM     16  C   UNL     1     -12.970   1.054 -14.289  0.00  0.00    +0.000 A 
ENDBRANCH  10  11
ENDBRANCH   1  10
TORSDOF 2
ENDMDL
MODEL 4
REMARK VINA RESULT:    -4.937     26.203     28.002
REMARK INTER + INTRA:          -5.671
REMARK INTER:                  -5.550
REMARK INTRA:                  -0.122
REMARK UNBOUND:                -0.157
REMARK  Name = 1550473
REMARK  2 active torsions:
REMARK  status: ('A' for Active; 'I' for Inactive)
REMARK    1  A    between atoms: N_1  and  C_4
REMARK    2  A    between atoms: C_4  and  C_5
REMARK                            x       y       z     vdW  Elec       q    Type
REMARK                         _______ _______ _______ _____ _____    ______ ____
ROOT
ATOM      1  N   UNL     1       9.852  -1.857   2.855  0.00  0.00    -0.354 N 
ATOM      2  N   UNL     1       7.658  -1.367   2.296  0.00  0.00    -0.372 N 
ATOM      3  N   UNL     1       9.304   0.137   1.753  0.00  0.00    -0.372 N 
ATOM      4  C   UNL     1       8.954  -1.030   2.304  0.00  0.00    +0.166 C 
ATOM      5  H   UNL     1       9.518  -2.713   3.283  0.00  0.00    +0.163 HD
ATOM      6  H   UNL     1       6.958  -0.765   1.884  0.00  0.00    +0.159 HD
ATOM      7  H   UNL     1       7.334  -2.245   2.683  0.00  0.00    +0.159 HD
ATOM      8  H   UNL     1      10.264   0.453   1.733  0.00  0.00    +0.159 HD
ATOM      9  H   UNL     1       8.616   0.759   1.347  0.00  0.00    +0.159 HD
ENDROOT
BRANCH   1  10
ATOM     10  C   UNL     1      11.292  -1.609   2.868  0.00  0.00    +0.151 C 
BRANCH  10  11
ATOM     11  C   UNL     1      11.732  -1.342   4.281  0.00  0.00    -0.028 A 
ATOM     12  C   UNL     1      10.816  -1.428   5.340  0.00  0.00    +0.005 A 
ATOM     13  C   UNL     1      13.064  -1.008   4.569  0.00  0.00    +0.005 A 
ATOM     14  C   UNL     1      11.230  -1.209   6.656  0.00  0.00    +0.000 A 
ATOM     15  C   UNL     1      13.474  -0.790   5.884  0.00  0.00    +0.000 A 
ATOM     16  C   UNL     1      12.557  -0.893   6.928  0.00  0.00    +0.000 A 
ENDBRANCH  10  11
ENDBRANCH   1  10
TORSDOF 2
ENDMDL
MODEL 5
REMARK VINA RESULT:    -4.825     26.101     27.682
REMARK INTER + INTRA:          -5.546
REMARK INTER:                  -5.454
REMARK INTRA:                  -0.091
REMARK UNBOUND:                -0.157
REMARK  Name = 1550473
REMARK  2 active torsions:
REMARK  status: ('A' for Active; 'I' for Inactive)
REMARK    1  A    between atoms: N_1  and  C_4
REMARK    2  A    between atoms: C_4  and  C_5
REMARK                            x       y       z     vdW  Elec       q    Type
REMARK                         _______ _______ _______ _____ _____    ______ ____
ROOT
ATOM      1  N   UNL     1      11.351  -3.202   4.155  0.00  0.00    -0.354 N 
ATOM      2  N   UNL     1      11.548  -5.445   4.698  0.00  0.00    -0.372 N 
ATOM      3  N   UNL     1      11.986  -3.871   6.310  0.00  0.00    -0.372 N 
ATOM      4  C   UNL     1      11.628  -4.157   5.053  0.00  0.00    +0.166 C 
ATOM      5  H   UNL     1      11.115  -3.484   3.211  0.00  0.00    +0.163 HD
ATOM      6  H   UNL     1      11.747  -6.188   5.355  0.00  0.00    +0.159 HD
ATOM      7  H   UNL     1      11.267  -5.724   3.766  0.00  0.00    +0.159 HD
ATOM      8  H   UNL     1      12.071  -2.919   6.639  0.00  0.00    +0.159 HD
ATOM      9  H   UNL     1      12.201  -4.600   6.978  0.00  0.00    +0.159 HD
ENDROOT
BRANCH   1  10
ATOM     10  C   UNL     1      11.357  -1.771   4.455  0.00  0.00    +0.151 C 
BRANCH  10  11
ATOM     11  C   UNL     1      11.041  -1.005   3.200  0.00  0.00    -0.028 A 
ATOM     12  C   UNL     1       9.717  -0.884   2.754  0.00  0.00    +0.005 A 
ATOM     13  C   UNL     1      12.061  -0.393   2.456  0.00  0.00    +0.005 A 
ATOM     14  C   UNL     1       9.419  -0.147   1.605  0.00  0.00    +0.000 A 
ATOM     15  C   UNL     1      11.760   0.341   1.308  0.00  0.00    +0.000 A 
ATOM     16  C   UNL     1      10.439   0.466   0.885  0.00  0.00    +0.000 A 
ENDBRANCH  10  11
ENDBRANCH   1  10
TORSDOF 2
ENDMDL
MODEL 6
REMARK VINA RESULT:    -4.776     34.130     35.160
REMARK INTER + INTRA:          -5.491
REMARK INTER:                  -5.360
REMARK INTRA:                  -0.131
REMARK UNBOUND:                -0.157
REMARK  Name = 1550473
REMARK  2 active torsions:
REMARK  status: ('A' for Active; 'I' for Inactive)
REMARK    1  A    between atoms: N_1  and  C_4
REMARK    2  A    between atoms: C_4  and  C_5
REMARK                            x       y       z     vdW  Elec       q    Type
REMARK                         _______ _______ _______ _____ _____    ______ ____
ROOT
ATOM      1  N   UNL     1      12.980  -1.058  13.099  0.00  0.00    -0.354 N 
ATOM      2  N   UNL     1      12.334  -1.016  15.323  0.00  0.00    -0.372 N 
ATOM      3  N   UNL     1      11.419   0.509  13.874  0.00  0.00    -0.372 N 
ATOM      4  C   UNL     1      12.247  -0.519  14.083  0.00  0.00    +0.166 C 
ATOM      5  H   UNL     1      13.612  -1.816  13.329  0.00  0.00    +0.163 HD
ATOM      6  H   UNL     1      11.791  -0.633  16.085  0.00  0.00    +0.159 HD
ATOM      7  H   UNL     1      12.932  -1.805  15.541  0.00  0.00    +0.159 HD
ATOM      8  H   UNL     1      11.313   0.934  12.962  0.00  0.00    +0.159 HD
ATOM      9  H   UNL     1      10.876   0.914  14.626  0.00  0.00    +0.159 HD
ENDROOT
BRANCH   1  10
ATOM     10  C   UNL     1      12.919  -0.625  11.704  0.00  0.00    +0.151 C 
BRANCH  10  11
ATOM     11  C   UNL     1      14.307  -0.639  11.124  0.00  0.00    -0.028 A 
ATOM     12  C   UNL     1      15.378  -0.071  11.828  0.00  0.00    +0.005 A 
ATOM     13  C   UNL     1      14.558  -1.225   9.874  0.00  0.00    +0.005 A 
ATOM     14  C   UNL     1      16.673  -0.110  11.304  0.00  0.00    +0.000 A 
ATOM     15  C   UNL     1      15.851  -1.262   9.353  0.00  0.00    +0.000 A 
ATOM     16  C   UNL     1      16.909  -0.706  10.070  0.00  0.00    +0.000 A 
ENDBRANCH  10  11
ENDBRANCH   1  10
TORSDOF 2
ENDMDL
MODEL 7
REMARK VINA RESULT:    -4.673     15.574     16.540
REMARK INTER + INTRA:          -5.376
REMARK INTER:                  -5.253
REMARK INTRA:                  -0.124
REMARK UNBOUND:                -0.157
REMARK  Name = 1550473
REMARK  2 active torsions:
REMARK  status: ('A' for Active; 'I' for Inactive)
REMARK    1  A    between atoms: N_1  and  C_4
REMARK    2  A    between atoms: C_4  and  C_5
REMARK                            x       y       z     vdW  Elec       q    Type
REMARK                         _______ _______ _______ _____ _____    ______ ____
ROOT
ATOM      1  N   UNL     1       4.412   1.418 -12.498  0.00  0.00    -0.354 N 
ATOM      2  N   UNL     1       3.099   3.236 -11.919  0.00  0.00    -0.372 N 
ATOM      3  N   UNL     1       4.815   2.617 -10.526  0.00  0.00    -0.372 N 
ATOM      4  C   UNL     1       4.119   2.412 -11.649  0.00  0.00    +0.166 C 
ATOM      5  H   UNL     1       3.827   1.296 -13.317  0.00  0.00    +0.163 HD
ATOM      6  H   UNL     1       2.857   3.997 -11.298  0.00  0.00    +0.159 HD
ATOM      7  H   UNL     1       2.545   3.141 -12.761  0.00  0.00    +0.159 HD
ATOM      8  H   UNL     1       5.592   2.027 -10.262  0.00  0.00    +0.159 HD
ATOM      9  H   UNL     1       4.580   3.366  -9.887  0.00  0.00    +0.159 HD
ENDROOT
BRANCH   1  10
ATOM     10  C   UNL     1       5.534   0.498 -12.325  0.00  0.00    +0.151 C 
BRANCH  10  11
ATOM     11  C   UNL     1       5.487  -0.545 -13.407  0.00  0.00    -0.028 A 
ATOM     12  C   UNL     1       4.467  -0.526 -14.370  0.00  0.00    +0.005 A 
ATOM     13  C   UNL     1       6.461  -1.553 -13.477  0.00  0.00    +0.005 A 
ATOM     14  C   UNL     1       4.439  -1.477 -15.393  0.00  0.00    +0.000 A 
ATOM     15  C   UNL     1       6.429  -2.501 -14.499  0.00  0.00    +0.000 A 
ATOM     16  C   UNL     1       5.420  -2.462 -15.458  0.00  0.00    +0.000 A 
ENDBRANCH  10  11
ENDBRANCH   1  10
TORSDOF 2
ENDMDL
MODEL 8
REMARK VINA RESULT:    -4.637     16.203     17.115
REMARK INTER + INTRA:          -5.336
REMARK INTER:                  -5.215
REMARK INTRA:                  -0.122
REMARK UNBOUND:                -0.157
REMARK  Name = 1550473
REMARK  2 active torsions:
REMARK  status: ('A' for Active; 'I' for Inactive)
REMARK    1  A    between atoms: N_1  and  C_4
REMARK    2  A    between atoms: C_4  and  C_5
REMARK                            x       y       z     vdW  Elec       q    Type
REMARK                         _______ _______ _______ _____ _____    ______ ____
ROOT
ATOM      1  N   UNL     1       5.778   0.542 -12.149  0.00  0.00    -0.354 N 
ATOM      2  N   UNL     1       5.559   2.388 -10.767  0.00  0.00    -0.372 N 
ATOM      3  N   UNL     1       6.748   0.575 -10.016  0.00  0.00    -0.372 N 
ATOM      4  C   UNL     1       6.031   1.154 -10.985  0.00  0.00    +0.166 C 
ATOM      5  H   UNL     1       5.203   1.023 -12.831  0.00  0.00    +0.163 HD
ATOM      6  H   UNL     1       5.736   2.876  -9.900  0.00  0.00    +0.159 HD
ATOM      7  H   UNL     1       5.023   2.885 -11.469  0.00  0.00    +0.159 HD
ATOM      8  H   UNL     1       7.127  -0.357 -10.115  0.00  0.00    +0.159 HD
ATOM      9  H   UNL     1       6.926   1.043  -9.136  0.00  0.00    +0.159 HD
ENDROOT
BRANCH   1  10
ATOM     10  C   UNL     1       6.291  -0.779 -12.507  0.00  0.00    +0.151 C 
BRANCH  10  11
ATOM     11  C   UNL     1       5.627  -1.237 -13.776  0.00  0.00    -0.028 A 
ATOM     12  C   UNL     1       4.388  -0.706 -14.162  0.00  0.00    +0.005 A 
ATOM     13  C   UNL     1       6.235  -2.198 -14.599  0.00  0.00    +0.005 A 
ATOM     14  C   UNL     1       3.785  -1.109 -15.356  0.00  0.00    +0.000 A 
ATOM     15  C   UNL     1       5.629  -2.598 -15.790  0.00  0.00    +0.000 A 
ATOM     16  C   UNL     1       4.405  -2.052 -16.169  0.00  0.00    +0.000 A 
ENDBRANCH  10  11
ENDBRANCH   1  10
TORSDOF 2
ENDMDL
MODEL 9
REMARK VINA RESULT:    -4.571     25.256     26.207
REMARK INTER + INTRA:          -5.262
REMARK INTER:                  -5.127
REMARK INTRA:                  -0.135
REMARK UNBOUND:                -0.157
REMARK  Name = 1550473
REMARK  2 active torsions:
REMARK  status: ('A' for Active; 'I' for Inactive)
REMARK    1  A    between atoms: N_1  and  C_4
REMARK    2  A    between atoms: C_4  and  C_5
REMARK                            x       y       z     vdW  Elec       q    Type
REMARK                         _______ _______ _______ _____ _____    ______ ____
ROOT
ATOM      1  N   UNL     1      10.480  -0.895   2.243  0.00  0.00    -0.354 N 
ATOM      2  N   UNL     1       9.635  -2.291   3.886  0.00  0.00    -0.372 N 
ATOM      3  N   UNL     1       8.194  -1.400   2.339  0.00  0.00    -0.372 N 
ATOM      4  C   UNL     1       9.439  -1.518   2.811  0.00  0.00    +0.166 C 
ATOM      5  H   UNL     1      11.395  -1.001   2.667  0.00  0.00    +0.163 HD
ATOM      6  H   UNL     1       8.869  -2.777   4.334  0.00  0.00    +0.159 HD
ATOM      7  H   UNL     1      10.557  -2.433   4.280  0.00  0.00    +0.159 HD
ATOM      8  H   UNL     1       7.978  -0.827   1.534  0.00  0.00    +0.159 HD
ATOM      9  H   UNL     1       7.412  -1.869   2.781  0.00  0.00    +0.159 HD
ENDROOT
BRANCH   1  10
ATOM     10  C   UNL     1      10.383  -0.074   1.038  0.00  0.00    +0.151 C 
BRANCH  10  11
ATOM     11  C   UNL     1      11.493  -0.451   0.096  0.00  0.00    -0.028 A 
ATOM     12  C   UNL     1      11.686  -1.789  -0.278  0.00  0.00    +0.005 A 
ATOM     13  C   UNL     1      12.353   0.526  -0.430  0.00  0.00    +0.005 A 
ATOM     14  C   UNL     1      12.699  -2.136  -1.176  0.00  0.00    +0.000 A 
ATOM     15  C   UNL     1      13.363   0.176  -1.326  0.00  0.00    +0.000 A 
ATOM     16  C   UNL     1      13.534  -1.155  -1.700  0.00  0.00    +0.000 A 
ENDBRANCH  10  11
ENDBRANCH   1  10
TORSDOF 2
ENDMDL
