MODEL 1
REMARK VINA RESULT:    -5.995      0.000      0.000
REMARK INTER + INTRA:          -6.803
REMARK INTER:                  -6.696
REMARK INTRA:                  -0.107
REMARK UNBOUND:                -0.107
REMARK  Name = 1550473
REMARK  2 active torsions:
REMARK  status: ('A' for Active; 'I' for Inactive)
REMARK    1  A    between atoms: N_1  and  C_4
REMARK    2  A    between atoms: C_4  and  C_5
REMARK                            x       y       z     vdW  Elec       q    Type
REMARK                         _______ _______ _______ _____ _____    ______ ____
ROOT
ATOM      1  N   UNL     1      -8.706   5.358  21.038  0.00  0.00    -0.354 N 
ATOM      2  N   UNL     1     -10.463   6.851  20.818  0.00  0.00    -0.372 N 
ATOM      3  N   UNL     1     -10.563   5.254  22.463  0.00  0.00    -0.372 N 
ATOM      4  C   UNL     1      -9.900   5.809  21.443  0.00  0.00    +0.166 C 
ATOM      5  H   UNL     1      -8.268   5.803  20.239  0.00  0.00    +0.163 HD
ATOM      6  H   UNL     1     -11.361   7.216  21.104  0.00  0.00    +0.159 HD
ATOM      7  H   UNL     1     -10.002   7.323  20.050  0.00  0.00    +0.159 HD
ATOM      8  H   UNL     1     -10.196   4.461  22.972  0.00  0.00    +0.159 HD
ATOM      9  H   UNL     1     -11.469   5.598  22.756  0.00  0.00    +0.159 HD
ENDROOT
BRANCH   1  10
ATOM     10  C   UNL     1      -7.982   4.264  21.685  0.00  0.00    +0.151 C 
BRANCH  10  11
ATOM     11  C   UNL     1      -6.529   4.346  21.307  0.00  0.00    -0.028 A 
ATOM     12  C   UNL     1      -6.150   4.546  19.972  0.00  0.00    +0.005 A 
ATOM     13  C   UNL     1      -5.526   4.229  22.282  0.00  0.00    +0.005 A 
ATOM     14  C   UNL     1      -4.801   4.652  19.625  0.00  0.00    +0.000 A 
ATOM     15  C   UNL     1      -4.180   4.334  21.931  0.00  0.00    +0.000 A 
ATOM     16  C   UNL     1      -3.818   4.548  20.604  0.00  0.00    +0.000 A 
ENDBRANCH  10  11
ENDBRANCH   1  10
TORSDOF 2
ENDMDL
MODEL 2
REMARK VINA RESULT:    -5.162     16.365     17.028
REMARK INTER + INTRA:          -5.873
REMARK INTER:                  -5.729
REMARK INTRA:                  -0.145
REMARK UNBOUND:                -0.107
REMARK  Name = 1550473
REMARK  2 active torsions:
REMARK  status: ('A' for Active; 'I' for Inactive)
REMARK    1  A    between atoms: N_1  and  C_4
REMARK    2  A    between atoms: C_4  and  C_5
REMARK                            x       y       z     vdW  Elec       q    Type
REMARK                         _______ _______ _______ _____ _____    ______ ____
ROOT
ATOM      1  N   UNL     1      -8.797 -11.334  13.795  0.00  0.00    -0.354 N 
ATOM      2  N   UNL     1      -9.723 -12.839  12.297  0.00  0.00    -0.372 N 
ATOM      3  N   UNL     1      -9.735 -13.350  14.534  0.00  0.00    -0.372 N 
ATOM      4  C   UNL     1      -9.412 -12.499  13.554  0.00  0.00    +0.166 C 
ATOM      5  H   UNL     1      -8.552 -10.747  13.005  0.00  0.00    +0.163 HD
ATOM      6  H   UNL     1     -10.190 -13.710  12.085  0.00  0.00    +0.159 HD
ATOM      7  H   UNL     1      -9.518 -12.229  11.515  0.00  0.00    +0.159 HD
ATOM      8  H   UNL     1      -9.524 -13.155  15.503  0.00  0.00    +0.159 HD
ATOM      9  H   UNL     1     -10.193 -14.232  14.341  0.00  0.00    +0.159 HD
ENDROOT
BRANCH   1  10
ATOM     10  C   UNL     1      -8.463 -10.846  15.132  0.00  0.00    +0.151 C 
BRANCH  10  11
ATOM     11  C   UNL     1      -9.236  -9.584  15.401  0.00  0.00    -0.028 A 
ATOM     12  C   UNL     1      -9.195  -8.517  14.492  0.00  0.00    +0.005 A 
ATOM     13  C   UNL     1     -10.016  -9.452  16.560  0.00  0.00    +0.005 A 
ATOM     14  C   UNL     1      -9.936  -7.356  14.726  0.00  0.00    +0.000 A 
ATOM     15  C   UNL     1     -10.754  -8.291  16.791  0.00  0.00    +0.000 A 
ATOM     16  C   UNL     1     -10.716  -7.245  15.873  0.00  0.00    +0.000 A 
ENDBRANCH  10  11
ENDBRANCH   1  10
TORSDOF 2
ENDMDL
MODEL 3
REMARK VINA RESULT:    -5.126     14.679     15.492
REMARK INTER + INTRA:          -5.833
REMARK INTER:                  -5.735
REMARK INTRA:                  -0.098
REMARK UNBOUND:                -0.107
REMARK  Name = 1550473
REMARK  2 active torsions:
REMARK  status: ('A' for Active; 'I' for Inactive)
REMARK    1  A    between atoms: N_1  and  C_4
REMARK    2  A    between atoms: C_4  and  C_5
REMARK                            x       y       z     vdW  Elec       q    Type
REMARK                         _______ _______ _______ _____ _____    ______ ____
ROOT
ATOM      1  N   UNL     1      -8.469  -9.321  14.587  0.00  0.00    -0.354 N 
ATOM      2  N   UNL     1      -6.488 -10.195  13.765  0.00  0.00    -0.372 N 
ATOM      3  N   UNL     1      -8.340 -11.546  13.864  0.00  0.00    -0.372 N 
ATOM      4  C   UNL     1      -7.780 -10.351  14.077  0.00  0.00    +0.166 C 
ATOM      5  H   UNL     1      -7.979  -8.449  14.753  0.00  0.00    +0.163 HD
ATOM      6  H   UNL     1      -5.944 -10.953  13.375  0.00  0.00    +0.159 HD
ATOM      7  H   UNL     1      -6.013  -9.310  13.888  0.00  0.00    +0.159 HD
ATOM      8  H   UNL     1      -9.310 -11.730  14.084  0.00  0.00    +0.159 HD
ATOM      9  H   UNL     1      -7.809 -12.320  13.486  0.00  0.00    +0.159 HD
ENDROOT
BRANCH   1  10
ATOM     10  C   UNL     1      -9.894  -9.370  14.911  0.00  0.00    +0.151 C 
BRANCH  10  11
ATOM     11  C   UNL     1     -10.322  -8.030  15.443  0.00  0.00    -0.028 A 
ATOM     12  C   UNL     1     -10.247  -6.886  14.637  0.00  0.00    +0.005 A 
ATOM     13  C   UNL     1     -10.811  -7.900  16.753  0.00  0.00    +0.005 A 
ATOM     14  C   UNL     1     -10.674  -5.647  15.121  0.00  0.00    +0.000 A 
ATOM     15  C   UNL     1     -11.235  -6.661  17.233  0.00  0.00    +0.000 A 
ATOM     16  C   UNL     1     -11.168  -5.535  16.416  0.00  0.00    +0.000 A 
ENDBRANCH  10  11
ENDBRANCH   1  10
TORSDOF 2
ENDMDL
MODEL 4
REMARK VINA RESULT:    -5.084      9.273     10.614
REMARK INTER + INTRA:          -5.786
REMARK INTER:                  -5.655
REMARK INTRA:                  -0.131
REMARK UNBOUND:                -0.107
REMARK  Name = 1550473
REMARK  2 active torsions:
REMARK  status: ('A' for Active; 'I' for Inactive)
REMARK    1  A    between atoms: N_1  and  C_4
REMARK    2  A    between atoms: C_4  and  C_5
REMARK                            x       y       z     vdW  Elec       q    Type
REMARK                         _______ _______ _______ _____ _____    ______ ____
ROOT
ATOM      1  N   UNL     1       3.409   6.272  24.049  0.00  0.00    -0.354 N 
ATOM      2  N   UNL     1       4.848   5.001  22.755  0.00  0.00    -0.372 N 
ATOM      3  N   UNL     1       3.672   6.702  21.761  0.00  0.00    -0.372 N 
ATOM      4  C   UNL     1       3.966   6.002  22.861  0.00  0.00    +0.166 C 
ATOM      5  H   UNL     1       3.650   5.685  24.839  0.00  0.00    +0.163 HD
ATOM      6  H   UNL     1       5.287   4.775  21.872  0.00  0.00    +0.159 HD
ATOM      7  H   UNL     1       5.122   4.444  23.555  0.00  0.00    +0.159 HD
ATOM      8  H   UNL     1       3.010   7.467  21.773  0.00  0.00    +0.159 HD
ATOM      9  H   UNL     1       4.093   6.485  20.866  0.00  0.00    +0.159 HD
ENDROOT
BRANCH   1  10
ATOM     10  C   UNL     1       2.478   7.375  24.284  0.00  0.00    +0.151 C 
BRANCH  10  11
ATOM     11  C   UNL     1       1.160   6.815  24.745  0.00  0.00    -0.028 A 
ATOM     12  C   UNL     1       0.122   7.672  25.140  0.00  0.00    +0.005 A 
ATOM     13  C   UNL     1       0.942   5.430  24.784  0.00  0.00    +0.005 A 
ATOM     14  C   UNL     1      -1.112   7.154  25.540  0.00  0.00    +0.000 A 
ATOM     15  C   UNL     1      -0.292   4.916  25.185  0.00  0.00    +0.000 A 
ATOM     16  C   UNL     1      -1.319   5.779  25.560  0.00  0.00    +0.000 A 
ENDBRANCH  10  11
ENDBRANCH   1  10
TORSDOF 2
ENDMDL
MODEL 5
REMARK VINA RESULT:    -5.042     14.982     15.781
REMARK INTER + INTRA:          -5.739
REMARK INTER:                  -5.612
REMARK INTRA:                  -0.127
REMARK UNBOUND:                -0.107
REMARK  Name = 1550473
REMARK  2 active torsions:
REMARK  status: ('A' for Active; 'I' for Inactive)
REMARK    1  A    between atoms: N_1  and  C_4
REMARK    2  A    between atoms: C_4  and  C_5
REMARK                            x       y       z     vdW  Elec       q    Type
REMARK                         _______ _______ _______ _____ _____    ______ ____
ROOT
ATOM      1  N   UNL     1      -9.147 -10.267  16.002  0.00  0.00    -0.354 N 
ATOM      2  N   UNL     1      -8.612 -12.264  17.046  0.00  0.00    -0.372 N 
ATOM      3  N   UNL     1      -9.296 -12.306  14.856  0.00  0.00    -0.372 N 
ATOM      4  C   UNL     1      -9.023 -11.601  15.959  0.00  0.00    +0.166 C 
ATOM      5  H   UNL     1      -8.953  -9.794  16.877  0.00  0.00    +0.163 HD
ATOM      6  H   UNL     1      -8.506 -13.270  17.043  0.00  0.00    +0.159 HD
ATOM      7  H   UNL     1      -8.375 -11.784  17.906  0.00  0.00    +0.159 HD
ATOM      8  H   UNL     1      -9.616 -11.866  14.004  0.00  0.00    +0.159 HD
ATOM      9  H   UNL     1      -9.207 -13.315  14.837  0.00  0.00    +0.159 HD
ENDROOT
BRANCH   1  10
ATOM     10  C   UNL     1      -9.535  -9.445  14.857  0.00  0.00    +0.151 C 
BRANCH  10  11
ATOM     11  C   UNL     1     -10.103  -8.145  15.357  0.00  0.00    -0.028 A 
ATOM     12  C   UNL     1     -10.629  -8.049  16.653  0.00  0.00    +0.005 A 
ATOM     13  C   UNL     1     -10.113  -7.004  14.540  0.00  0.00    +0.005 A 
ATOM     14  C   UNL     1     -11.129  -6.834  17.128  0.00  0.00    +0.000 A 
ATOM     15  C   UNL     1     -10.614  -5.793  15.017  0.00  0.00    +0.000 A 
ATOM     16  C   UNL     1     -11.120  -5.708  16.312  0.00  0.00    +0.000 A 
ENDBRANCH  10  11
ENDBRANCH   1  10
TORSDOF 2
ENDMDL
MODEL 6
REMARK VINA RESULT:    -4.971     29.170     30.609
REMARK INTER + INTRA:          -5.659
REMARK INTER:                  -5.527
REMARK INTRA:                  -0.132
REMARK UNBOUND:                -0.107
REMARK  Name = 1550473
REMARK  2 active torsions:
REMARK  status: ('A' for Active; 'I' for Inactive)
REMARK    1  A    between atoms: N_1  and  C_4
REMARK    2  A    between atoms: C_4  and  C_5
REMARK                            x       y       z     vdW  Elec       q    Type
REMARK                         _______ _______ _______ _____ _____    ______ ____
ROOT
ATOM      1  N   UNL     1       8.922 -13.244   4.822  0.00  0.00    -0.354 N 
ATOM      2  N   UNL     1       9.031 -10.931   4.780  0.00  0.00    -0.372 N 
ATOM      3  N   UNL     1      10.919 -12.140   4.290  0.00  0.00    -0.372 N 
ATOM      4  C   UNL     1       9.626 -12.121   4.631  0.00  0.00    +0.166 C 
ATOM      5  H   UNL     1       7.953 -13.162   5.108  0.00  0.00    +0.163 HD
ATOM      6  H   UNL     1       9.536 -10.066   4.638  0.00  0.00    +0.159 HD
ATOM      7  H   UNL     1       8.051 -10.852   5.021  0.00  0.00    +0.159 HD
ATOM      8  H   UNL     1      11.428 -13.005   4.168  0.00  0.00    +0.159 HD
ATOM      9  H   UNL     1      11.444 -11.285   4.156  0.00  0.00    +0.159 HD
ENDROOT
BRANCH   1  10
ATOM     10  C   UNL     1       9.461 -14.589   4.633  0.00  0.00    +0.151 C 
BRANCH  10  11
ATOM     11  C   UNL     1       8.407 -15.456   4.000  0.00  0.00    -0.028 A 
ATOM     12  C   UNL     1       7.061 -15.063   4.010  0.00  0.00    +0.005 A 
ATOM     13  C   UNL     1       8.750 -16.669   3.382  0.00  0.00    +0.005 A 
ATOM     14  C   UNL     1       6.086 -15.853   3.396  0.00  0.00    +0.000 A 
ATOM     15  C   UNL     1       7.774 -17.455   2.771  0.00  0.00    +0.000 A 
ATOM     16  C   UNL     1       6.442 -17.046   2.776  0.00  0.00    +0.000 A 
ENDBRANCH  10  11
ENDBRANCH   1  10
TORSDOF 2
ENDMDL
MODEL 7
REMARK VINA RESULT:    -4.741     32.969     34.234
REMARK INTER + INTRA:          -5.403
REMARK INTER:                  -5.256
REMARK INTRA:                  -0.146
REMARK UNBOUND:                -0.107
REMARK  Name = 1550473
REMARK  2 active torsions:
REMARK  status: ('A' for Active; 'I' for Inactive)
REMARK    1  A    between atoms: N_1  and  C_4
REMARK    2  A    between atoms: C_4  and  C_5
REMARK                            x       y       z     vdW  Elec       q    Type
REMARK                         _______ _______ _______ _____ _____    ______ ____
ROOT
ATOM      1  N   UNL     1       4.846   5.503  -9.618  0.00  0.00    -0.354 N 
ATOM      2  N   UNL     1       6.054   7.469  -9.806  0.00  0.00    -0.372 N 
ATOM      3  N   UNL     1       7.131   5.568  -9.106  0.00  0.00    -0.372 N 
ATOM      4  C   UNL     1       6.004   6.166  -9.508  0.00  0.00    +0.166 C 
ATOM      5  H   UNL     1       4.020   6.020  -9.899  0.00  0.00    +0.163 HD
ATOM      6  H   UNL     1       6.915   7.995  -9.736  0.00  0.00    +0.159 HD
ATOM      7  H   UNL     1       5.238   7.973 -10.131  0.00  0.00    +0.159 HD
ATOM      8  H   UNL     1       7.159   4.588  -8.860  0.00  0.00    +0.159 HD
ATOM      9  H   UNL     1       8.000   6.080  -9.017  0.00  0.00    +0.159 HD
ENDROOT
BRANCH   1  10
ATOM     10  C   UNL     1       4.696   4.070  -9.369  0.00  0.00    +0.151 C 
BRANCH  10  11
ATOM     11  C   UNL     1       4.109   3.418 -10.590  0.00  0.00    -0.028 A 
ATOM     12  C   UNL     1       4.041   2.020 -10.688  0.00  0.00    +0.005 A 
ATOM     13  C   UNL     1       3.614   4.192 -11.651  0.00  0.00    +0.005 A 
ATOM     14  C   UNL     1       3.468   1.414 -11.809  0.00  0.00    +0.000 A 
ATOM     15  C   UNL     1       3.044   3.583 -12.769  0.00  0.00    +0.000 A 
ATOM     16  C   UNL     1       2.969   2.194 -12.846  0.00  0.00    +0.000 A 
ENDBRANCH  10  11
ENDBRANCH   1  10
TORSDOF 2
ENDMDL
MODEL 8
REMARK VINA RESULT:    -4.646     14.822     15.680
REMARK INTER + INTRA:          -5.296
REMARK INTER:                  -5.138
REMARK INTRA:                  -0.159
REMARK UNBOUND:                -0.107
REMARK  Name = 1550473
REMARK  2 active torsions:
REMARK  status: ('A' for Active; 'I' for Inactive)
REMARK    1  A    between atoms: N_1  and  C_4
REMARK    2  A    between atoms: C_4  and  C_5
REMARK                            x       y       z     vdW  Elec       q    Type
REMARK                         _______ _______ _______ _____ _____    ______ ____
ROOT
ATOM      1  N   UNL     1      -8.660  -8.831  14.553  0.00  0.00    -0.354 N 
ATOM      2  N   UNL     1      -6.732  -9.998  14.018  0.00  0.00    -0.372 N 
ATOM      3  N   UNL     1      -8.764 -11.026  13.740  0.00  0.00    -0.372 N 
ATOM      4  C   UNL     1      -8.067  -9.946  14.107  0.00  0.00    +0.166 C 
ATOM      5  H   UNL     1      -8.074  -8.057  14.844  0.00  0.00    +0.163 HD
ATOM      6  H   UNL     1      -6.256 -10.824  13.682  0.00  0.00    +0.159 HD
ATOM      7  H   UNL     1      -6.151  -9.206  14.267  0.00  0.00    +0.159 HD
ATOM      8  H   UNL     1      -9.774 -11.054  13.788  0.00  0.00    +0.159 HD
ATOM      9  H   UNL     1      -8.306 -11.867  13.411  0.00  0.00    +0.159 HD
ENDROOT
BRANCH   1  10
ATOM     10  C   UNL     1     -10.109  -8.653  14.637  0.00  0.00    +0.151 C 
BRANCH  10  11
ATOM     11  C   UNL     1     -10.490  -8.392  16.068  0.00  0.00    -0.028 A 
ATOM     12  C   UNL     1     -10.927  -7.121  16.468  0.00  0.00    +0.005 A 
ATOM     13  C   UNL     1     -10.421  -9.414  17.028  0.00  0.00    +0.005 A 
ATOM     14  C   UNL     1     -11.309  -6.886  17.791  0.00  0.00    +0.000 A 
ATOM     15  C   UNL     1     -10.803  -9.175  18.348  0.00  0.00    +0.000 A 
ATOM     16  C   UNL     1     -11.250  -7.912  18.728  0.00  0.00    +0.000 A 
ENDBRANCH  10  11
ENDBRANCH   1  10
TORSDOF 2
ENDMDL
MODEL 9
REMARK VINA RESULT:    -4.633      9.102      9.508
REMARK INTER + INTRA:          -5.282
REMARK INTER:                  -5.159
REMARK INTRA:                  -0.123
REMARK UNBOUND:                -0.107
REMARK  Name = 1550473
REMARK  2 active torsions:
REMARK  status: ('A' for Active; 'I' for Inactive)
REMARK    1  A    between atoms: N_1  and  C_4
REMARK    2  A    between atoms: C_4  and  C_5
REMARK                            x       y       z     vdW  Elec       q    Type
REMARK                         _______ _______ _______ _____ _____    ______ ____
ROOT
ATOM      1  N   UNL     1       0.268   7.388  25.500  0.00  0.00    -0.354 N 
ATOM      2  N   UNL     1      -1.150   9.102  26.144  0.00  0.00    -0.372 N 
ATOM      3  N   UNL     1      -1.005   7.229  27.461  0.00  0.00    -0.372 N 
ATOM      4  C   UNL     1      -0.620   7.893  26.366  0.00  0.00    +0.166 C 
ATOM      5  H   UNL     1       0.496   7.929  24.673  0.00  0.00    +0.163 HD
ATOM      6  H   UNL     1      -1.819   9.511  26.782  0.00  0.00    +0.159 HD
ATOM      7  H   UNL     1      -0.886   9.660  25.341  0.00  0.00    +0.159 HD
ATOM      8  H   UNL     1      -0.647   6.309  27.683  0.00  0.00    +0.159 HD
ATOM      9  H   UNL     1      -1.683   7.616  28.105  0.00  0.00    +0.159 HD
ENDROOT
BRANCH   1  10
ATOM     10  C   UNL     1       0.944   6.104  25.677  0.00  0.00    +0.151 C 
BRANCH  10  11
ATOM     11  C   UNL     1       1.888   5.883  24.527  0.00  0.00    -0.028 A 
ATOM     12  C   UNL     1       2.178   6.924  23.633  0.00  0.00    +0.005 A 
ATOM     13  C   UNL     1       2.501   4.636  24.330  0.00  0.00    +0.005 A 
ATOM     14  C   UNL     1       3.078   6.728  22.583  0.00  0.00    +0.000 A 
ATOM     15  C   UNL     1       3.399   4.444  23.280  0.00  0.00    +0.000 A 
ATOM     16  C   UNL     1       3.688   5.491  22.408  0.00  0.00    +0.000 A 
ENDBRANCH  10  11
ENDBRANCH   1  10
TORSDOF 2
ENDMDL
