MODEL 1
REMARK VINA RESULT:    -5.079      0.000      0.000
REMARK INTER + INTRA:          -5.835
REMARK INTER:                  -5.672
REMARK INTRA:                  -0.162
REMARK UNBOUND:                -0.162
REMARK  Name = 1550473
REMARK  2 active torsions:
REMARK  status: ('A' for Active; 'I' for Inactive)
REMARK    1  A    between atoms: N_1  and  C_4
REMARK    2  A    between atoms: C_4  and  C_5
REMARK                            x       y       z     vdW  Elec       q    Type
REMARK                         _______ _______ _______ _____ _____    ______ ____
ROOT
ATOM      1  N   UNL     1      -7.540 -10.208 -20.498  0.00  0.00    -0.354 N 
ATOM      2  N   UNL     1      -6.334 -10.773 -22.393  0.00  0.00    -0.372 N 
ATOM      3  N   UNL     1      -8.192 -12.006 -21.852  0.00  0.00    -0.372 N 
ATOM      4  C   UNL     1      -7.365 -10.994 -21.569  0.00  0.00    +0.166 C 
ATOM      5  H   UNL     1      -6.860  -9.477 -20.322  0.00  0.00    +0.163 HD
ATOM      6  H   UNL     1      -6.179 -11.348 -23.210  0.00  0.00    +0.159 HD
ATOM      7  H   UNL     1      -5.683 -10.013 -22.240  0.00  0.00    +0.159 HD
ATOM      8  H   UNL     1      -8.986 -12.229 -21.266  0.00  0.00    +0.159 HD
ATOM      9  H   UNL     1      -8.047 -12.599 -22.659  0.00  0.00    +0.159 HD
ENDROOT
BRANCH   1  10
ATOM     10  C   UNL     1      -8.661 -10.330 -19.568  0.00  0.00    +0.151 C 
BRANCH  10  11
ATOM     11  C   UNL     1      -8.164 -10.912 -18.273  0.00  0.00    -0.028 A 
ATOM     12  C   UNL     1      -7.021 -10.389 -17.650  0.00  0.00    +0.005 A 
ATOM     13  C   UNL     1      -8.834 -11.983 -17.662  0.00  0.00    +0.005 A 
ATOM     14  C   UNL     1      -6.577 -10.910 -16.432  0.00  0.00    +0.000 A 
ATOM     15  C   UNL     1      -8.386 -12.500 -16.447  0.00  0.00    +0.000 A 
ATOM     16  C   UNL     1      -7.259 -11.962 -15.831  0.00  0.00    +0.000 A 
ENDBRANCH  10  11
ENDBRANCH   1  10
TORSDOF 2
ENDMDL
MODEL 2
REMARK VINA RESULT:    -4.780      2.906      3.848
REMARK INTER + INTRA:          -5.502
REMARK INTER:                  -5.370
REMARK INTRA:                  -0.132
REMARK UNBOUND:                -0.162
REMARK  Name = 1550473
REMARK  2 active torsions:
REMARK  status: ('A' for Active; 'I' for Inactive)
REMARK    1  A    between atoms: N_1  and  C_4
REMARK    2  A    between atoms: C_4  and  C_5
REMARK                            x       y       z     vdW  Elec       q    Type
REMARK                         _______ _______ _______ _____ _____    ______ ____
ROOT
ATOM      1  N   UNL     1     -10.471 -12.203 -18.454  0.00  0.00    -0.354 N 
ATOM      2  N   UNL     1     -12.604 -12.992 -18.014  0.00  0.00    -0.372 N 
ATOM      3  N   UNL     1     -12.365 -11.059 -19.227  0.00  0.00    -0.372 N 
ATOM      4  C   UNL     1     -11.800 -12.077 -18.569  0.00  0.00    +0.166 C 
ATOM      5  H   UNL     1     -10.106 -12.981 -17.917  0.00  0.00    +0.163 HD
ATOM      6  H   UNL     1     -13.610 -12.925 -18.088  0.00  0.00    +0.159 HD
ATOM      7  H   UNL     1     -12.235 -13.794 -17.517  0.00  0.00    +0.159 HD
ATOM      8  H   UNL     1     -11.814 -10.332 -19.664  0.00  0.00    +0.159 HD
ATOM      9  H   UNL     1     -13.370 -10.968 -19.302  0.00  0.00    +0.159 HD
ENDROOT
BRANCH   1  10
ATOM     10  C   UNL     1      -9.507 -11.291 -19.067  0.00  0.00    +0.151 C 
BRANCH  10  11
ATOM     11  C   UNL     1      -8.262 -11.253 -18.224  0.00  0.00    -0.028 A 
ATOM     12  C   UNL     1      -8.264 -11.789 -16.928  0.00  0.00    +0.005 A 
ATOM     13  C   UNL     1      -7.077 -10.687 -18.717  0.00  0.00    +0.005 A 
ATOM     14  C   UNL     1      -7.100 -11.781 -16.156  0.00  0.00    +0.000 A 
ATOM     15  C   UNL     1      -5.917 -10.680 -17.943  0.00  0.00    +0.000 A 
ATOM     16  C   UNL     1      -5.928 -11.229 -16.663  0.00  0.00    +0.000 A 
ENDBRANCH  10  11
ENDBRANCH   1  10
TORSDOF 2
ENDMDL
MODEL 3
REMARK VINA RESULT:    -4.637     13.746     14.699
REMARK INTER + INTRA:          -5.341
REMARK INTER:                  -5.194
REMARK INTRA:                  -0.147
REMARK UNBOUND:                -0.162
REMARK  Name = 1550473
REMARK  2 active torsions:
REMARK  status: ('A' for Active; 'I' for Inactive)
REMARK    1  A    between atoms: N_1  and  C_4
REMARK    2  A    between atoms: C_4  and  C_5
REMARK                            x       y       z     vdW  Elec       q    Type
REMARK                         _______ _______ _______ _____ _____    ______ ____
ROOT
ATOM      1  N   UNL     1     -14.251  -1.159 -10.461  0.00  0.00    -0.354 N 
ATOM      2  N   UNL     1     -14.584   0.875  -9.406  0.00  0.00    -0.372 N 
ATOM      3  N   UNL     1     -15.161  -1.053  -8.304  0.00  0.00    -0.372 N 
ATOM      4  C   UNL     1     -14.665  -0.461  -9.395  0.00  0.00    +0.166 C 
ATOM      5  H   UNL     1     -13.913  -0.650 -11.269  0.00  0.00    +0.163 HD
ATOM      6  H   UNL     1     -14.885   1.429  -8.615  0.00  0.00    +0.159 HD
ATOM      7  H   UNL     1     -14.203   1.380 -10.197  0.00  0.00    +0.159 HD
ATOM      8  H   UNL     1     -15.254  -2.057  -8.235  0.00  0.00    +0.159 HD
ATOM      9  H   UNL     1     -15.478  -0.515  -7.507  0.00  0.00    +0.159 HD
ENDROOT
BRANCH   1  10
ATOM     10  C   UNL     1     -14.246  -2.620 -10.530  0.00  0.00    +0.151 C 
BRANCH  10  11
ATOM     11  C   UNL     1     -15.112  -3.060 -11.678  0.00  0.00    -0.028 A 
ATOM     12  C   UNL     1     -15.710  -4.329 -11.672  0.00  0.00    +0.005 A 
ATOM     13  C   UNL     1     -15.343  -2.212 -12.771  0.00  0.00    +0.005 A 
ATOM     14  C   UNL     1     -16.539  -4.727 -12.724  0.00  0.00    +0.000 A 
ATOM     15  C   UNL     1     -16.170  -2.614 -13.820  0.00  0.00    +0.000 A 
ATOM     16  C   UNL     1     -16.770  -3.870 -13.795  0.00  0.00    +0.000 A 
ENDBRANCH  10  11
ENDBRANCH   1  10
TORSDOF 2
ENDMDL
MODEL 4
REMARK VINA RESULT:    -4.492     39.489     41.061
REMARK INTER + INTRA:          -5.180
REMARK INTER:                  -5.040
REMARK INTRA:                  -0.140
REMARK UNBOUND:                -0.162
REMARK  Name = 1550473
REMARK  2 active torsions:
REMARK  status: ('A' for Active; 'I' for Inactive)
REMARK    1  A    between atoms: N_1  and  C_4
REMARK    2  A    between atoms: C_4  and  C_5
REMARK                            x       y       z     vdW  Elec       q    Type
REMARK                         _______ _______ _______ _____ _____    ______ ____
ROOT
ATOM      1  N   UNL     1      11.947  11.366   6.608  0.00  0.00    -0.354 N 
ATOM      2  N   UNL     1      11.323   9.240   5.934  0.00  0.00    -0.372 N 
ATOM      3  N   UNL     1       9.709  10.678   6.704  0.00  0.00    -0.372 N 
ATOM      4  C   UNL     1      10.994  10.443   6.421  0.00  0.00    +0.166 C 
ATOM      5  H   UNL     1      12.907  11.116   6.402  0.00  0.00    +0.163 HD
ATOM      6  H   UNL     1      10.625   8.525   5.779  0.00  0.00    +0.159 HD
ATOM      7  H   UNL     1      12.277   9.008   5.685  0.00  0.00    +0.159 HD
ATOM      8  H   UNL     1       9.397  11.563   7.080  0.00  0.00    +0.159 HD
ATOM      9  H   UNL     1       8.998   9.971   6.567  0.00  0.00    +0.159 HD
ENDROOT
BRANCH   1  10
ATOM     10  C   UNL     1      11.687  12.724   7.082  0.00  0.00    +0.151 C 
BRANCH  10  11
ATOM     11  C   UNL     1      12.711  13.085   8.124  0.00  0.00    -0.028 A 
ATOM     12  C   UNL     1      12.742  14.374   8.675  0.00  0.00    +0.005 A 
ATOM     13  C   UNL     1      13.648  12.140   8.568  0.00  0.00    +0.005 A 
ATOM     14  C   UNL     1      13.673  14.701   9.664  0.00  0.00    +0.000 A 
ATOM     15  C   UNL     1      14.577  12.470   9.555  0.00  0.00    +0.000 A 
ATOM     16  C   UNL     1      14.587  13.750  10.104  0.00  0.00    +0.000 A 
ENDBRANCH  10  11
ENDBRANCH   1  10
TORSDOF 2
ENDMDL
MODEL 5
REMARK VINA RESULT:    -4.463     39.778     41.377
REMARK INTER + INTRA:          -5.148
REMARK INTER:                  -5.022
REMARK INTRA:                  -0.125
REMARK UNBOUND:                -0.162
REMARK  Name = 1550473
REMARK  2 active torsions:
REMARK  status: ('A' for Active; 'I' for Inactive)
REMARK    1  A    between atoms: N_1  and  C_4
REMARK    2  A    between atoms: C_4  and  C_5
REMARK                            x       y       z     vdW  Elec       q    Type
REMARK                         _______ _______ _______ _____ _____    ______ ____
ROOT
ATOM      1  N   UNL     1      11.317  12.026   7.584  0.00  0.00    -0.354 N 
ATOM      2  N   UNL     1       9.739  10.647   6.595  0.00  0.00    -0.372 N 
ATOM      3  N   UNL     1      10.555  12.431   5.405  0.00  0.00    -0.372 N 
ATOM      4  C   UNL     1      10.548  11.713   6.532  0.00  0.00    +0.166 C 
ATOM      5  H   UNL     1      11.242  11.459   8.420  0.00  0.00    +0.163 HD
ATOM      6  H   UNL     1       9.150  10.384   5.817  0.00  0.00    +0.159 HD
ATOM      7  H   UNL     1       9.701  10.055   7.416  0.00  0.00    +0.159 HD
ATOM      8  H   UNL     1      11.138  13.250   5.296  0.00  0.00    +0.159 HD
ATOM      9  H   UNL     1       9.964  12.191   4.619  0.00  0.00    +0.159 HD
ENDROOT
BRANCH   1  10
ATOM     10  C   UNL     1      12.270  13.133   7.598  0.00  0.00    +0.151 C 
BRANCH  10  11
ATOM     11  C   UNL     1      13.411  12.788   8.515  0.00  0.00    -0.028 A 
ATOM     12  C   UNL     1      13.918  11.481   8.560  0.00  0.00    +0.005 A 
ATOM     13  C   UNL     1      13.993  13.765   9.338  0.00  0.00    +0.005 A 
ATOM     14  C   UNL     1      14.996  11.166   9.390  0.00  0.00    +0.000 A 
ATOM     15  C   UNL     1      15.069  13.446  10.166  0.00  0.00    +0.000 A 
ATOM     16  C   UNL     1      15.572  12.148  10.190  0.00  0.00    +0.000 A 
ENDBRANCH  10  11
ENDBRANCH   1  10
TORSDOF 2
ENDMDL
MODEL 6
REMARK VINA RESULT:    -4.392     39.462     41.046
REMARK INTER + INTRA:          -5.068
REMARK INTER:                  -4.954
REMARK INTRA:                  -0.114
REMARK UNBOUND:                -0.162
REMARK  Name = 1550473
REMARK  2 active torsions:
REMARK  status: ('A' for Active; 'I' for Inactive)
REMARK    1  A    between atoms: N_1  and  C_4
REMARK    2  A    between atoms: C_4  and  C_5
REMARK                            x       y       z     vdW  Elec       q    Type
REMARK                         _______ _______ _______ _____ _____    ______ ____
ROOT
ATOM      1  N   UNL     1      11.498  12.091   6.184  0.00  0.00    -0.354 N 
ATOM      2  N   UNL     1       9.323  12.146   5.392  0.00  0.00    -0.372 N 
ATOM      3  N   UNL     1       9.881  10.601   6.993  0.00  0.00    -0.372 N 
ATOM      4  C   UNL     1      10.248  11.610   6.197  0.00  0.00    +0.166 C 
ATOM      5  H   UNL     1      11.720  12.838   5.535  0.00  0.00    +0.163 HD
ATOM      6  H   UNL     1       8.370  11.806   5.382  0.00  0.00    +0.159 HD
ATOM      7  H   UNL     1       9.536  12.922   4.777  0.00  0.00    +0.159 HD
ATOM      8  H   UNL     1      10.534  10.149   7.620  0.00  0.00    +0.159 HD
ATOM      9  H   UNL     1       8.936  10.239   6.989  0.00  0.00    +0.159 HD
ENDROOT
BRANCH   1  10
ATOM     10  C   UNL     1      12.567  11.614   7.060  0.00  0.00    +0.151 C 
BRANCH  10  11
ATOM     11  C   UNL     1      12.945  12.711   8.016  0.00  0.00    -0.028 A 
ATOM     12  C   UNL     1      14.017  12.543   8.906  0.00  0.00    +0.005 A 
ATOM     13  C   UNL     1      12.239  13.924   8.034  0.00  0.00    +0.005 A 
ATOM     14  C   UNL     1      14.387  13.573   9.773  0.00  0.00    +0.000 A 
ATOM     15  C   UNL     1      12.612  14.950   8.903  0.00  0.00    +0.000 A 
ATOM     16  C   UNL     1      13.687  14.775   9.771  0.00  0.00    +0.000 A 
ENDBRANCH  10  11
ENDBRANCH   1  10
TORSDOF 2
ENDMDL
MODEL 7
REMARK VINA RESULT:    -4.320     14.630     15.257
REMARK INTER + INTRA:          -4.987
REMARK INTER:                  -4.829
REMARK INTRA:                  -0.158
REMARK UNBOUND:                -0.162
REMARK  Name = 1550473
REMARK  2 active torsions:
REMARK  status: ('A' for Active; 'I' for Inactive)
REMARK    1  A    between atoms: N_1  and  C_4
REMARK    2  A    between atoms: C_4  and  C_5
REMARK                            x       y       z     vdW  Elec       q    Type
REMARK                         _______ _______ _______ _____ _____    ______ ____
ROOT
ATOM      1  N   UNL     1     -14.688  -3.220 -10.825  0.00  0.00    -0.354 N 
ATOM      2  N   UNL     1     -15.998  -4.851 -11.819  0.00  0.00    -0.372 N 
ATOM      3  N   UNL     1     -15.588  -2.906 -12.966  0.00  0.00    -0.372 N 
ATOM      4  C   UNL     1     -15.416  -3.647 -11.866  0.00  0.00    +0.166 C 
ATOM      5  H   UNL     1     -14.621  -3.816 -10.008  0.00  0.00    +0.163 HD
ATOM      6  H   UNL     1     -16.550  -5.201 -12.591  0.00  0.00    +0.159 HD
ATOM      7  H   UNL     1     -15.891  -5.464 -11.020  0.00  0.00    +0.159 HD
ATOM      8  H   UNL     1     -15.181  -1.986 -13.061  0.00  0.00    +0.159 HD
ATOM      9  H   UNL     1     -16.148  -3.234 -13.743  0.00  0.00    +0.159 HD
ENDROOT
BRANCH   1  10
ATOM     10  C   UNL     1     -13.969  -1.948 -10.797  0.00  0.00    +0.151 C 
BRANCH  10  11
ATOM     11  C   UNL     1     -14.650  -1.021  -9.827  0.00  0.00    -0.028 A 
ATOM     12  C   UNL     1     -14.920   0.308 -10.183  0.00  0.00    +0.005 A 
ATOM     13  C   UNL     1     -15.032  -1.468  -8.553  0.00  0.00    +0.005 A 
ATOM     14  C   UNL     1     -15.579   1.161  -9.294  0.00  0.00    +0.000 A 
ATOM     15  C   UNL     1     -15.689  -0.613  -7.668  0.00  0.00    +0.000 A 
ATOM     16  C   UNL     1     -15.964   0.700  -8.040  0.00  0.00    +0.000 A 
ENDBRANCH  10  11
ENDBRANCH   1  10
TORSDOF 2
ENDMDL
MODEL 8
REMARK VINA RESULT:    -4.282     10.591     11.851
REMARK INTER + INTRA:          -4.945
REMARK INTER:                  -4.821
REMARK INTRA:                  -0.125
REMARK UNBOUND:                -0.162
REMARK  Name = 1550473
REMARK  2 active torsions:
REMARK  status: ('A' for Active; 'I' for Inactive)
REMARK    1  A    between atoms: N_1  and  C_4
REMARK    2  A    between atoms: C_4  and  C_5
REMARK                            x       y       z     vdW  Elec       q    Type
REMARK                         _______ _______ _______ _____ _____    ______ ____
ROOT
ATOM      1  N   UNL     1       2.048  -6.879 -16.686  0.00  0.00    -0.354 N 
ATOM      2  N   UNL     1       0.630  -6.287 -18.419  0.00  0.00    -0.372 N 
ATOM      3  N   UNL     1       1.062  -8.510 -18.049  0.00  0.00    -0.372 N 
ATOM      4  C   UNL     1       1.256  -7.232 -17.707  0.00  0.00    +0.166 C 
ATOM      5  H   UNL     1       2.178  -5.892 -16.496  0.00  0.00    +0.163 HD
ATOM      6  H   UNL     1       0.024  -6.523 -19.193  0.00  0.00    +0.159 HD
ATOM      7  H   UNL     1       0.725  -5.303 -18.198  0.00  0.00    +0.159 HD
ATOM      8  H   UNL     1       1.510  -9.271 -17.555  0.00  0.00    +0.159 HD
ATOM      9  H   UNL     1       0.468  -8.766 -18.828  0.00  0.00    +0.159 HD
ENDROOT
BRANCH   1  10
ATOM     10  C   UNL     1       2.732  -7.832 -15.814  0.00  0.00    +0.151 C 
BRANCH  10  11
ATOM     11  C   UNL     1       3.072  -7.155 -14.515  0.00  0.00    -0.028 A 
ATOM     12  C   UNL     1       3.001  -5.758 -14.401  0.00  0.00    +0.005 A 
ATOM     13  C   UNL     1       3.460  -7.903 -13.393  0.00  0.00    +0.005 A 
ATOM     14  C   UNL     1       3.287  -5.130 -13.186  0.00  0.00    +0.000 A 
ATOM     15  C   UNL     1       3.746  -7.272 -12.183  0.00  0.00    +0.000 A 
ATOM     16  C   UNL     1       3.657  -5.886 -12.079  0.00  0.00    +0.000 A 
ENDBRANCH  10  11
ENDBRANCH   1  10
TORSDOF 2
ENDMDL
MODEL 9
REMARK VINA RESULT:    -4.252     39.261     40.876
REMARK INTER + INTRA:          -4.911
REMARK INTER:                  -4.770
REMARK INTRA:                  -0.142
REMARK UNBOUND:                -0.162
REMARK  Name = 1550473
REMARK  2 active torsions:
REMARK  status: ('A' for Active; 'I' for Inactive)
REMARK    1  A    between atoms: N_1  and  C_4
REMARK    2  A    between atoms: C_4  and  C_5
REMARK                            x       y       z     vdW  Elec       q    Type
REMARK                         _______ _______ _______ _____ _____    ______ ____
ROOT
ATOM      1  N   UNL     1      12.638   9.534   7.430  0.00  0.00    -0.354 N 
ATOM      2  N   UNL     1      11.236   8.945   5.684  0.00  0.00    -0.372 N 
ATOM      3  N   UNL     1      13.471   8.452   5.526  0.00  0.00    -0.372 N 
ATOM      4  C   UNL     1      12.460   8.980   6.224  0.00  0.00    +0.166 C 
ATOM      5  H   UNL     1      11.835   9.944   7.895  0.00  0.00    +0.163 HD
ATOM      6  H   UNL     1      11.071   8.530   4.776  0.00  0.00    +0.159 HD
ATOM      7  H   UNL     1      10.428   9.314   6.170  0.00  0.00    +0.159 HD
ATOM      8  H   UNL     1      14.420   8.453   5.876  0.00  0.00    +0.159 HD
ATOM      9  H   UNL     1      13.328   8.043   4.611  0.00  0.00    +0.159 HD
ENDROOT
BRANCH   1  10
ATOM     10  C   UNL     1      13.920   9.575   8.130  0.00  0.00    +0.151 C 
BRANCH  10  11
ATOM     11  C   UNL     1      14.146  10.964   8.661  0.00  0.00    -0.028 A 
ATOM     12  C   UNL     1      13.343  12.030   8.230  0.00  0.00    +0.005 A 
ATOM     13  C   UNL     1      15.158  11.220   9.599  0.00  0.00    +0.005 A 
ATOM     14  C   UNL     1      13.532  13.315   8.745  0.00  0.00    +0.000 A 
ATOM     15  C   UNL     1      15.345  12.504  10.110  0.00  0.00    +0.000 A 
ATOM     16  C   UNL     1      14.530  13.551   9.685  0.00  0.00    +0.000 A 
ENDBRANCH  10  11
ENDBRANCH   1  10
TORSDOF 2
ENDMDL
