MODEL 1
REMARK VINA RESULT:    -5.294      0.000      0.000
REMARK INTER + INTRA:          -6.069
REMARK INTER:                  -5.913
REMARK INTRA:                  -0.156
REMARK UNBOUND:                -0.156
REMARK  Name = 1550473
REMARK  2 active torsions:
REMARK  status: ('A' for Active; 'I' for Inactive)
REMARK    1  A    between atoms: N_1  and  C_4
REMARK    2  A    between atoms: C_4  and  C_5
REMARK                            x       y       z     vdW  Elec       q    Type
REMARK                         _______ _______ _______ _____ _____    ______ ____
ROOT
ATOM      1  N   UNL     1       6.905  14.631  -0.763  0.00  0.00    -0.354 N 
ATOM      2  N   UNL     1       5.767  15.756  -2.438  0.00  0.00    -0.372 N 
ATOM      3  N   UNL     1       7.297  14.148  -3.022  0.00  0.00    -0.372 N 
ATOM      4  C   UNL     1       6.666  14.836  -2.065  0.00  0.00    +0.166 C 
ATOM      5  H   UNL     1       6.415  15.206  -0.087  0.00  0.00    +0.163 HD
ATOM      6  H   UNL     1       5.563  15.930  -3.413  0.00  0.00    +0.159 HD
ATOM      7  H   UNL     1       5.246  16.297  -1.759  0.00  0.00    +0.159 HD
ATOM      8  H   UNL     1       7.990  13.444  -2.807  0.00  0.00    +0.159 HD
ATOM      9  H   UNL     1       7.115  14.317  -4.004  0.00  0.00    +0.159 HD
ENDROOT
BRANCH   1  10
ATOM     10  C   UNL     1       7.824  13.616  -0.250  0.00  0.00    +0.151 C 
BRANCH  10  11
ATOM     11  C   UNL     1       7.054  12.358   0.041  0.00  0.00    -0.028 A 
ATOM     12  C   UNL     1       7.082  11.281  -0.857  0.00  0.00    +0.005 A 
ATOM     13  C   UNL     1       6.298  12.234   1.217  0.00  0.00    +0.005 A 
ATOM     14  C   UNL     1       6.391  10.101  -0.572  0.00  0.00    +0.000 A 
ATOM     15  C   UNL     1       5.608  11.055   1.498  0.00  0.00    +0.000 A 
ATOM     16  C   UNL     1       5.657   9.988   0.604  0.00  0.00    +0.000 A 
ENDBRANCH  10  11
ENDBRANCH   1  10
TORSDOF 2
ENDMDL
MODEL 2
REMARK VINA RESULT:    -5.122     24.752     26.352
REMARK INTER + INTRA:          -5.878
REMARK INTER:                  -5.709
REMARK INTRA:                  -0.169
REMARK UNBOUND:                -0.156
REMARK  Name = 1550473
REMARK  2 active torsions:
REMARK  status: ('A' for Active; 'I' for Inactive)
REMARK    1  A    between atoms: N_1  and  C_4
REMARK    2  A    between atoms: C_4  and  C_5
REMARK                            x       y       z     vdW  Elec       q    Type
REMARK                         _______ _______ _______ _____ _____    ______ ____
ROOT
ATOM      1  N   UNL     1       3.266 -12.078  -2.379  0.00  0.00    -0.354 N 
ATOM      2  N   UNL     1       4.301 -10.472  -3.688  0.00  0.00    -0.372 N 
ATOM      3  N   UNL     1       4.414 -12.671  -4.334  0.00  0.00    -0.372 N 
ATOM      4  C   UNL     1       3.988 -11.753  -3.460  0.00  0.00    +0.166 C 
ATOM      5  H   UNL     1       3.000 -11.339  -1.738  0.00  0.00    +0.163 HD
ATOM      6  H   UNL     1       4.841 -10.196  -4.497  0.00  0.00    +0.159 HD
ATOM      7  H   UNL     1       3.994  -9.730  -3.071  0.00  0.00    +0.159 HD
ATOM      8  H   UNL     1       4.216 -13.655  -4.216  0.00  0.00    +0.159 HD
ATOM      9  H   UNL     1       4.965 -12.416  -5.144  0.00  0.00    +0.159 HD
ENDROOT
BRANCH   1  10
ATOM     10  C   UNL     1       2.826 -13.437  -2.067  0.00  0.00    +0.151 C 
BRANCH  10  11
ATOM     11  C   UNL     1       1.359 -13.560  -2.374  0.00  0.00    -0.028 A 
ATOM     12  C   UNL     1       0.925 -13.840  -3.678  0.00  0.00    +0.005 A 
ATOM     13  C   UNL     1       0.398 -13.404  -1.363  0.00  0.00    +0.005 A 
ATOM     14  C   UNL     1      -0.436 -13.985  -3.957  0.00  0.00    +0.000 A 
ATOM     15  C   UNL     1      -0.960 -13.549  -1.646  0.00  0.00    +0.000 A 
ATOM     16  C   UNL     1      -1.376 -13.841  -2.943  0.00  0.00    +0.000 A 
ENDBRANCH  10  11
ENDBRANCH   1  10
TORSDOF 2
ENDMDL
MODEL 3
REMARK VINA RESULT:    -5.110     25.951     27.580
REMARK INTER + INTRA:          -5.864
REMARK INTER:                  -5.756
REMARK INTRA:                  -0.108
REMARK UNBOUND:                -0.156
REMARK  Name = 1550473
REMARK  2 active torsions:
REMARK  status: ('A' for Active; 'I' for Inactive)
REMARK    1  A    between atoms: N_1  and  C_4
REMARK    2  A    between atoms: C_4  and  C_5
REMARK                            x       y       z     vdW  Elec       q    Type
REMARK                         _______ _______ _______ _____ _____    ______ ____
ROOT
ATOM      1  N   UNL     1      -8.499  -0.642  17.067  0.00  0.00    -0.354 N 
ATOM      2  N   UNL     1      -8.546   1.673  17.112  0.00  0.00    -0.372 N 
ATOM      3  N   UNL     1      -7.010   0.620  15.770  0.00  0.00    -0.372 N 
ATOM      4  C   UNL     1      -8.016   0.535  16.648  0.00  0.00    +0.166 C 
ATOM      5  H   UNL     1      -9.242  -0.640  17.756  0.00  0.00    +0.163 HD
ATOM      6  H   UNL     1      -8.204   2.576  16.811  0.00  0.00    +0.159 HD
ATOM      7  H   UNL     1      -9.319   1.673  17.766  0.00  0.00    +0.159 HD
ATOM      8  H   UNL     1      -6.563  -0.201  15.387  0.00  0.00    +0.159 HD
ATOM      9  H   UNL     1      -6.647   1.515  15.466  0.00  0.00    +0.159 HD
ENDROOT
BRANCH   1  10
ATOM     10  C   UNL     1      -8.028  -1.939  16.583  0.00  0.00    +0.151 C 
BRANCH  10  11
ATOM     11  C   UNL     1      -9.210  -2.846  16.380  0.00  0.00    -0.028 A 
ATOM     12  C   UNL     1      -9.554  -3.289  15.094  0.00  0.00    +0.005 A 
ATOM     13  C   UNL     1      -9.986  -3.271  17.469  0.00  0.00    +0.005 A 
ATOM     14  C   UNL     1     -10.634  -4.156  14.908  0.00  0.00    +0.000 A 
ATOM     15  C   UNL     1     -11.064  -4.136  17.279  0.00  0.00    +0.000 A 
ATOM     16  C   UNL     1     -11.386  -4.580  15.999  0.00  0.00    +0.000 A 
ENDBRANCH  10  11
ENDBRANCH   1  10
TORSDOF 2
ENDMDL
MODEL 4
REMARK VINA RESULT:    -4.725     21.416     22.958
REMARK INTER + INTRA:          -5.434
REMARK INTER:                  -5.296
REMARK INTRA:                  -0.138
REMARK UNBOUND:                -0.156
REMARK  Name = 1550473
REMARK  2 active torsions:
REMARK  status: ('A' for Active; 'I' for Inactive)
REMARK    1  A    between atoms: N_1  and  C_4
REMARK    2  A    between atoms: C_4  and  C_5
REMARK                            x       y       z     vdW  Elec       q    Type
REMARK                         _______ _______ _______ _____ _____    ______ ____
ROOT
ATOM      1  N   UNL     1       9.155  -8.484   8.001  0.00  0.00    -0.354 N 
ATOM      2  N   UNL     1       7.083  -8.114   8.968  0.00  0.00    -0.372 N 
ATOM      3  N   UNL     1       8.607  -9.423  10.077  0.00  0.00    -0.372 N 
ATOM      4  C   UNL     1       8.296  -8.678   9.011  0.00  0.00    +0.166 C 
ATOM      5  H   UNL     1       8.847  -7.934   7.207  0.00  0.00    +0.163 HD
ATOM      6  H   UNL     1       6.416  -8.239   9.718  0.00  0.00    +0.159 HD
ATOM      7  H   UNL     1       6.796  -7.526   8.195  0.00  0.00    +0.159 HD
ATOM      8  H   UNL     1       9.504  -9.881  10.167  0.00  0.00    +0.159 HD
ATOM      9  H   UNL     1       7.948  -9.570  10.831  0.00  0.00    +0.159 HD
ENDROOT
BRANCH   1  10
ATOM     10  C   UNL     1      10.518  -9.009   7.974  0.00  0.00    +0.151 C 
BRANCH  10  11
ATOM     11  C   UNL     1      11.450  -7.933   7.490  0.00  0.00    -0.028 A 
ATOM     12  C   UNL     1      10.943  -6.743   6.948  0.00  0.00    +0.005 A 
ATOM     13  C   UNL     1      12.842  -8.094   7.576  0.00  0.00    +0.005 A 
ATOM     14  C   UNL     1      11.807  -5.730   6.525  0.00  0.00    +0.000 A 
ATOM     15  C   UNL     1      13.702  -7.081   7.153  0.00  0.00    +0.000 A 
ATOM     16  C   UNL     1      13.184  -5.898   6.630  0.00  0.00    +0.000 A 
ENDBRANCH  10  11
ENDBRANCH   1  10
TORSDOF 2
ENDMDL
MODEL 5
REMARK VINA RESULT:    -4.550     16.455     18.025
REMARK INTER + INTRA:          -5.239
REMARK INTER:                  -5.059
REMARK INTRA:                  -0.180
REMARK UNBOUND:                -0.156
REMARK  Name = 1550473
REMARK  2 active torsions:
REMARK  status: ('A' for Active; 'I' for Inactive)
REMARK    1  A    between atoms: N_1  and  C_4
REMARK    2  A    between atoms: C_4  and  C_5
REMARK                            x       y       z     vdW  Elec       q    Type
REMARK                         _______ _______ _______ _____ _____    ______ ____
ROOT
ATOM      1  N   UNL     1       9.009  -1.418  -8.361  0.00  0.00    -0.354 N 
ATOM      2  N   UNL     1       7.738  -0.824  -6.518  0.00  0.00    -0.372 N 
ATOM      3  N   UNL     1      10.024  -0.686  -6.379  0.00  0.00    -0.372 N 
ATOM      4  C   UNL     1       8.934  -0.980  -7.097  0.00  0.00    +0.166 C 
ATOM      5  H   UNL     1       8.147  -1.652  -8.840  0.00  0.00    +0.163 HD
ATOM      6  H   UNL     1       7.650  -0.492  -5.567  0.00  0.00    +0.159 HD
ATOM      7  H   UNL     1       6.876  -1.015  -7.015  0.00  0.00    +0.159 HD
ATOM      8  H   UNL     1      10.957  -0.787  -6.756  0.00  0.00    +0.159 HD
ATOM      9  H   UNL     1       9.957  -0.363  -5.422  0.00  0.00    +0.159 HD
ENDROOT
BRANCH   1  10
ATOM     10  C   UNL     1      10.260  -1.570  -9.101  0.00  0.00    +0.151 C 
BRANCH  10  11
ATOM     11  C   UNL     1      10.671  -3.017  -9.079  0.00  0.00    -0.028 A 
ATOM     12  C   UNL     1       9.903  -3.984  -9.744  0.00  0.00    +0.005 A 
ATOM     13  C   UNL     1      11.829  -3.425  -8.401  0.00  0.00    +0.005 A 
ATOM     14  C   UNL     1      10.301  -5.324  -9.750  0.00  0.00    +0.000 A 
ATOM     15  C   UNL     1      12.222  -4.763  -8.408  0.00  0.00    +0.000 A 
ATOM     16  C   UNL     1      11.459  -5.712  -9.085  0.00  0.00    +0.000 A 
ENDBRANCH  10  11
ENDBRANCH   1  10
TORSDOF 2
ENDMDL
MODEL 6
REMARK VINA RESULT:    -4.498     26.864     28.512
REMARK INTER + INTRA:          -5.180
REMARK INTER:                  -5.060
REMARK INTRA:                  -0.120
REMARK UNBOUND:                -0.156
REMARK  Name = 1550473
REMARK  2 active torsions:
REMARK  status: ('A' for Active; 'I' for Inactive)
REMARK    1  A    between atoms: N_1  and  C_4
REMARK    2  A    between atoms: C_4  and  C_5
REMARK                            x       y       z     vdW  Elec       q    Type
REMARK                         _______ _______ _______ _____ _____    ______ ____
ROOT
ATOM      1  N   UNL     1       1.348 -14.227  -2.056  0.00  0.00    -0.354 N 
ATOM      2  N   UNL     1       3.662 -14.183  -1.949  0.00  0.00    -0.372 N 
ATOM      3  N   UNL     1       2.491 -12.283  -1.419  0.00  0.00    -0.372 N 
ATOM      4  C   UNL     1       2.485 -13.562  -1.808  0.00  0.00    +0.166 C 
ATOM      5  H   UNL     1       1.413 -15.186  -2.378  0.00  0.00    +0.163 HD
ATOM      6  H   UNL     1       4.535 -13.708  -1.765  0.00  0.00    +0.159 HD
ATOM      7  H   UNL     1       3.721 -15.156  -2.225  0.00  0.00    +0.159 HD
ATOM      8  H   UNL     1       1.636 -11.755  -1.300  0.00  0.00    +0.159 HD
ATOM      9  H   UNL     1       3.355 -11.787  -1.241  0.00  0.00    +0.159 HD
ENDROOT
BRANCH   1  10
ATOM     10  C   UNL     1       0.013 -13.658  -1.882  0.00  0.00    +0.151 C 
BRANCH  10  11
ATOM     11  C   UNL     1      -0.996 -14.773  -1.861  0.00  0.00    -0.028 A 
ATOM     12  C   UNL     1      -0.663 -16.026  -1.327  0.00  0.00    +0.005 A 
ATOM     13  C   UNL     1      -2.290 -14.580  -2.369  0.00  0.00    +0.005 A 
ATOM     14  C   UNL     1      -1.609 -17.052  -1.280  0.00  0.00    +0.000 A 
ATOM     15  C   UNL     1      -3.233 -15.607  -2.321  0.00  0.00    +0.000 A 
ATOM     16  C   UNL     1      -2.892 -16.842  -1.774  0.00  0.00    +0.000 A 
ENDBRANCH  10  11
ENDBRANCH   1  10
TORSDOF 2
ENDMDL
MODEL 7
REMARK VINA RESULT:    -4.476     19.645     20.452
REMARK INTER + INTRA:          -5.156
REMARK INTER:                  -4.981
REMARK INTRA:                  -0.176
REMARK UNBOUND:                -0.156
REMARK  Name = 1550473
REMARK  2 active torsions:
REMARK  status: ('A' for Active; 'I' for Inactive)
REMARK    1  A    between atoms: N_1  and  C_4
REMARK    2  A    between atoms: C_4  and  C_5
REMARK                            x       y       z     vdW  Elec       q    Type
REMARK                         _______ _______ _______ _____ _____    ______ ____
ROOT
ATOM      1  N   UNL     1     -14.057  12.111  -2.345  0.00  0.00    -0.354 N 
ATOM      2  N   UNL     1     -16.288  12.206  -1.732  0.00  0.00    -0.372 N 
ATOM      3  N   UNL     1     -15.755  11.681  -3.901  0.00  0.00    -0.372 N 
ATOM      4  C   UNL     1     -15.352  11.998  -2.666  0.00  0.00    +0.166 C 
ATOM      5  H   UNL     1     -13.817  12.384  -1.398  0.00  0.00    +0.163 HD
ATOM      6  H   UNL     1     -17.273  12.125  -1.944  0.00  0.00    +0.159 HD
ATOM      7  H   UNL     1     -16.045  12.434  -0.776  0.00  0.00    +0.159 HD
ATOM      8  H   UNL     1     -15.098  11.517  -4.653  0.00  0.00    +0.159 HD
ATOM      9  H   UNL     1     -16.737  11.607  -4.136  0.00  0.00    +0.159 HD
ENDROOT
BRANCH   1  10
ATOM     10  C   UNL     1     -12.958  11.852  -3.274  0.00  0.00    +0.151 C 
BRANCH  10  11
ATOM     11  C   UNL     1     -12.330  13.161  -3.668  0.00  0.00    -0.028 A 
ATOM     12  C   UNL     1     -11.423  13.802  -2.812  0.00  0.00    +0.005 A 
ATOM     13  C   UNL     1     -12.634  13.762  -4.899  0.00  0.00    +0.005 A 
ATOM     14  C   UNL     1     -10.816  15.002  -3.191  0.00  0.00    +0.000 A 
ATOM     15  C   UNL     1     -12.027  14.960  -5.274  0.00  0.00    +0.000 A 
ATOM     16  C   UNL     1     -11.116  15.579  -4.420  0.00  0.00    +0.000 A 
ENDBRANCH  10  11
ENDBRANCH   1  10
TORSDOF 2
ENDMDL
MODEL 8
REMARK VINA RESULT:    -4.406     12.530     13.706
REMARK INTER + INTRA:          -5.078
REMARK INTER:                  -4.900
REMARK INTRA:                  -0.178
REMARK UNBOUND:                -0.156
REMARK  Name = 1550473
REMARK  2 active torsions:
REMARK  status: ('A' for Active; 'I' for Inactive)
REMARK    1  A    between atoms: N_1  and  C_4
REMARK    2  A    between atoms: C_4  and  C_5
REMARK                            x       y       z     vdW  Elec       q    Type
REMARK                         _______ _______ _______ _____ _____    ______ ____
ROOT
ATOM      1  N   UNL     1      -3.018  13.955   5.720  0.00  0.00    -0.354 N 
ATOM      2  N   UNL     1      -2.445  12.554   3.967  0.00  0.00    -0.372 N 
ATOM      3  N   UNL     1      -3.938  14.254   3.586  0.00  0.00    -0.372 N 
ATOM      4  C   UNL     1      -3.139  13.598   4.434  0.00  0.00    +0.166 C 
ATOM      5  H   UNL     1      -2.420  13.398   6.320  0.00  0.00    +0.163 HD
ATOM      6  H   UNL     1      -2.513  12.263   3.001  0.00  0.00    +0.159 HD
ATOM      7  H   UNL     1      -1.812  12.028   4.557  0.00  0.00    +0.159 HD
ATOM      8  H   UNL     1      -4.493  15.047   3.877  0.00  0.00    +0.159 HD
ATOM      9  H   UNL     1      -4.029  13.971   2.618  0.00  0.00    +0.159 HD
ENDROOT
BRANCH   1  10
ATOM     10  C   UNL     1      -3.689  15.109   6.315  0.00  0.00    +0.151 C 
BRANCH  10  11
ATOM     11  C   UNL     1      -4.928  14.643   7.028  0.00  0.00    -0.028 A 
ATOM     12  C   UNL     1      -6.195  14.854   6.465  0.00  0.00    +0.005 A 
ATOM     13  C   UNL     1      -4.842  13.985   8.265  0.00  0.00    +0.005 A 
ATOM     14  C   UNL     1      -7.345  14.395   7.112  0.00  0.00    +0.000 A 
ATOM     15  C   UNL     1      -5.993  13.529   8.908  0.00  0.00    +0.000 A 
ATOM     16  C   UNL     1      -7.243  13.732   8.331  0.00  0.00    +0.000 A 
ENDBRANCH  10  11
ENDBRANCH   1  10
TORSDOF 2
ENDMDL
MODEL 9
REMARK VINA RESULT:    -4.377     15.666     17.311
REMARK INTER + INTRA:          -5.046
REMARK INTER:                  -4.889
REMARK INTRA:                  -0.156
REMARK UNBOUND:                -0.156
REMARK  Name = 1550473
REMARK  2 active torsions:
REMARK  status: ('A' for Active; 'I' for Inactive)
REMARK    1  A    between atoms: N_1  and  C_4
REMARK    2  A    between atoms: C_4  and  C_5
REMARK                            x       y       z     vdW  Elec       q    Type
REMARK                         _______ _______ _______ _____ _____    ______ ____
ROOT
ATOM      1  N   UNL     1       1.294  11.212  14.992  0.00  0.00    -0.354 N 
ATOM      2  N   UNL     1       1.869  12.031  12.903  0.00  0.00    -0.372 N 
ATOM      3  N   UNL     1       3.522  11.710  14.462  0.00  0.00    -0.372 N 
ATOM      4  C   UNL     1       2.227  11.646  14.134  0.00  0.00    +0.166 C 
ATOM      5  H   UNL     1       0.325  11.217  14.692  0.00  0.00    +0.163 HD
ATOM      6  H   UNL     1       2.552  12.360  12.233  0.00  0.00    +0.159 HD
ATOM      7  H   UNL     1       0.907  11.991  12.591  0.00  0.00    +0.159 HD
ATOM      8  H   UNL     1       3.856  11.439  15.378  0.00  0.00    +0.159 HD
ATOM      9  H   UNL     1       4.218  12.047  13.810  0.00  0.00    +0.159 HD
ENDROOT
BRANCH   1  10
ATOM     10  C   UNL     1       1.585  10.719  16.337  0.00  0.00    +0.151 C 
BRANCH  10  11
ATOM     11  C   UNL     1       1.368   9.232  16.373  0.00  0.00    -0.028 A 
ATOM     12  C   UNL     1       2.161   8.416  17.192  0.00  0.00    +0.005 A 
ATOM     13  C   UNL     1       0.366   8.633  15.594  0.00  0.00    +0.005 A 
ATOM     14  C   UNL     1       1.940   7.038  17.249  0.00  0.00    +0.000 A 
ATOM     15  C   UNL     1       0.148   7.256  15.652  0.00  0.00    +0.000 A 
ATOM     16  C   UNL     1       0.934   6.460  16.482  0.00  0.00    +0.000 A 
ENDBRANCH  10  11
ENDBRANCH   1  10
TORSDOF 2
ENDMDL
