MODEL 1
REMARK VINA RESULT:    -5.436      0.000      0.000
REMARK INTER + INTRA:          -6.178
REMARK INTER:                  -6.071
REMARK INTRA:                  -0.107
REMARK UNBOUND:                -0.107
REMARK  Name = 1550473
REMARK  2 active torsions:
REMARK  status: ('A' for Active; 'I' for Inactive)
REMARK    1  A    between atoms: N_1  and  C_4
REMARK    2  A    between atoms: C_4  and  C_5
REMARK                            x       y       z     vdW  Elec       q    Type
REMARK                         _______ _______ _______ _____ _____    ______ ____
ROOT
ATOM      1  N   UNL     1      -1.309   6.196   2.346  0.00  0.00    -0.354 N 
ATOM      2  N   UNL     1       0.238   6.331   4.064  0.00  0.00    -0.372 N 
ATOM      3  N   UNL     1      -0.565   8.272   3.139  0.00  0.00    -0.372 N 
ATOM      4  C   UNL     1      -0.556   6.935   3.171  0.00  0.00    +0.166 C 
ATOM      5  H   UNL     1      -1.234   5.187   2.400  0.00  0.00    +0.163 HD
ATOM      6  H   UNL     1       0.815   6.863   4.702  0.00  0.00    +0.159 HD
ATOM      7  H   UNL     1       0.276   5.323   4.147  0.00  0.00    +0.159 HD
ATOM      8  H   UNL     1      -1.137   8.788   2.485  0.00  0.00    +0.159 HD
ATOM      9  H   UNL     1       0.015   8.821   3.762  0.00  0.00    +0.159 HD
ENDROOT
BRANCH   1  10
ATOM     10  C   UNL     1      -2.247   6.755   1.374  0.00  0.00    +0.151 C 
BRANCH  10  11
ATOM     11  C   UNL     1      -2.583   5.703   0.354  0.00  0.00    -0.028 A 
ATOM     12  C   UNL     1      -3.912   5.303   0.154  0.00  0.00    +0.005 A 
ATOM     13  C   UNL     1      -1.576   5.107  -0.421  0.00  0.00    +0.005 A 
ATOM     14  C   UNL     1      -4.228   4.347  -0.814  0.00  0.00    +0.000 A 
ATOM     15  C   UNL     1      -1.896   4.152  -1.387  0.00  0.00    +0.000 A 
ATOM     16  C   UNL     1      -3.221   3.774  -1.585  0.00  0.00    +0.000 A 
ENDBRANCH  10  11
ENDBRANCH   1  10
TORSDOF 2
ENDMDL
MODEL 2
REMARK VINA RESULT:    -5.334      3.441      4.960
REMARK INTER + INTRA:          -6.065
REMARK INTER:                  -5.921
REMARK INTRA:                  -0.144
REMARK UNBOUND:                -0.107
REMARK  Name = 1550473
REMARK  2 active torsions:
REMARK  status: ('A' for Active; 'I' for Inactive)
REMARK    1  A    between atoms: N_1  and  C_4
REMARK    2  A    between atoms: C_4  and  C_5
REMARK                            x       y       z     vdW  Elec       q    Type
REMARK                         _______ _______ _______ _____ _____    ______ ____
ROOT
ATOM      1  N   UNL     1      -3.888   5.051  -1.247  0.00  0.00    -0.354 N 
ATOM      2  N   UNL     1      -1.863   5.983  -0.617  0.00  0.00    -0.372 N 
ATOM      3  N   UNL     1      -3.157   4.958   0.978  0.00  0.00    -0.372 N 
ATOM      4  C   UNL     1      -2.983   5.324  -0.297  0.00  0.00    +0.166 C 
ATOM      5  H   UNL     1      -3.711   5.382  -2.189  0.00  0.00    +0.163 HD
ATOM      6  H   UNL     1      -1.161   6.199   0.078  0.00  0.00    +0.159 HD
ATOM      7  H   UNL     1      -1.668   6.272  -1.567  0.00  0.00    +0.159 HD
ATOM      8  H   UNL     1      -3.983   4.463   1.285  0.00  0.00    +0.159 HD
ATOM      9  H   UNL     1      -2.471   5.176   1.690  0.00  0.00    +0.159 HD
ENDROOT
BRANCH   1  10
ATOM     10  C   UNL     1      -5.115   4.292  -1.014  0.00  0.00    +0.151 C 
BRANCH  10  11
ATOM     11  C   UNL     1      -6.296   5.136  -1.408  0.00  0.00    -0.028 A 
ATOM     12  C   UNL     1      -7.290   4.619  -2.252  0.00  0.00    +0.005 A 
ATOM     13  C   UNL     1      -6.430   6.451  -0.936  0.00  0.00    +0.005 A 
ATOM     14  C   UNL     1      -8.403   5.392  -2.594  0.00  0.00    +0.000 A 
ATOM     15  C   UNL     1      -7.542   7.219  -1.280  0.00  0.00    +0.000 A 
ATOM     16  C   UNL     1      -8.529   6.689  -2.107  0.00  0.00    +0.000 A 
ENDBRANCH  10  11
ENDBRANCH   1  10
TORSDOF 2
ENDMDL
MODEL 3
REMARK VINA RESULT:    -5.180      5.148      6.437
REMARK INTER + INTRA:          -5.893
REMARK INTER:                  -5.723
REMARK INTRA:                  -0.170
REMARK UNBOUND:                -0.107
REMARK  Name = 1550473
REMARK  2 active torsions:
REMARK  status: ('A' for Active; 'I' for Inactive)
REMARK    1  A    between atoms: N_1  and  C_4
REMARK    2  A    between atoms: C_4  and  C_5
REMARK                            x       y       z     vdW  Elec       q    Type
REMARK                         _______ _______ _______ _____ _____    ______ ____
ROOT
ATOM      1  N   UNL     1       0.198   7.919   5.022  0.00  0.00    -0.354 N 
ATOM      2  N   UNL     1       1.000   6.501   3.376  0.00  0.00    -0.372 N 
ATOM      3  N   UNL     1       1.018   8.763   2.995  0.00  0.00    -0.372 N 
ATOM      4  C   UNL     1       0.734   7.739   3.807  0.00  0.00    +0.166 C 
ATOM      5  H   UNL     1      -0.023   7.100   5.576  0.00  0.00    +0.163 HD
ATOM      6  H   UNL     1       1.407   6.334   2.466  0.00  0.00    +0.159 HD
ATOM      7  H   UNL     1       0.821   5.686   3.951  0.00  0.00    +0.159 HD
ATOM      8  H   UNL     1       0.836   9.722   3.259  0.00  0.00    +0.159 HD
ATOM      9  H   UNL     1       1.416   8.616   2.076  0.00  0.00    +0.159 HD
ENDROOT
BRANCH   1  10
ATOM     10  C   UNL     1      -0.081   9.230   5.606  0.00  0.00    +0.151 C 
BRANCH  10  11
ATOM     11  C   UNL     1      -1.570   9.433   5.671  0.00  0.00    -0.028 A 
ATOM     12  C   UNL     1      -2.286   9.819   4.528  0.00  0.00    +0.005 A 
ATOM     13  C   UNL     1      -2.271   9.234   6.870  0.00  0.00    +0.005 A 
ATOM     14  C   UNL     1      -3.672   9.978   4.581  0.00  0.00    +0.000 A 
ATOM     15  C   UNL     1      -3.655   9.395   6.918  0.00  0.00    +0.000 A 
ATOM     16  C   UNL     1      -4.356   9.765   5.773  0.00  0.00    +0.000 A 
ENDBRANCH  10  11
ENDBRANCH   1  10
TORSDOF 2
ENDMDL
MODEL 4
REMARK VINA RESULT:    -5.122      4.070      5.607
REMARK INTER + INTRA:          -5.828
REMARK INTER:                  -5.699
REMARK INTRA:                  -0.129
REMARK UNBOUND:                -0.107
REMARK  Name = 1550473
REMARK  2 active torsions:
REMARK  status: ('A' for Active; 'I' for Inactive)
REMARK    1  A    between atoms: N_1  and  C_4
REMARK    2  A    between atoms: C_4  and  C_5
REMARK                            x       y       z     vdW  Elec       q    Type
REMARK                         _______ _______ _______ _____ _____    ______ ____
ROOT
ATOM      1  N   UNL     1      -5.801   4.762  -1.177  0.00  0.00    -0.354 N 
ATOM      2  N   UNL     1      -5.901   3.002  -2.679  0.00  0.00    -0.372 N 
ATOM      3  N   UNL     1      -6.510   2.634  -0.498  0.00  0.00    -0.372 N 
ATOM      4  C   UNL     1      -6.071   3.476  -1.439  0.00  0.00    +0.166 C 
ATOM      5  H   UNL     1      -5.443   5.341  -1.927  0.00  0.00    +0.163 HD
ATOM      6  H   UNL     1      -6.099   2.037  -2.908  0.00  0.00    +0.159 HD
ATOM      7  H   UNL     1      -5.586   3.595  -3.438  0.00  0.00    +0.159 HD
ATOM      8  H   UNL     1      -6.653   2.928   0.459  0.00  0.00    +0.159 HD
ATOM      9  H   UNL     1      -6.703   1.662  -0.704  0.00  0.00    +0.159 HD
ENDROOT
BRANCH   1  10
ATOM     10  C   UNL     1      -6.004   5.390   0.127  0.00  0.00    +0.151 C 
BRANCH  10  11
ATOM     11  C   UNL     1      -4.666   5.614   0.778  0.00  0.00    -0.028 A 
ATOM     12  C   UNL     1      -4.583   5.950   2.137  0.00  0.00    +0.005 A 
ATOM     13  C   UNL     1      -3.479   5.487   0.041  0.00  0.00    +0.005 A 
ATOM     14  C   UNL     1      -3.340   6.128   2.748  0.00  0.00    +0.000 A 
ATOM     15  C   UNL     1      -2.239   5.667   0.655  0.00  0.00    +0.000 A 
ATOM     16  C   UNL     1      -2.170   5.985   2.009  0.00  0.00    +0.000 A 
ENDBRANCH  10  11
ENDBRANCH   1  10
TORSDOF 2
ENDMDL
MODEL 5
REMARK VINA RESULT:    -5.107      6.409      8.013
REMARK INTER + INTRA:          -5.812
REMARK INTER:                  -5.670
REMARK INTRA:                  -0.142
REMARK UNBOUND:                -0.107
REMARK  Name = 1550473
REMARK  2 active torsions:
REMARK  status: ('A' for Active; 'I' for Inactive)
REMARK    1  A    between atoms: N_1  and  C_4
REMARK    2  A    between atoms: C_4  and  C_5
REMARK                            x       y       z     vdW  Elec       q    Type
REMARK                         _______ _______ _______ _____ _____    ______ ____
ROOT
ATOM      1  N   UNL     1      -8.968   3.309  -2.903  0.00  0.00    -0.354 N 
ATOM      2  N   UNL     1     -10.366   1.505  -2.510  0.00  0.00    -0.372 N 
ATOM      3  N   UNL     1     -10.686   3.437  -1.314  0.00  0.00    -0.372 N 
ATOM      4  C   UNL     1      -9.998   2.764  -2.243  0.00  0.00    +0.166 C 
ATOM      5  H   UNL     1      -8.468   2.736  -3.573  0.00  0.00    +0.163 HD
ATOM      6  H   UNL     1     -11.141   1.068  -2.031  0.00  0.00    +0.159 HD
ATOM      7  H   UNL     1      -9.894   0.950  -3.214  0.00  0.00    +0.159 HD
ATOM      8  H   UNL     1     -10.455   4.388  -1.062  0.00  0.00    +0.159 HD
ATOM      9  H   UNL     1     -11.458   3.013  -0.815  0.00  0.00    +0.159 HD
ENDROOT
BRANCH   1  10
ATOM     10  C   UNL     1      -8.521   4.690  -2.725  0.00  0.00    +0.151 C 
BRANCH  10  11
ATOM     11  C   UNL     1      -7.193   4.690  -2.019  0.00  0.00    -0.028 A 
ATOM     12  C   UNL     1      -6.433   3.514  -1.932  0.00  0.00    +0.005 A 
ATOM     13  C   UNL     1      -6.687   5.864  -1.440  0.00  0.00    +0.005 A 
ATOM     14  C   UNL     1      -5.186   3.521  -1.303  0.00  0.00    +0.000 A 
ATOM     15  C   UNL     1      -5.441   5.866  -0.812  0.00  0.00    +0.000 A 
ATOM     16  C   UNL     1      -4.690   4.695  -0.746  0.00  0.00    +0.000 A 
ENDBRANCH  10  11
ENDBRANCH   1  10
TORSDOF 2
ENDMDL
MODEL 6
REMARK VINA RESULT:    -4.975      7.733      9.624
REMARK INTER + INTRA:          -5.665
REMARK INTER:                  -5.559
REMARK INTRA:                  -0.105
REMARK UNBOUND:                -0.107
REMARK  Name = 1550473
REMARK  2 active torsions:
REMARK  status: ('A' for Active; 'I' for Inactive)
REMARK    1  A    between atoms: N_1  and  C_4
REMARK    2  A    between atoms: C_4  and  C_5
REMARK                            x       y       z     vdW  Elec       q    Type
REMARK                         _______ _______ _______ _____ _____    ______ ____
ROOT
ATOM      1  N   UNL     1      -9.821   4.323  -4.556  0.00  0.00    -0.354 N 
ATOM      2  N   UNL     1     -10.927   4.120  -6.580  0.00  0.00    -0.372 N 
ATOM      3  N   UNL     1     -10.394   2.218  -5.412  0.00  0.00    -0.372 N 
ATOM      4  C   UNL     1     -10.373   3.552  -5.502  0.00  0.00    +0.166 C 
ATOM      5  H   UNL     1      -9.810   5.327  -4.698  0.00  0.00    +0.163 HD
ATOM      6  H   UNL     1     -11.354   3.564  -7.309  0.00  0.00    +0.159 HD
ATOM      7  H   UNL     1     -10.956   5.125  -6.697  0.00  0.00    +0.159 HD
ATOM      8  H   UNL     1      -9.987   1.728  -4.626  0.00  0.00    +0.159 HD
ATOM      9  H   UNL     1     -10.806   1.645  -6.137  0.00  0.00    +0.159 HD
ENDROOT
BRANCH   1  10
ATOM     10  C   UNL     1      -9.239   3.808  -3.318  0.00  0.00    +0.151 C 
BRANCH  10  11
ATOM     11  C   UNL     1      -8.436   4.897  -2.661  0.00  0.00    -0.028 A 
ATOM     12  C   UNL     1      -8.980   6.178  -2.490  0.00  0.00    +0.005 A 
ATOM     13  C   UNL     1      -7.132   4.652  -2.203  0.00  0.00    +0.005 A 
ATOM     14  C   UNL     1      -8.246   7.182  -1.854  0.00  0.00    +0.000 A 
ATOM     15  C   UNL     1      -6.402   5.657  -1.569  0.00  0.00    +0.000 A 
ATOM     16  C   UNL     1      -6.960   6.921  -1.392  0.00  0.00    +0.000 A 
ENDBRANCH  10  11
ENDBRANCH   1  10
TORSDOF 2
ENDMDL
MODEL 7
REMARK VINA RESULT:    -4.866     29.595     30.785
REMARK INTER + INTRA:          -5.542
REMARK INTER:                  -5.407
REMARK INTRA:                  -0.134
REMARK UNBOUND:                -0.107
REMARK  Name = 1550473
REMARK  2 active torsions:
REMARK  status: ('A' for Active; 'I' for Inactive)
REMARK    1  A    between atoms: N_1  and  C_4
REMARK    2  A    between atoms: C_4  and  C_5
REMARK                            x       y       z     vdW  Elec       q    Type
REMARK                         _______ _______ _______ _____ _____    ______ ____
ROOT
ATOM      1  N   UNL     1      26.115   9.352  -6.887  0.00  0.00    -0.354 N 
ATOM      2  N   UNL     1      25.296   9.548  -9.044  0.00  0.00    -0.372 N 
ATOM      3  N   UNL     1      25.308  11.400  -7.689  0.00  0.00    -0.372 N 
ATOM      4  C   UNL     1      25.578  10.101  -7.858  0.00  0.00    +0.166 C 
ATOM      5  H   UNL     1      26.268   8.366  -7.068  0.00  0.00    +0.163 HD
ATOM      6  H   UNL     1      24.894  10.090  -9.797  0.00  0.00    +0.159 HD
ATOM      7  H   UNL     1      25.492   8.574  -9.238  0.00  0.00    +0.159 HD
ATOM      8  H   UNL     1      25.491  11.876  -6.816  0.00  0.00    +0.159 HD
ATOM      9  H   UNL     1      24.894  11.956  -8.427  0.00  0.00    +0.159 HD
ENDROOT
BRANCH   1  10
ATOM     10  C   UNL     1      26.509   9.869  -5.577  0.00  0.00    +0.151 C 
BRANCH  10  11
ATOM     11  C   UNL     1      27.748   9.152  -5.118  0.00  0.00    -0.028 A 
ATOM     12  C   UNL     1      28.268   9.380  -3.836  0.00  0.00    +0.005 A 
ATOM     13  C   UNL     1      28.404   8.240  -5.959  0.00  0.00    +0.005 A 
ATOM     14  C   UNL     1      29.402   8.691  -3.397  0.00  0.00    +0.000 A 
ATOM     15  C   UNL     1      29.537   7.555  -5.518  0.00  0.00    +0.000 A 
ATOM     16  C   UNL     1      30.034   7.779  -4.236  0.00  0.00    +0.000 A 
ENDBRANCH  10  11
ENDBRANCH   1  10
TORSDOF 2
ENDMDL
MODEL 8
REMARK VINA RESULT:    -4.849     14.201     14.652
REMARK INTER + INTRA:          -5.524
REMARK INTER:                  -5.411
REMARK INTRA:                  -0.113
REMARK UNBOUND:                -0.107
REMARK  Name = 1550473
REMARK  2 active torsions:
REMARK  status: ('A' for Active; 'I' for Inactive)
REMARK    1  A    between atoms: N_1  and  C_4
REMARK    2  A    between atoms: C_4  and  C_5
REMARK                            x       y       z     vdW  Elec       q    Type
REMARK                         _______ _______ _______ _____ _____    ______ ____
ROOT
ATOM      1  N   UNL     1      12.526   4.339  -2.083  0.00  0.00    -0.354 N 
ATOM      2  N   UNL     1      13.800   6.250  -2.379  0.00  0.00    -0.372 N 
ATOM      3  N   UNL     1      12.407   5.572  -4.072  0.00  0.00    -0.372 N 
ATOM      4  C   UNL     1      12.902   5.374  -2.845  0.00  0.00    +0.166 C 
ATOM      5  H   UNL     1      12.961   4.228  -1.174  0.00  0.00    +0.163 HD
ATOM      6  H   UNL     1      14.100   7.043  -2.930  0.00  0.00    +0.159 HD
ATOM      7  H   UNL     1      14.199   6.162  -1.452  0.00  0.00    +0.159 HD
ATOM      8  H   UNL     1      11.730   4.944  -4.484  0.00  0.00    +0.159 HD
ATOM      9  H   UNL     1      12.704   6.353  -4.643  0.00  0.00    +0.159 HD
ENDROOT
BRANCH   1  10
ATOM     10  C   UNL     1      11.515   3.358  -2.475  0.00  0.00    +0.151 C 
BRANCH  10  11
ATOM     11  C   UNL     1      11.272   2.418  -1.328  0.00  0.00    -0.028 A 
ATOM     12  C   UNL     1      11.069   1.049  -1.559  0.00  0.00    +0.005 A 
ATOM     13  C   UNL     1      11.247   2.888  -0.006  0.00  0.00    +0.005 A 
ATOM     14  C   UNL     1      10.873   0.170  -0.492  0.00  0.00    +0.000 A 
ATOM     15  C   UNL     1      11.050   2.007   1.058  0.00  0.00    +0.000 A 
ATOM     16  C   UNL     1      10.865   0.648   0.815  0.00  0.00    +0.000 A 
ENDBRANCH  10  11
ENDBRANCH   1  10
TORSDOF 2
ENDMDL
MODEL 9
REMARK VINA RESULT:    -4.770     19.287     20.791
REMARK INTER + INTRA:          -5.434
REMARK INTER:                  -5.336
REMARK INTRA:                  -0.098
REMARK UNBOUND:                -0.107
REMARK  Name = 1550473
REMARK  2 active torsions:
REMARK  status: ('A' for Active; 'I' for Inactive)
REMARK    1  A    between atoms: N_1  and  C_4
REMARK    2  A    between atoms: C_4  and  C_5
REMARK                            x       y       z     vdW  Elec       q    Type
REMARK                         _______ _______ _______ _____ _____    ______ ____
ROOT
ATOM      1  N   UNL     1      10.624  -1.179 -11.969  0.00  0.00    -0.354 N 
ATOM      2  N   UNL     1       9.295   0.700 -12.227  0.00  0.00    -0.372 N 
ATOM      3  N   UNL     1       8.304  -1.290 -11.656  0.00  0.00    -0.372 N 
ATOM      4  C   UNL     1       9.414  -0.604 -11.949  0.00  0.00    +0.166 C 
ATOM      5  H   UNL     1      11.423  -0.611 -12.228  0.00  0.00    +0.163 HD
ATOM      6  H   UNL     1       8.395   1.162 -12.216  0.00  0.00    +0.159 HD
ATOM      7  H   UNL     1      10.100   1.275 -12.440  0.00  0.00    +0.159 HD
ATOM      8  H   UNL     1       8.326  -2.278 -11.443  0.00  0.00    +0.159 HD
ATOM      9  H   UNL     1       7.394  -0.847 -11.651  0.00  0.00    +0.159 HD
ENDROOT
BRANCH   1  10
ATOM     10  C   UNL     1      10.870  -2.579 -11.629  0.00  0.00    +0.151 C 
BRANCH  10  11
ATOM     11  C   UNL     1      12.353  -2.828 -11.612  0.00  0.00    -0.028 A 
ATOM     12  C   UNL     1      13.168  -2.207 -10.654  0.00  0.00    +0.005 A 
ATOM     13  C   UNL     1      12.948  -3.688 -12.548  0.00  0.00    +0.005 A 
ATOM     14  C   UNL     1      14.541  -2.462 -10.619  0.00  0.00    +0.000 A 
ATOM     15  C   UNL     1      14.320  -3.938 -12.510  0.00  0.00    +0.000 A 
ATOM     16  C   UNL     1      15.115  -3.327 -11.544  0.00  0.00    +0.000 A 
ENDBRANCH  10  11
ENDBRANCH   1  10
TORSDOF 2
ENDMDL
