MODEL 1
REMARK VINA RESULT:    -4.826      0.000      0.000
REMARK INTER + INTRA:          -5.557
REMARK INTER:                  -5.390
REMARK INTRA:                  -0.167
REMARK UNBOUND:                -0.167
REMARK  Name = 1550473
REMARK  2 active torsions:
REMARK  status: ('A' for Active; 'I' for Inactive)
REMARK    1  A    between atoms: N_1  and  C_4
REMARK    2  A    between atoms: C_4  and  C_5
REMARK                            x       y       z     vdW  Elec       q    Type
REMARK                         _______ _______ _______ _____ _____    ______ ____
ROOT
ATOM      1  N   UNL     1      -6.221  -6.211   3.065  0.00  0.00    -0.354 N 
ATOM      2  N   UNL     1      -5.888  -3.920   3.019  0.00  0.00    -0.372 N 
ATOM      3  N   UNL     1      -6.927  -4.925   1.237  0.00  0.00    -0.372 N 
ATOM      4  C   UNL     1      -6.348  -5.034   2.438  0.00  0.00    +0.166 C 
ATOM      5  H   UNL     1      -5.745  -6.231   3.960  0.00  0.00    +0.163 HD
ATOM      6  H   UNL     1      -5.973  -3.017   2.572  0.00  0.00    +0.159 HD
ATOM      7  H   UNL     1      -5.455  -3.936   3.934  0.00  0.00    +0.159 HD
ATOM      8  H   UNL     1      -7.290  -5.729   0.743  0.00  0.00    +0.159 HD
ATOM      9  H   UNL     1      -7.011  -4.032   0.769  0.00  0.00    +0.159 HD
ENDROOT
BRANCH   1  10
ATOM     10  C   UNL     1      -6.736  -7.476   2.542  0.00  0.00    +0.151 C 
BRANCH  10  11
ATOM     11  C   UNL     1      -5.607  -8.245   1.914  0.00  0.00    -0.028 A 
ATOM     12  C   UNL     1      -5.805  -8.954   0.721  0.00  0.00    +0.005 A 
ATOM     13  C   UNL     1      -4.334  -8.263   2.505  0.00  0.00    +0.005 A 
ATOM     14  C   UNL     1      -4.749  -9.644   0.121  0.00  0.00    +0.000 A 
ATOM     15  C   UNL     1      -3.282  -8.954   1.903  0.00  0.00    +0.000 A 
ATOM     16  C   UNL     1      -3.489  -9.642   0.710  0.00  0.00    +0.000 A 
ENDBRANCH  10  11
ENDBRANCH   1  10
TORSDOF 2
ENDMDL
MODEL 2
REMARK VINA RESULT:    -4.764     18.869     19.599
REMARK INTER + INTRA:          -5.488
REMARK INTER:                  -5.374
REMARK INTRA:                  -0.114
REMARK UNBOUND:                -0.167
REMARK  Name = 1550473
REMARK  2 active torsions:
REMARK  status: ('A' for Active; 'I' for Inactive)
REMARK    1  A    between atoms: N_1  and  C_4
REMARK    2  A    between atoms: C_4  and  C_5
REMARK                            x       y       z     vdW  Elec       q    Type
REMARK                         _______ _______ _______ _____ _____    ______ ____
ROOT
ATOM      1  N   UNL     1      13.819  -4.944   1.904  0.00  0.00    -0.354 N 
ATOM      2  N   UNL     1      13.804  -4.515   4.180  0.00  0.00    -0.372 N 
ATOM      3  N   UNL     1      12.429  -3.290   2.812  0.00  0.00    -0.372 N 
ATOM      4  C   UNL     1      13.349  -4.251   2.950  0.00  0.00    +0.166 C 
ATOM      5  H   UNL     1      14.538  -5.639   2.071  0.00  0.00    +0.163 HD
ATOM      6  H   UNL     1      13.466  -4.011   4.989  0.00  0.00    +0.159 HD
ATOM      7  H   UNL     1      14.489  -5.241   4.350  0.00  0.00    +0.159 HD
ATOM      8  H   UNL     1      12.049  -3.038   1.909  0.00  0.00    +0.159 HD
ATOM      9  H   UNL     1      12.086  -2.766   3.607  0.00  0.00    +0.159 HD
ENDROOT
BRANCH   1  10
ATOM     10  C   UNL     1      13.350  -4.771   0.530  0.00  0.00    +0.151 C 
BRANCH  10  11
ATOM     11  C   UNL     1      13.935  -5.857  -0.329  0.00  0.00    -0.028 A 
ATOM     12  C   UNL     1      14.386  -5.574  -1.627  0.00  0.00    +0.005 A 
ATOM     13  C   UNL     1      14.047  -7.171   0.151  0.00  0.00    +0.005 A 
ATOM     14  C   UNL     1      14.956  -6.577  -2.414  0.00  0.00    +0.000 A 
ATOM     15  C   UNL     1      14.617  -8.170  -0.639  0.00  0.00    +0.000 A 
ATOM     16  C   UNL     1      15.074  -7.872  -1.921  0.00  0.00    +0.000 A 
ENDBRANCH  10  11
ENDBRANCH   1  10
TORSDOF 2
ENDMDL
MODEL 3
REMARK VINA RESULT:    -4.543     22.377     24.716
REMARK INTER + INTRA:          -5.242
REMARK INTER:                  -5.114
REMARK INTRA:                  -0.128
REMARK UNBOUND:                -0.167
REMARK  Name = 1550473
REMARK  2 active torsions:
REMARK  status: ('A' for Active; 'I' for Inactive)
REMARK    1  A    between atoms: N_1  and  C_4
REMARK    2  A    between atoms: C_4  and  C_5
REMARK                            x       y       z     vdW  Elec       q    Type
REMARK                         _______ _______ _______ _____ _____    ______ ____
ROOT
ATOM      1  N   UNL     1       3.398  13.066   6.668  0.00  0.00    -0.354 N 
ATOM      2  N   UNL     1       3.666  11.478   5.003  0.00  0.00    -0.372 N 
ATOM      3  N   UNL     1       1.775  12.778   5.002  0.00  0.00    -0.372 N 
ATOM      4  C   UNL     1       2.942  12.452   5.568  0.00  0.00    +0.166 C 
ATOM      5  H   UNL     1       4.275  12.752   7.066  0.00  0.00    +0.163 HD
ATOM      6  H   UNL     1       3.349  10.999   4.171  0.00  0.00    +0.159 HD
ATOM      7  H   UNL     1       4.564  11.197   5.377  0.00  0.00    +0.159 HD
ATOM      8  H   UNL     1       1.178  13.500   5.383  0.00  0.00    +0.159 HD
ATOM      9  H   UNL     1       1.435  12.302   4.176  0.00  0.00    +0.159 HD
ENDROOT
BRANCH   1  10
ATOM     10  C   UNL     1       2.712  14.175   7.329  0.00  0.00    +0.151 C 
BRANCH  10  11
ATOM     11  C   UNL     1       3.716  14.978   8.109  0.00  0.00    -0.028 A 
ATOM     12  C   UNL     1       3.294  15.877   9.099  0.00  0.00    +0.005 A 
ATOM     13  C   UNL     1       5.092  14.840   7.866  0.00  0.00    +0.005 A 
ATOM     14  C   UNL     1       4.228  16.601   9.844  0.00  0.00    +0.000 A 
ATOM     15  C   UNL     1       6.020  15.566   8.612  0.00  0.00    +0.000 A 
ATOM     16  C   UNL     1       5.588  16.444   9.603  0.00  0.00    +0.000 A 
ENDBRANCH  10  11
ENDBRANCH   1  10
TORSDOF 2
ENDMDL
MODEL 4
REMARK VINA RESULT:    -4.504     20.563     21.703
REMARK INTER + INTRA:          -5.197
REMARK INTER:                  -5.087
REMARK INTRA:                  -0.110
REMARK UNBOUND:                -0.167
REMARK  Name = 1550473
REMARK  2 active torsions:
REMARK  status: ('A' for Active; 'I' for Inactive)
REMARK    1  A    between atoms: N_1  and  C_4
REMARK    2  A    between atoms: C_4  and  C_5
REMARK                            x       y       z     vdW  Elec       q    Type
REMARK                         _______ _______ _______ _____ _____    ______ ____
ROOT
ATOM      1  N   UNL     1      16.709  -8.564  -3.305  0.00  0.00    -0.354 N 
ATOM      2  N   UNL     1      18.091 -10.409  -3.074  0.00  0.00    -0.372 N 
ATOM      3  N   UNL     1      15.844 -10.740  -3.400  0.00  0.00    -0.372 N 
ATOM      4  C   UNL     1      16.870  -9.893  -3.261  0.00  0.00    +0.166 C 
ATOM      5  H   UNL     1      17.523  -7.976  -3.163  0.00  0.00    +0.163 HD
ATOM      6  H   UNL     1      18.243 -11.408  -3.039  0.00  0.00    +0.159 HD
ATOM      7  H   UNL     1      18.909  -9.819  -2.977  0.00  0.00    +0.159 HD
ATOM      8  H   UNL     1      14.896 -10.415  -3.539  0.00  0.00    +0.159 HD
ATOM      9  H   UNL     1      15.975 -11.743  -3.357  0.00  0.00    +0.159 HD
ENDROOT
BRANCH   1  10
ATOM     10  C   UNL     1      15.431  -7.903  -3.558  0.00  0.00    +0.151 C 
BRANCH  10  11
ATOM     11  C   UNL     1      14.925  -7.303  -2.275  0.00  0.00    -0.028 A 
ATOM     12  C   UNL     1      14.725  -5.919  -2.167  0.00  0.00    +0.005 A 
ATOM     13  C   UNL     1      14.640  -8.113  -1.166  0.00  0.00    +0.005 A 
ATOM     14  C   UNL     1      14.228  -5.364  -0.985  0.00  0.00    +0.000 A 
ATOM     15  C   UNL     1      14.144  -7.556   0.012  0.00  0.00    +0.000 A 
ATOM     16  C   UNL     1      13.935  -6.182   0.102  0.00  0.00    +0.000 A 
ENDBRANCH  10  11
ENDBRANCH   1  10
TORSDOF 2
ENDMDL
MODEL 5
REMARK VINA RESULT:    -4.486      3.625      5.159
REMARK INTER + INTRA:          -5.178
REMARK INTER:                  -4.999
REMARK INTRA:                  -0.179
REMARK UNBOUND:                -0.167
REMARK  Name = 1550473
REMARK  2 active torsions:
REMARK  status: ('A' for Active; 'I' for Inactive)
REMARK    1  A    between atoms: N_1  and  C_4
REMARK    2  A    between atoms: C_4  and  C_5
REMARK                            x       y       z     vdW  Elec       q    Type
REMARK                         _______ _______ _______ _____ _____    ______ ____
ROOT
ATOM      1  N   UNL     1      -4.460 -10.102  -0.262  0.00  0.00    -0.354 N 
ATOM      2  N   UNL     1      -6.128 -11.339  -1.288  0.00  0.00    -0.372 N 
ATOM      3  N   UNL     1      -4.490 -12.441  -0.119  0.00  0.00    -0.372 N 
ATOM      4  C   UNL     1      -5.013 -11.288  -0.549  0.00  0.00    +0.166 C 
ATOM      5  H   UNL     1      -4.888  -9.267  -0.644  0.00  0.00    +0.163 HD
ATOM      6  H   UNL     1      -6.570 -12.219  -1.517  0.00  0.00    +0.159 HD
ATOM      7  H   UNL     1      -6.580 -10.499  -1.629  0.00  0.00    +0.159 HD
ATOM      8  H   UNL     1      -3.647 -12.472   0.438  0.00  0.00    +0.159 HD
ATOM      9  H   UNL     1      -4.912 -13.333  -0.348  0.00  0.00    +0.159 HD
ENDROOT
BRANCH   1  10
ATOM     10  C   UNL     1      -3.276  -9.934   0.579  0.00  0.00    +0.151 C 
BRANCH  10  11
ATOM     11  C   UNL     1      -3.703  -9.432   1.931  0.00  0.00    -0.028 A 
ATOM     12  C   UNL     1      -4.045  -8.085   2.115  0.00  0.00    +0.005 A 
ATOM     13  C   UNL     1      -3.771 -10.300   3.032  0.00  0.00    +0.005 A 
ATOM     14  C   UNL     1      -4.470  -7.624   3.363  0.00  0.00    +0.000 A 
ATOM     15  C   UNL     1      -4.195  -9.837   4.277  0.00  0.00    +0.000 A 
ATOM     16  C   UNL     1      -4.547  -8.499   4.442  0.00  0.00    +0.000 A 
ENDBRANCH  10  11
ENDBRANCH   1  10
TORSDOF 2
ENDMDL
MODEL 6
REMARK VINA RESULT:    -4.282      1.792      2.461
REMARK INTER + INTRA:          -4.950
REMARK INTER:                  -4.819
REMARK INTRA:                  -0.131
REMARK UNBOUND:                -0.167
REMARK  Name = 1550473
REMARK  2 active torsions:
REMARK  status: ('A' for Active; 'I' for Inactive)
REMARK    1  A    between atoms: N_1  and  C_4
REMARK    2  A    between atoms: C_4  and  C_5
REMARK                            x       y       z     vdW  Elec       q    Type
REMARK                         _______ _______ _______ _____ _____    ______ ____
ROOT
ATOM      1  N   UNL     1      -8.114  -6.189   2.219  0.00  0.00    -0.354 N 
ATOM      2  N   UNL     1      -9.509  -5.002   3.636  0.00  0.00    -0.372 N 
ATOM      3  N   UNL     1      -7.833  -3.884   2.538  0.00  0.00    -0.372 N 
ATOM      4  C   UNL     1      -8.474  -5.031   2.788  0.00  0.00    +0.166 C 
ATOM      5  H   UNL     1      -8.621  -7.029   2.473  0.00  0.00    +0.163 HD
ATOM      6  H   UNL     1      -9.807  -4.142   4.078  0.00  0.00    +0.159 HD
ATOM      7  H   UNL     1     -10.044  -5.834   3.853  0.00  0.00    +0.159 HD
ATOM      8  H   UNL     1      -7.040  -3.840   1.911  0.00  0.00    +0.159 HD
ATOM      9  H   UNL     1      -8.108  -3.016   2.979  0.00  0.00    +0.159 HD
ENDROOT
BRANCH   1  10
ATOM     10  C   UNL     1      -7.035  -6.319   1.240  0.00  0.00    +0.151 C 
BRANCH  10  11
ATOM     11  C   UNL     1      -5.973  -7.225   1.798  0.00  0.00    -0.028 A 
ATOM     12  C   UNL     1      -5.515  -7.061   3.114  0.00  0.00    +0.005 A 
ATOM     13  C   UNL     1      -5.423  -8.253   1.017  0.00  0.00    +0.005 A 
ATOM     14  C   UNL     1      -4.550  -7.921   3.642  0.00  0.00    +0.000 A 
ATOM     15  C   UNL     1      -4.458  -9.109   1.548  0.00  0.00    +0.000 A 
ATOM     16  C   UNL     1      -4.024  -8.944   2.861  0.00  0.00    +0.000 A 
ENDBRANCH  10  11
ENDBRANCH   1  10
TORSDOF 2
ENDMDL
MODEL 7
REMARK VINA RESULT:    -4.228     20.693     22.088
REMARK INTER + INTRA:          -4.890
REMARK INTER:                  -4.770
REMARK INTRA:                  -0.119
REMARK UNBOUND:                -0.167
REMARK  Name = 1550473
REMARK  2 active torsions:
REMARK  status: ('A' for Active; 'I' for Inactive)
REMARK    1  A    between atoms: N_1  and  C_4
REMARK    2  A    between atoms: C_4  and  C_5
REMARK                            x       y       z     vdW  Elec       q    Type
REMARK                         _______ _______ _______ _____ _____    ______ ____
ROOT
ATOM      1  N   UNL     1      11.824  -9.703 -13.226  0.00  0.00    -0.354 N 
ATOM      2  N   UNL     1      12.941 -11.702 -12.879  0.00  0.00    -0.372 N 
ATOM      3  N   UNL     1      11.724 -10.798 -11.157  0.00  0.00    -0.372 N 
ATOM      4  C   UNL     1      12.155 -10.720 -12.420  0.00  0.00    +0.166 C 
ATOM      5  H   UNL     1      12.207  -9.687 -14.164  0.00  0.00    +0.163 HD
ATOM      6  H   UNL     1      13.204 -12.484 -12.296  0.00  0.00    +0.159 HD
ATOM      7  H   UNL     1      13.285 -11.707 -13.832  0.00  0.00    +0.159 HD
ATOM      8  H   UNL     1      11.133 -10.086 -10.748  0.00  0.00    +0.159 HD
ATOM      9  H   UNL     1      11.987 -11.567 -10.553  0.00  0.00    +0.159 HD
ENDROOT
BRANCH   1  10
ATOM     10  C   UNL     1      10.930  -8.612 -12.841  0.00  0.00    +0.151 C 
BRANCH  10  11
ATOM     11  C   UNL     1       9.569  -8.860 -13.431  0.00  0.00    -0.028 A 
ATOM     12  C   UNL     1       9.405  -9.772 -14.484  0.00  0.00    +0.005 A 
ATOM     13  C   UNL     1       8.439  -8.190 -12.938  0.00  0.00    +0.005 A 
ATOM     14  C   UNL     1       8.137 -10.025 -15.012  0.00  0.00    +0.000 A 
ATOM     15  C   UNL     1       7.175  -8.445 -13.469  0.00  0.00    +0.000 A 
ATOM     16  C   UNL     1       7.024  -9.364 -14.504  0.00  0.00    +0.000 A 
ENDBRANCH  10  11
ENDBRANCH   1  10
TORSDOF 2
ENDMDL
MODEL 8
REMARK VINA RESULT:    -4.163     10.232     11.289
REMARK INTER + INTRA:          -4.817
REMARK INTER:                  -4.638
REMARK INTRA:                  -0.180
REMARK UNBOUND:                -0.167
REMARK  Name = 1550473
REMARK  2 active torsions:
REMARK  status: ('A' for Active; 'I' for Inactive)
REMARK    1  A    between atoms: N_1  and  C_4
REMARK    2  A    between atoms: C_4  and  C_5
REMARK                            x       y       z     vdW  Elec       q    Type
REMARK                         _______ _______ _______ _____ _____    ______ ____
ROOT
ATOM      1  N   UNL     1      -2.604   2.332  -3.185  0.00  0.00    -0.354 N 
ATOM      2  N   UNL     1      -1.170   0.970  -1.980  0.00  0.00    -0.372 N 
ATOM      3  N   UNL     1      -3.299   1.309  -1.195  0.00  0.00    -0.372 N 
ATOM      4  C   UNL     1      -2.369   1.546  -2.126  0.00  0.00    +0.166 C 
ATOM      5  H   UNL     1      -1.847   2.496  -3.840  0.00  0.00    +0.163 HD
ATOM      6  H   UNL     1      -0.964   0.368  -1.194  0.00  0.00    +0.159 HD
ATOM      7  H   UNL     1      -0.430   1.098  -2.660  0.00  0.00    +0.159 HD
ATOM      8  H   UNL     1      -4.222   1.718  -1.243  0.00  0.00    +0.159 HD
ATOM      9  H   UNL     1      -3.108   0.719  -0.394  0.00  0.00    +0.159 HD
ENDROOT
BRANCH   1  10
ATOM     10  C   UNL     1      -3.892   2.963  -3.465  0.00  0.00    +0.151 C 
BRANCH  10  11
ATOM     11  C   UNL     1      -4.666   2.097  -4.420  0.00  0.00    -0.028 A 
ATOM     12  C   UNL     1      -4.281   2.000  -5.765  0.00  0.00    +0.005 A 
ATOM     13  C   UNL     1      -5.783   1.367  -3.985  0.00  0.00    +0.005 A 
ATOM     14  C   UNL     1      -4.982   1.172  -6.646  0.00  0.00    +0.000 A 
ATOM     15  C   UNL     1      -6.480   0.542  -4.867  0.00  0.00    +0.000 A 
ATOM     16  C   UNL     1      -6.078   0.443  -6.197  0.00  0.00    +0.000 A 
ENDBRANCH  10  11
ENDBRANCH   1  10
TORSDOF 2
ENDMDL
MODEL 9
REMARK VINA RESULT:    -4.154      3.827      5.116
REMARK INTER + INTRA:          -4.807
REMARK INTER:                  -4.630
REMARK INTRA:                  -0.177
REMARK UNBOUND:                -0.167
REMARK  Name = 1550473
REMARK  2 active torsions:
REMARK  status: ('A' for Active; 'I' for Inactive)
REMARK    1  A    between atoms: N_1  and  C_4
REMARK    2  A    between atoms: C_4  and  C_5
REMARK                            x       y       z     vdW  Elec       q    Type
REMARK                         _______ _______ _______ _____ _____    ______ ____
ROOT
ATOM      1  N   UNL     1      -5.863 -10.763  -0.707  0.00  0.00    -0.354 N 
ATOM      2  N   UNL     1      -4.320 -11.565  -2.236  0.00  0.00    -0.372 N 
ATOM      3  N   UNL     1      -4.118 -12.175  -0.034  0.00  0.00    -0.372 N 
ATOM      4  C   UNL     1      -4.776 -11.497  -0.980  0.00  0.00    +0.166 C 
ATOM      5  H   UNL     1      -6.299 -10.248  -1.463  0.00  0.00    +0.163 HD
ATOM      6  H   UNL     1      -3.504 -12.113  -2.474  0.00  0.00    +0.159 HD
ATOM      7  H   UNL     1      -4.785 -11.086  -2.999  0.00  0.00    +0.159 HD
ATOM      8  H   UNL     1      -4.408 -12.160   0.935  0.00  0.00    +0.159 HD
ATOM      9  H   UNL     1      -3.293 -12.720  -0.249  0.00  0.00    +0.159 HD
ENDROOT
BRANCH   1  10
ATOM     10  C   UNL     1      -6.472 -10.666   0.619  0.00  0.00    +0.151 C 
BRANCH  10  11
ATOM     11  C   UNL     1      -5.996  -9.405   1.287  0.00  0.00    -0.028 A 
ATOM     12  C   UNL     1      -6.219  -8.156   0.690  0.00  0.00    +0.005 A 
ATOM     13  C   UNL     1      -5.327  -9.454   2.519  0.00  0.00    +0.005 A 
ATOM     14  C   UNL     1      -5.804  -6.982   1.325  0.00  0.00    +0.000 A 
ATOM     15  C   UNL     1      -4.913  -8.280   3.149  0.00  0.00    +0.000 A 
ATOM     16  C   UNL     1      -5.154  -7.045   2.553  0.00  0.00    +0.000 A 
ENDBRANCH  10  11
ENDBRANCH   1  10
TORSDOF 2
ENDMDL
