MODEL 1
REMARK VINA RESULT:    -5.316      0.000      0.000
REMARK INTER + INTRA:          -6.081
REMARK INTER:                  -5.938
REMARK INTRA:                  -0.142
REMARK UNBOUND:                -0.142
REMARK  Name = 1550473
REMARK  2 active torsions:
REMARK  status: ('A' for Active; 'I' for Inactive)
REMARK    1  A    between atoms: N_1  and  C_4
REMARK    2  A    between atoms: C_4  and  C_5
REMARK                            x       y       z     vdW  Elec       q    Type
REMARK                         _______ _______ _______ _____ _____    ______ ____
ROOT
ATOM      1  N   UNL     1      10.456  -3.734 -11.885  0.00  0.00    -0.354 N 
ATOM      2  N   UNL     1      11.712  -2.158 -13.026  0.00  0.00    -0.372 N 
ATOM      3  N   UNL     1      12.798  -3.817 -11.872  0.00  0.00    -0.372 N 
ATOM      4  C   UNL     1      11.650  -3.248 -12.252  0.00  0.00    +0.166 C 
ATOM      5  H   UNL     1       9.623  -3.239 -12.181  0.00  0.00    +0.163 HD
ATOM      6  H   UNL     1      12.598  -1.770 -13.322  0.00  0.00    +0.159 HD
ATOM      7  H   UNL     1      10.877  -1.692 -13.359  0.00  0.00    +0.159 HD
ATOM      8  H   UNL     1      12.820  -4.638 -11.283  0.00  0.00    +0.159 HD
ATOM      9  H   UNL     1      13.695  -3.437 -12.148  0.00  0.00    +0.159 HD
ENDROOT
BRANCH   1  10
ATOM     10  C   UNL     1      10.278  -4.946 -11.088  0.00  0.00    +0.151 C 
BRANCH  10  11
ATOM     11  C   UNL     1       9.345  -4.651  -9.946  0.00  0.00    -0.028 A 
ATOM     12  C   UNL     1       9.468  -3.460  -9.216  0.00  0.00    +0.005 A 
ATOM     13  C   UNL     1       8.331  -5.555  -9.593  0.00  0.00    +0.005 A 
ATOM     14  C   UNL     1       8.583  -3.171  -8.175  0.00  0.00    +0.000 A 
ATOM     15  C   UNL     1       7.450  -5.264  -8.552  0.00  0.00    +0.000 A 
ATOM     16  C   UNL     1       7.574  -4.071  -7.845  0.00  0.00    +0.000 A 
ENDBRANCH  10  11
ENDBRANCH   1  10
TORSDOF 2
ENDMDL
MODEL 2
REMARK VINA RESULT:    -5.253      2.813      5.091
REMARK INTER + INTRA:          -6.010
REMARK INTER:                  -5.902
REMARK INTRA:                  -0.108
REMARK UNBOUND:                -0.142
REMARK  Name = 1550473
REMARK  2 active torsions:
REMARK  status: ('A' for Active; 'I' for Inactive)
REMARK    1  A    between atoms: N_1  and  C_4
REMARK    2  A    between atoms: C_4  and  C_5
REMARK                            x       y       z     vdW  Elec       q    Type
REMARK                         _______ _______ _______ _____ _____    ______ ____
ROOT
ATOM      1  N   UNL     1       8.340  -4.008  -9.233  0.00  0.00    -0.354 N 
ATOM      2  N   UNL     1       6.825  -5.237  -7.984  0.00  0.00    -0.372 N 
ATOM      3  N   UNL     1       7.450  -3.159  -7.238  0.00  0.00    -0.372 N 
ATOM      4  C   UNL     1       7.549  -4.125  -8.158  0.00  0.00    +0.166 C 
ATOM      5  H   UNL     1       8.393  -4.788  -9.878  0.00  0.00    +0.163 HD
ATOM      6  H   UNL     1       6.217  -5.352  -7.185  0.00  0.00    +0.159 HD
ATOM      7  H   UNL     1       6.846  -5.996  -8.655  0.00  0.00    +0.159 HD
ATOM      8  H   UNL     1       7.975  -2.298  -7.307  0.00  0.00    +0.159 HD
ATOM      9  H   UNL     1       6.856  -3.261  -6.425  0.00  0.00    +0.159 HD
ENDROOT
BRANCH   1  10
ATOM     10  C   UNL     1       9.127  -2.816  -9.543  0.00  0.00    +0.151 C 
BRANCH  10  11
ATOM     11  C   UNL     1       9.890  -3.049 -10.818  0.00  0.00    -0.028 A 
ATOM     12  C   UNL     1       9.932  -2.063 -11.814  0.00  0.00    +0.005 A 
ATOM     13  C   UNL     1      10.579  -4.253 -11.033  0.00  0.00    +0.005 A 
ATOM     14  C   UNL     1      10.665  -2.267 -12.985  0.00  0.00    +0.000 A 
ATOM     15  C   UNL     1      11.309  -4.453 -12.204  0.00  0.00    +0.000 A 
ATOM     16  C   UNL     1      11.354  -3.459 -13.179  0.00  0.00    +0.000 A 
ENDBRANCH  10  11
ENDBRANCH   1  10
TORSDOF 2
ENDMDL
MODEL 3
REMARK VINA RESULT:    -5.249      2.565      5.040
REMARK INTER + INTRA:          -6.005
REMARK INTER:                  -5.884
REMARK INTRA:                  -0.121
REMARK UNBOUND:                -0.142
REMARK  Name = 1550473
REMARK  2 active torsions:
REMARK  status: ('A' for Active; 'I' for Inactive)
REMARK    1  A    between atoms: N_1  and  C_4
REMARK    2  A    between atoms: C_4  and  C_5
REMARK                            x       y       z     vdW  Elec       q    Type
REMARK                         _______ _______ _______ _____ _____    ______ ____
ROOT
ATOM      1  N   UNL     1       9.492  -3.440  -8.844  0.00  0.00    -0.354 N 
ATOM      2  N   UNL     1       8.428  -2.353  -7.098  0.00  0.00    -0.372 N 
ATOM      3  N   UNL     1       7.172  -3.601  -8.556  0.00  0.00    -0.372 N 
ATOM      4  C   UNL     1       8.369  -3.139  -8.179  0.00  0.00    +0.166 C 
ATOM      5  H   UNL     1      10.364  -3.034  -8.525  0.00  0.00    +0.163 HD
ATOM      6  H   UNL     1       7.598  -2.111  -6.573  0.00  0.00    +0.159 HD
ATOM      7  H   UNL     1       9.307  -1.986  -6.754  0.00  0.00    +0.159 HD
ATOM      8  H   UNL     1       7.058  -4.194  -9.367  0.00  0.00    +0.159 HD
ATOM      9  H   UNL     1       6.328  -3.361  -8.051  0.00  0.00    +0.159 HD
ENDROOT
BRANCH   1  10
ATOM     10  C   UNL     1       9.542  -4.332 -10.002  0.00  0.00    +0.151 C 
BRANCH  10  11
ATOM     11  C   UNL     1      10.453  -3.736 -11.040  0.00  0.00    -0.028 A 
ATOM     12  C   UNL     1      11.752  -4.234 -11.217  0.00  0.00    +0.005 A 
ATOM     13  C   UNL     1      10.020  -2.679 -11.855  0.00  0.00    +0.005 A 
ATOM     14  C   UNL     1      12.588  -3.701 -12.202  0.00  0.00    +0.000 A 
ATOM     15  C   UNL     1      10.857  -2.149 -12.836  0.00  0.00    +0.000 A 
ATOM     16  C   UNL     1      12.140  -2.662 -13.011  0.00  0.00    +0.000 A 
ENDBRANCH  10  11
ENDBRANCH   1  10
TORSDOF 2
ENDMDL
MODEL 4
REMARK VINA RESULT:    -5.245      2.247      5.206
REMARK INTER + INTRA:          -6.000
REMARK INTER:                  -5.891
REMARK INTRA:                  -0.110
REMARK UNBOUND:                -0.142
REMARK  Name = 1550473
REMARK  2 active torsions:
REMARK  status: ('A' for Active; 'I' for Inactive)
REMARK    1  A    between atoms: N_1  and  C_4
REMARK    2  A    between atoms: C_4  and  C_5
REMARK                            x       y       z     vdW  Elec       q    Type
REMARK                         _______ _______ _______ _____ _____    ______ ____
ROOT
ATOM      1  N   UNL     1       9.516  -2.816 -10.293  0.00  0.00    -0.354 N 
ATOM      2  N   UNL     1       8.668  -2.772  -8.139  0.00  0.00    -0.372 N 
ATOM      3  N   UNL     1       8.527  -4.717  -9.347  0.00  0.00    -0.372 N 
ATOM      4  C   UNL     1       8.908  -3.438  -9.274  0.00  0.00    +0.166 C 
ATOM      5  H   UNL     1       9.753  -1.836 -10.186  0.00  0.00    +0.163 HD
ATOM      6  H   UNL     1       8.214  -3.216  -7.352  0.00  0.00    +0.159 HD
ATOM      7  H   UNL     1       8.947  -1.806  -8.018  0.00  0.00    +0.159 HD
ATOM      8  H   UNL     1       8.674  -5.274 -10.178  0.00  0.00    +0.159 HD
ATOM      9  H   UNL     1       8.061  -5.176  -8.574  0.00  0.00    +0.159 HD
ENDROOT
BRANCH   1  10
ATOM     10  C   UNL     1       9.872  -3.466 -11.553  0.00  0.00    +0.151 C 
BRANCH  10  11
ATOM     11  C   UNL     1      11.247  -3.018 -11.966  0.00  0.00    -0.028 A 
ATOM     12  C   UNL     1      11.436  -1.769 -12.576  0.00  0.00    +0.005 A 
ATOM     13  C   UNL     1      12.366  -3.835 -11.744  0.00  0.00    +0.005 A 
ATOM     14  C   UNL     1      12.717  -1.340 -12.932  0.00  0.00    +0.000 A 
ATOM     15  C   UNL     1      13.643  -3.403 -12.102  0.00  0.00    +0.000 A 
ATOM     16  C   UNL     1      13.818  -2.155 -12.694  0.00  0.00    +0.000 A 
ENDBRANCH  10  11
ENDBRANCH   1  10
TORSDOF 2
ENDMDL
MODEL 5
REMARK VINA RESULT:    -5.119     25.784     27.734
REMARK INTER + INTRA:          -5.860
REMARK INTER:                  -5.739
REMARK INTRA:                  -0.122
REMARK UNBOUND:                -0.142
REMARK  Name = 1550473
REMARK  2 active torsions:
REMARK  status: ('A' for Active; 'I' for Inactive)
REMARK    1  A    between atoms: N_1  and  C_4
REMARK    2  A    between atoms: C_4  and  C_5
REMARK                            x       y       z     vdW  Elec       q    Type
REMARK                         _______ _______ _______ _____ _____    ______ ____
ROOT
ATOM      1  N   UNL     1     -10.153  -4.846   8.105  0.00  0.00    -0.354 N 
ATOM      2  N   UNL     1      -9.988  -3.850   6.021  0.00  0.00    -0.372 N 
ATOM      3  N   UNL     1      -8.235  -5.117   6.786  0.00  0.00    -0.372 N 
ATOM      4  C   UNL     1      -9.457  -4.612   6.984  0.00  0.00    +0.166 C 
ATOM      5  H   UNL     1     -11.062  -4.409   8.207  0.00  0.00    +0.163 HD
ATOM      6  H   UNL     1      -9.488  -3.659   5.163  0.00  0.00    +0.159 HD
ATOM      7  H   UNL     1     -10.915  -3.452   6.106  0.00  0.00    +0.159 HD
ATOM      8  H   UNL     1      -7.776  -5.696   7.477  0.00  0.00    +0.159 HD
ATOM      9  H   UNL     1      -7.714  -4.928   5.939  0.00  0.00    +0.159 HD
ENDROOT
BRANCH   1  10
ATOM     10  C   UNL     1      -9.688  -5.706   9.192  0.00  0.00    +0.151 C 
BRANCH  10  11
ATOM     11  C   UNL     1      -9.407  -4.859  10.402  0.00  0.00    -0.028 A 
ATOM     12  C   UNL     1      -9.647  -3.478  10.376  0.00  0.00    +0.005 A 
ATOM     13  C   UNL     1      -8.907  -5.433  11.581  0.00  0.00    +0.005 A 
ATOM     14  C   UNL     1      -9.415  -2.695  11.510  0.00  0.00    +0.000 A 
ATOM     15  C   UNL     1      -8.675  -4.649  12.711  0.00  0.00    +0.000 A 
ATOM     16  C   UNL     1      -8.932  -3.280  12.676  0.00  0.00    +0.000 A 
ENDBRANCH  10  11
ENDBRANCH   1  10
TORSDOF 2
ENDMDL
MODEL 6
REMARK VINA RESULT:    -5.099     27.534     28.551
REMARK INTER + INTRA:          -5.838
REMARK INTER:                  -5.713
REMARK INTRA:                  -0.125
REMARK UNBOUND:                -0.142
REMARK  Name = 1550473
REMARK  2 active torsions:
REMARK  status: ('A' for Active; 'I' for Inactive)
REMARK    1  A    between atoms: N_1  and  C_4
REMARK    2  A    between atoms: C_4  and  C_5
REMARK                            x       y       z     vdW  Elec       q    Type
REMARK                         _______ _______ _______ _____ _____    ______ ____
ROOT
ATOM      1  N   UNL     1     -17.808   0.931 -17.798  0.00  0.00    -0.354 N 
ATOM      2  N   UNL     1     -20.006   1.166 -17.107  0.00  0.00    -0.372 N 
ATOM      3  N   UNL     1     -19.185   2.599 -18.700  0.00  0.00    -0.372 N 
ATOM      4  C   UNL     1     -18.985   1.566 -17.874  0.00  0.00    +0.166 C 
ATOM      5  H   UNL     1     -17.712   0.174 -17.130  0.00  0.00    +0.163 HD
ATOM      6  H   UNL     1     -20.907   1.624 -17.145  0.00  0.00    +0.159 HD
ATOM      7  H   UNL     1     -19.921   0.381 -16.474  0.00  0.00    +0.159 HD
ATOM      8  H   UNL     1     -18.453   2.953 -19.301  0.00  0.00    +0.159 HD
ATOM      9  H   UNL     1     -20.076   3.078 -18.744  0.00  0.00    +0.159 HD
ENDROOT
BRANCH   1  10
ATOM     10  C   UNL     1     -16.649   1.253 -18.629  0.00  0.00    +0.151 C 
BRANCH  10  11
ATOM     11  C   UNL     1     -15.866   2.356 -17.973  0.00  0.00    -0.028 A 
ATOM     12  C   UNL     1     -15.512   3.505 -18.695  0.00  0.00    +0.005 A 
ATOM     13  C   UNL     1     -15.479   2.261 -16.627  0.00  0.00    +0.005 A 
ATOM     14  C   UNL     1     -14.810   4.543 -18.078  0.00  0.00    +0.000 A 
ATOM     15  C   UNL     1     -14.777   3.299 -16.015  0.00  0.00    +0.000 A 
ATOM     16  C   UNL     1     -14.445   4.441 -16.740  0.00  0.00    +0.000 A 
ENDBRANCH  10  11
ENDBRANCH   1  10
TORSDOF 2
ENDMDL
MODEL 7
REMARK VINA RESULT:    -4.949     26.814     27.597
REMARK INTER + INTRA:          -5.670
REMARK INTER:                  -5.532
REMARK INTRA:                  -0.138
REMARK UNBOUND:                -0.142
REMARK  Name = 1550473
REMARK  2 active torsions:
REMARK  status: ('A' for Active; 'I' for Inactive)
REMARK    1  A    between atoms: N_1  and  C_4
REMARK    2  A    between atoms: C_4  and  C_5
REMARK                            x       y       z     vdW  Elec       q    Type
REMARK                         _______ _______ _______ _____ _____    ______ ____
ROOT
ATOM      1  N   UNL     1     -15.690   1.557 -17.695  0.00  0.00    -0.354 N 
ATOM      2  N   UNL     1     -16.352  -0.400 -18.742  0.00  0.00    -0.372 N 
ATOM      3  N   UNL     1     -17.949   0.943 -17.788  0.00  0.00    -0.372 N 
ATOM      4  C   UNL     1     -16.662   0.714 -18.067  0.00  0.00    +0.166 C 
ATOM      5  H   UNL     1     -14.730   1.311 -17.910  0.00  0.00    +0.163 HD
ATOM      6  H   UNL     1     -17.064  -1.053 -19.039  0.00  0.00    +0.159 HD
ATOM      7  H   UNL     1     -15.397  -0.621 -18.996  0.00  0.00    +0.159 HD
ATOM      8  H   UNL     1     -18.249   1.762 -17.277  0.00  0.00    +0.159 HD
ATOM      9  H   UNL     1     -18.676   0.295 -18.067  0.00  0.00    +0.159 HD
ENDROOT
BRANCH   1  10
ATOM     10  C   UNL     1     -15.926   2.823 -17.004  0.00  0.00    +0.151 C 
BRANCH  10  11
ATOM     11  C   UNL     1     -15.098   3.898 -17.652  0.00  0.00    -0.028 A 
ATOM     12  C   UNL     1     -14.468   4.879 -16.872  0.00  0.00    +0.005 A 
ATOM     13  C   UNL     1     -14.935   3.939 -19.045  0.00  0.00    +0.005 A 
ATOM     14  C   UNL     1     -13.674   5.860 -17.471  0.00  0.00    +0.000 A 
ATOM     15  C   UNL     1     -14.143   4.921 -19.639  0.00  0.00    +0.000 A 
ATOM     16  C   UNL     1     -13.511   5.880 -18.852  0.00  0.00    +0.000 A 
ENDBRANCH  10  11
ENDBRANCH   1  10
TORSDOF 2
ENDMDL
MODEL 8
REMARK VINA RESULT:    -4.848     26.341     28.298
REMARK INTER + INTRA:          -5.558
REMARK INTER:                  -5.457
REMARK INTRA:                  -0.101
REMARK UNBOUND:                -0.142
REMARK  Name = 1550473
REMARK  2 active torsions:
REMARK  status: ('A' for Active; 'I' for Inactive)
REMARK    1  A    between atoms: N_1  and  C_4
REMARK    2  A    between atoms: C_4  and  C_5
REMARK                            x       y       z     vdW  Elec       q    Type
REMARK                         _______ _______ _______ _____ _____    ______ ____
ROOT
ATOM      1  N   UNL     1      -9.495  -4.209   8.612  0.00  0.00    -0.354 N 
ATOM      2  N   UNL     1      -9.083  -5.275   6.598  0.00  0.00    -0.372 N 
ATOM      3  N   UNL     1     -10.108  -6.447   8.284  0.00  0.00    -0.372 N 
ATOM      4  C   UNL     1      -9.566  -5.306   7.846  0.00  0.00    +0.166 C 
ATOM      5  H   UNL     1      -9.045  -3.384   8.232  0.00  0.00    +0.163 HD
ATOM      6  H   UNL     1      -9.125  -6.086   5.995  0.00  0.00    +0.159 HD
ATOM      7  H   UNL     1      -8.674  -4.436   6.205  0.00  0.00    +0.159 HD
ATOM      8  H   UNL     1     -10.486  -6.537   9.217  0.00  0.00    +0.159 HD
ATOM      9  H   UNL     1     -10.149  -7.273   7.699  0.00  0.00    +0.159 HD
ENDROOT
BRANCH   1  10
ATOM     10  C   UNL     1     -10.040  -4.121   9.966  0.00  0.00    +0.151 C 
BRANCH  10  11
ATOM     11  C   UNL     1     -10.217  -2.672  10.331  0.00  0.00    -0.028 A 
ATOM     12  C   UNL     1     -11.241  -1.911   9.749  0.00  0.00    +0.005 A 
ATOM     13  C   UNL     1      -9.366  -2.057  11.262  0.00  0.00    +0.005 A 
ATOM     14  C   UNL     1     -11.424  -0.574  10.110  0.00  0.00    +0.000 A 
ATOM     15  C   UNL     1      -9.552  -0.721  11.619  0.00  0.00    +0.000 A 
ATOM     16  C   UNL     1     -10.582   0.019  11.045  0.00  0.00    +0.000 A 
ENDBRANCH  10  11
ENDBRANCH   1  10
TORSDOF 2
ENDMDL
MODEL 9
REMARK VINA RESULT:    -4.822      4.205      5.543
REMARK INTER + INTRA:          -5.528
REMARK INTER:                  -5.398
REMARK INTRA:                  -0.130
REMARK UNBOUND:                -0.142
REMARK  Name = 1550473
REMARK  2 active torsions:
REMARK  status: ('A' for Active; 'I' for Inactive)
REMARK    1  A    between atoms: N_1  and  C_4
REMARK    2  A    between atoms: C_4  and  C_5
REMARK                            x       y       z     vdW  Elec       q    Type
REMARK                         _______ _______ _______ _____ _____    ______ ____
ROOT
ATOM      1  N   UNL     1       9.261  -0.941 -12.727  0.00  0.00    -0.354 N 
ATOM      2  N   UNL     1       7.141  -0.596 -11.862  0.00  0.00    -0.372 N 
ATOM      3  N   UNL     1       8.544   1.203 -12.107  0.00  0.00    -0.372 N 
ATOM      4  C   UNL     1       8.330  -0.111 -12.237  0.00  0.00    +0.166 C 
ATOM      5  H   UNL     1       9.048  -1.931 -12.772  0.00  0.00    +0.163 HD
ATOM      6  H   UNL     1       6.418   0.007 -11.492  0.00  0.00    +0.159 HD
ATOM      7  H   UNL     1       6.914  -1.579 -11.951  0.00  0.00    +0.159 HD
ATOM      8  H   UNL     1       9.423   1.630 -12.367  0.00  0.00    +0.159 HD
ATOM      9  H   UNL     1       7.837   1.820 -11.728  0.00  0.00    +0.159 HD
ENDROOT
BRANCH   1  10
ATOM     10  C   UNL     1      10.569  -0.506 -13.214  0.00  0.00    +0.151 C 
BRANCH  10  11
ATOM     11  C   UNL     1      11.605  -1.519 -12.810  0.00  0.00    -0.028 A 
ATOM     12  C   UNL     1      12.959  -1.161 -12.737  0.00  0.00    +0.005 A 
ATOM     13  C   UNL     1      11.238  -2.835 -12.493  0.00  0.00    +0.005 A 
ATOM     14  C   UNL     1      13.918  -2.093 -12.332  0.00  0.00    +0.000 A 
ATOM     15  C   UNL     1      12.199  -3.763 -12.090  0.00  0.00    +0.000 A 
ATOM     16  C   UNL     1      13.538  -3.391 -12.008  0.00  0.00    +0.000 A 
ENDBRANCH  10  11
ENDBRANCH   1  10
TORSDOF 2
ENDMDL
