MODEL 1
REMARK VINA RESULT:    -5.244      0.000      0.000
REMARK INTER + INTRA:          -6.023
REMARK INTER:                  -5.858
REMARK INTRA:                  -0.165
REMARK UNBOUND:                -0.165
REMARK  Name = 1550473
REMARK  2 active torsions:
REMARK  status: ('A' for Active; 'I' for Inactive)
REMARK    1  A    between atoms: N_1  and  C_4
REMARK    2  A    between atoms: C_4  and  C_5
REMARK                            x       y       z     vdW  Elec       q    Type
REMARK                         _______ _______ _______ _____ _____    ______ ____
ROOT
ATOM      1  N   UNL     1       4.595  10.150   2.273  0.00  0.00    -0.354 N 
ATOM      2  N   UNL     1       6.260  11.553   3.064  0.00  0.00    -0.372 N 
ATOM      3  N   UNL     1       6.503  10.603   0.990  0.00  0.00    -0.372 N 
ATOM      4  C   UNL     1       5.776  10.759   2.101  0.00  0.00    +0.166 C 
ATOM      5  H   UNL     1       4.107  10.285   3.151  0.00  0.00    +0.163 HD
ATOM      6  H   UNL     1       7.146  12.028   2.961  0.00  0.00    +0.159 HD
ATOM      7  H   UNL     1       5.748  11.723   3.921  0.00  0.00    +0.159 HD
ATOM      8  H   UNL     1       6.197  10.012   0.228  0.00  0.00    +0.159 HD
ATOM      9  H   UNL     1       7.399  11.061   0.873  0.00  0.00    +0.159 HD
ENDROOT
BRANCH   1  10
ATOM     10  C   UNL     1       3.955   9.308   1.264  0.00  0.00    +0.151 C 
BRANCH  10  11
ATOM     11  C   UNL     1       3.970   7.880   1.736  0.00  0.00    -0.028 A 
ATOM     12  C   UNL     1       3.096   7.455   2.747  0.00  0.00    +0.005 A 
ATOM     13  C   UNL     1       4.851   6.945   1.171  0.00  0.00    +0.005 A 
ATOM     14  C   UNL     1       3.089   6.122   3.165  0.00  0.00    +0.000 A 
ATOM     15  C   UNL     1       4.841   5.615   1.591  0.00  0.00    +0.000 A 
ATOM     16  C   UNL     1       3.958   5.203   2.586  0.00  0.00    +0.000 A 
ENDBRANCH  10  11
ENDBRANCH   1  10
TORSDOF 2
ENDMDL
MODEL 2
REMARK VINA RESULT:    -4.832      1.547      2.458
REMARK INTER + INTRA:          -5.562
REMARK INTER:                  -5.388
REMARK INTRA:                  -0.174
REMARK UNBOUND:                -0.165
REMARK  Name = 1550473
REMARK  2 active torsions:
REMARK  status: ('A' for Active; 'I' for Inactive)
REMARK    1  A    between atoms: N_1  and  C_4
REMARK    2  A    between atoms: C_4  and  C_5
REMARK                            x       y       z     vdW  Elec       q    Type
REMARK                         _______ _______ _______ _____ _____    ______ ____
ROOT
ATOM      1  N   UNL     1       6.777  10.112   2.726  0.00  0.00    -0.354 N 
ATOM      2  N   UNL     1       7.368  11.635   1.084  0.00  0.00    -0.372 N 
ATOM      3  N   UNL     1       5.728  12.203   2.586  0.00  0.00    -0.372 N 
ATOM      4  C   UNL     1       6.618  11.308   2.144  0.00  0.00    +0.166 C 
ATOM      5  H   UNL     1       7.448   9.467   2.325  0.00  0.00    +0.163 HD
ATOM      6  H   UNL     1       7.272  12.531   0.626  0.00  0.00    +0.159 HD
ATOM      7  H   UNL     1       8.069  11.006   0.713  0.00  0.00    +0.159 HD
ATOM      8  H   UNL     1       5.128  12.015   3.378  0.00  0.00    +0.159 HD
ATOM      9  H   UNL     1       5.610  13.101   2.133  0.00  0.00    +0.159 HD
ENDROOT
BRANCH   1  10
ATOM     10  C   UNL     1       6.050   9.680   3.918  0.00  0.00    +0.151 C 
BRANCH  10  11
ATOM     11  C   UNL     1       5.039   8.638   3.525  0.00  0.00    -0.028 A 
ATOM     12  C   UNL     1       5.430   7.306   3.324  0.00  0.00    +0.005 A 
ATOM     13  C   UNL     1       3.687   8.975   3.358  0.00  0.00    +0.005 A 
ATOM     14  C   UNL     1       4.487   6.332   2.988  0.00  0.00    +0.000 A 
ATOM     15  C   UNL     1       2.748   8.000   3.023  0.00  0.00    +0.000 A 
ATOM     16  C   UNL     1       3.148   6.678   2.840  0.00  0.00    +0.000 A 
ENDBRANCH  10  11
ENDBRANCH   1  10
TORSDOF 2
ENDMDL
MODEL 3
REMARK VINA RESULT:    -4.227     26.221     27.229
REMARK INTER + INTRA:          -4.887
REMARK INTER:                  -4.745
REMARK INTRA:                  -0.142
REMARK UNBOUND:                -0.165
REMARK  Name = 1550473
REMARK  2 active torsions:
REMARK  status: ('A' for Active; 'I' for Inactive)
REMARK    1  A    between atoms: N_1  and  C_4
REMARK    2  A    between atoms: C_4  and  C_5
REMARK                            x       y       z     vdW  Elec       q    Type
REMARK                         _______ _______ _______ _____ _____    ______ ____
ROOT
ATOM      1  N   UNL     1      -7.574  -7.345 -16.937  0.00  0.00    -0.354 N 
ATOM      2  N   UNL     1      -7.866  -5.054 -17.102  0.00  0.00    -0.372 N 
ATOM      3  N   UNL     1      -9.716  -6.395 -16.887  0.00  0.00    -0.372 N 
ATOM      4  C   UNL     1      -8.386  -6.281 -16.974  0.00  0.00    +0.166 C 
ATOM      5  H   UNL     1      -6.577  -7.194 -17.038  0.00  0.00    +0.163 HD
ATOM      6  H   UNL     1      -8.454  -4.231 -17.130  0.00  0.00    +0.159 HD
ATOM      7  H   UNL     1      -6.867  -4.902 -17.157  0.00  0.00    +0.159 HD
ATOM      8  H   UNL     1     -10.171  -7.294 -16.795  0.00  0.00    +0.159 HD
ATOM      9  H   UNL     1     -10.321  -5.585 -16.925  0.00  0.00    +0.159 HD
ENDROOT
BRANCH   1  10
ATOM     10  C   UNL     1      -8.035  -8.719 -16.746  0.00  0.00    +0.151 C 
BRANCH  10  11
ATOM     11  C   UNL     1      -7.490  -9.245 -15.447  0.00  0.00    -0.028 A 
ATOM     12  C   UNL     1      -7.799  -8.608 -14.235  0.00  0.00    +0.005 A 
ATOM     13  C   UNL     1      -6.668 -10.382 -15.419  0.00  0.00    +0.005 A 
ATOM     14  C   UNL     1      -7.317  -9.114 -13.025  0.00  0.00    +0.000 A 
ATOM     15  C   UNL     1      -6.188 -10.883 -14.209  0.00  0.00    +0.000 A 
ATOM     16  C   UNL     1      -6.515 -10.250 -13.013  0.00  0.00    +0.000 A 
ENDBRANCH  10  11
ENDBRANCH   1  10
TORSDOF 2
ENDMDL
MODEL 4
REMARK VINA RESULT:    -4.217     58.803     60.058
REMARK INTER + INTRA:          -4.875
REMARK INTER:                  -4.715
REMARK INTRA:                  -0.160
REMARK UNBOUND:                -0.165
REMARK  Name = 1550473
REMARK  2 active torsions:
REMARK  status: ('A' for Active; 'I' for Inactive)
REMARK    1  A    between atoms: N_1  and  C_4
REMARK    2  A    between atoms: C_4  and  C_5
REMARK                            x       y       z     vdW  Elec       q    Type
REMARK                         _______ _______ _______ _____ _____    ______ ____
ROOT
ATOM      1  N   UNL     1      13.018 -31.652 -43.011  0.00  0.00    -0.354 N 
ATOM      2  N   UNL     1      14.981 -32.528 -42.150  0.00  0.00    -0.372 N 
ATOM      3  N   UNL     1      14.319 -30.432 -41.491  0.00  0.00    -0.372 N 
ATOM      4  C   UNL     1      14.093 -31.529 -42.222  0.00  0.00    +0.166 C 
ATOM      5  H   UNL     1      12.920 -32.496 -43.563  0.00  0.00    +0.163 HD
ATOM      6  H   UNL     1      15.800 -32.466 -41.560  0.00  0.00    +0.159 HD
ATOM      7  H   UNL     1      14.856 -33.390 -42.668  0.00  0.00    +0.159 HD
ATOM      8  H   UNL     1      13.690 -29.640 -41.505  0.00  0.00    +0.159 HD
ATOM      9  H   UNL     1      15.139 -30.346 -40.904  0.00  0.00    +0.159 HD
ENDROOT
BRANCH   1  10
ATOM     10  C   UNL     1      11.964 -30.645 -43.120  0.00  0.00    +0.151 C 
BRANCH  10  11
ATOM     11  C   UNL     1      10.683 -31.213 -42.573  0.00  0.00    -0.028 A 
ATOM     12  C   UNL     1       9.827 -31.960 -43.395  0.00  0.00    +0.005 A 
ATOM     13  C   UNL     1      10.323 -31.012 -41.232  0.00  0.00    +0.005 A 
ATOM     14  C   UNL     1       8.653 -32.513 -42.880  0.00  0.00    +0.000 A 
ATOM     15  C   UNL     1       9.148 -31.565 -40.721  0.00  0.00    +0.000 A 
ATOM     16  C   UNL     1       8.315 -32.318 -41.545  0.00  0.00    +0.000 A 
ENDBRANCH  10  11
ENDBRANCH   1  10
TORSDOF 2
ENDMDL
MODEL 5
REMARK VINA RESULT:    -4.066     24.792     26.097
REMARK INTER + INTRA:          -4.707
REMARK INTER:                  -4.568
REMARK INTRA:                  -0.139
REMARK UNBOUND:                -0.165
REMARK  Name = 1550473
REMARK  2 active torsions:
REMARK  status: ('A' for Active; 'I' for Inactive)
REMARK    1  A    between atoms: N_1  and  C_4
REMARK    2  A    between atoms: C_4  and  C_5
REMARK                            x       y       z     vdW  Elec       q    Type
REMARK                         _______ _______ _______ _____ _____    ______ ____
ROOT
ATOM      1  N   UNL     1       4.007  -7.575 -20.248  0.00  0.00    -0.354 N 
ATOM      2  N   UNL     1       3.189  -9.445 -21.342  0.00  0.00    -0.372 N 
ATOM      3  N   UNL     1       5.148  -9.620 -20.161  0.00  0.00    -0.372 N 
ATOM      4  C   UNL     1       4.122  -8.868 -20.576  0.00  0.00    +0.166 C 
ATOM      5  H   UNL     1       3.221  -7.052 -20.619  0.00  0.00    +0.163 HD
ATOM      6  H   UNL     1       3.247 -10.420 -21.603  0.00  0.00    +0.159 HD
ATOM      7  H   UNL     1       2.381  -8.932 -21.674  0.00  0.00    +0.159 HD
ATOM      8  H   UNL     1       5.889  -9.243 -19.585  0.00  0.00    +0.159 HD
ATOM      9  H   UNL     1       5.230 -10.595 -20.421  0.00  0.00    +0.159 HD
ENDROOT
BRANCH   1  10
ATOM     10  C   UNL     1       4.940  -6.866 -19.374  0.00  0.00    +0.151 C 
BRANCH  10  11
ATOM     11  C   UNL     1       4.162  -6.128 -18.320  0.00  0.00    -0.028 A 
ATOM     12  C   UNL     1       4.599  -4.879 -17.856  0.00  0.00    +0.005 A 
ATOM     13  C   UNL     1       2.984  -6.671 -17.784  0.00  0.00    +0.005 A 
ATOM     14  C   UNL     1       3.861  -4.179 -16.898  0.00  0.00    +0.000 A 
ATOM     15  C   UNL     1       2.250  -5.970 -16.827  0.00  0.00    +0.000 A 
ATOM     16  C   UNL     1       2.687  -4.723 -16.386  0.00  0.00    +0.000 A 
ENDBRANCH  10  11
ENDBRANCH   1  10
TORSDOF 2
ENDMDL
MODEL 6
REMARK VINA RESULT:    -4.053     59.779     61.298
REMARK INTER + INTRA:          -4.693
REMARK INTER:                  -4.577
REMARK INTRA:                  -0.116
REMARK UNBOUND:                -0.165
REMARK  Name = 1550473
REMARK  2 active torsions:
REMARK  status: ('A' for Active; 'I' for Inactive)
REMARK    1  A    between atoms: N_1  and  C_4
REMARK    2  A    between atoms: C_4  and  C_5
REMARK                            x       y       z     vdW  Elec       q    Type
REMARK                         _______ _______ _______ _____ _____    ______ ____
ROOT
ATOM      1  N   UNL     1      14.178 -38.304 -38.898  0.00  0.00    -0.354 N 
ATOM      2  N   UNL     1      15.183 -40.312 -39.467  0.00  0.00    -0.372 N 
ATOM      3  N   UNL     1      16.396 -38.372 -39.650  0.00  0.00    -0.372 N 
ATOM      4  C   UNL     1      15.248 -38.981 -39.336  0.00  0.00    +0.166 C 
ATOM      5  H   UNL     1      13.327 -38.821 -38.705  0.00  0.00    +0.163 HD
ATOM      6  H   UNL     1      15.976 -40.850 -39.792  0.00  0.00    +0.159 HD
ATOM      7  H   UNL     1      14.347 -40.830 -39.230  0.00  0.00    +0.159 HD
ATOM      8  H   UNL     1      16.508 -37.370 -39.579  0.00  0.00    +0.159 HD
ATOM      9  H   UNL     1      17.197 -38.892 -39.988  0.00  0.00    +0.159 HD
ENDROOT
BRANCH   1  10
ATOM     10  C   UNL     1      14.161 -36.861 -38.669  0.00  0.00    +0.151 C 
BRANCH  10  11
ATOM     11  C   UNL     1      13.296 -36.563 -37.475  0.00  0.00    -0.028 A 
ATOM     12  C   UNL     1      13.688 -35.599 -36.535  0.00  0.00    +0.005 A 
ATOM     13  C   UNL     1      12.081 -37.237 -37.282  0.00  0.00    +0.005 A 
ATOM     14  C   UNL     1      12.871 -35.301 -35.442  0.00  0.00    +0.000 A 
ATOM     15  C   UNL     1      11.268 -36.937 -36.189  0.00  0.00    +0.000 A 
ATOM     16  C   UNL     1      11.662 -35.967 -35.270  0.00  0.00    +0.000 A 
ENDBRANCH  10  11
ENDBRANCH   1  10
TORSDOF 2
ENDMDL
MODEL 7
REMARK VINA RESULT:    -4.044     58.545     59.727
REMARK INTER + INTRA:          -4.683
REMARK INTER:                  -4.591
REMARK INTRA:                  -0.092
REMARK UNBOUND:                -0.165
REMARK  Name = 1550473
REMARK  2 active torsions:
REMARK  status: ('A' for Active; 'I' for Inactive)
REMARK    1  A    between atoms: N_1  and  C_4
REMARK    2  A    between atoms: C_4  and  C_5
REMARK                            x       y       z     vdW  Elec       q    Type
REMARK                         _______ _______ _______ _____ _____    ______ ____
ROOT
ATOM      1  N   UNL     1      11.501 -37.686 -35.924  0.00  0.00    -0.354 N 
ATOM      2  N   UNL     1       9.971 -37.695 -34.186  0.00  0.00    -0.372 N 
ATOM      3  N   UNL     1       9.457 -36.554 -36.109  0.00  0.00    -0.372 N 
ATOM      4  C   UNL     1      10.318 -37.310 -35.420  0.00  0.00    +0.166 C 
ATOM      5  H   UNL     1      12.122 -38.233 -35.340  0.00  0.00    +0.163 HD
ATOM      6  H   UNL     1       9.084 -37.429 -33.780  0.00  0.00    +0.159 HD
ATOM      7  H   UNL     1      10.574 -38.280 -33.621  0.00  0.00    +0.159 HD
ATOM      8  H   UNL     1       9.662 -36.226 -37.044  0.00  0.00    +0.159 HD
ATOM      9  H   UNL     1       8.569 -36.269 -35.716  0.00  0.00    +0.159 HD
ENDROOT
BRANCH   1  10
ATOM     10  C   UNL     1      11.951 -37.365 -37.278  0.00  0.00    +0.151 C 
BRANCH  10  11
ATOM     11  C   UNL     1      13.127 -36.432 -37.195  0.00  0.00    -0.028 A 
ATOM     12  C   UNL     1      13.266 -35.556 -36.108  0.00  0.00    +0.005 A 
ATOM     13  C   UNL     1      14.109 -36.421 -38.198  0.00  0.00    +0.005 A 
ATOM     14  C   UNL     1      14.374 -34.710 -36.016  0.00  0.00    +0.000 A 
ATOM     15  C   UNL     1      15.213 -35.574 -38.103  0.00  0.00    +0.000 A 
ATOM     16  C   UNL     1      15.346 -34.720 -37.011  0.00  0.00    +0.000 A 
ENDBRANCH  10  11
ENDBRANCH   1  10
TORSDOF 2
ENDMDL
MODEL 8
REMARK VINA RESULT:    -3.946     58.547     59.953
REMARK INTER + INTRA:          -4.573
REMARK INTER:                  -4.445
REMARK INTRA:                  -0.128
REMARK UNBOUND:                -0.165
REMARK  Name = 1550473
REMARK  2 active torsions:
REMARK  status: ('A' for Active; 'I' for Inactive)
REMARK    1  A    between atoms: N_1  and  C_4
REMARK    2  A    between atoms: C_4  and  C_5
REMARK                            x       y       z     vdW  Elec       q    Type
REMARK                         _______ _______ _______ _____ _____    ______ ____
ROOT
ATOM      1  N   UNL     1      10.502 -41.379 -31.264  0.00  0.00    -0.354 N 
ATOM      2  N   UNL     1      12.095 -42.988 -30.781  0.00  0.00    -0.372 N 
ATOM      3  N   UNL     1      11.751 -42.390 -32.969  0.00  0.00    -0.372 N 
ATOM      4  C   UNL     1      11.439 -42.242 -31.677  0.00  0.00    +0.166 C 
ATOM      5  H   UNL     1      10.291 -41.335 -30.273  0.00  0.00    +0.163 HD
ATOM      6  H   UNL     1      12.810 -43.646 -31.063  0.00  0.00    +0.159 HD
ATOM      7  H   UNL     1      11.915 -42.910 -29.787  0.00  0.00    +0.159 HD
ATOM      8  H   UNL     1      11.288 -41.861 -33.696  0.00  0.00    +0.159 HD
ATOM      9  H   UNL     1      12.455 -43.052 -33.272  0.00  0.00    +0.159 HD
ENDROOT
BRANCH   1  10
ATOM     10  C   UNL     1       9.767 -40.481 -32.153  0.00  0.00    +0.151 C 
BRANCH  10  11
ATOM     11  C   UNL     1       8.336 -40.402 -31.699  0.00  0.00    -0.028 A 
ATOM     12  C   UNL     1       7.735 -39.160 -31.450  0.00  0.00    +0.005 A 
ATOM     13  C   UNL     1       7.573 -41.567 -31.522  0.00  0.00    +0.005 A 
ATOM     14  C   UNL     1       6.396 -39.085 -31.057  0.00  0.00    +0.000 A 
ATOM     15  C   UNL     1       6.237 -41.488 -31.129  0.00  0.00    +0.000 A 
ATOM     16  C   UNL     1       5.648 -40.247 -30.899  0.00  0.00    +0.000 A 
ENDBRANCH  10  11
ENDBRANCH   1  10
TORSDOF 2
ENDMDL
MODEL 9
REMARK VINA RESULT:    -3.942     58.275     59.700
REMARK INTER + INTRA:          -4.568
REMARK INTER:                  -4.453
REMARK INTRA:                  -0.115
REMARK UNBOUND:                -0.165
REMARK  Name = 1550473
REMARK  2 active torsions:
REMARK  status: ('A' for Active; 'I' for Inactive)
REMARK    1  A    between atoms: N_1  and  C_4
REMARK    2  A    between atoms: C_4  and  C_5
REMARK                            x       y       z     vdW  Elec       q    Type
REMARK                         _______ _______ _______ _____ _____    ______ ____
ROOT
ATOM      1  N   UNL     1      13.361 -29.420 -43.798  0.00  0.00    -0.354 N 
ATOM      2  N   UNL     1      14.759 -27.773 -44.634  0.00  0.00    -0.372 N 
ATOM      3  N   UNL     1      15.339 -29.974 -44.927  0.00  0.00    -0.372 N 
ATOM      4  C   UNL     1      14.479 -29.069 -44.448  0.00  0.00    +0.166 C 
ATOM      5  H   UNL     1      12.766 -28.686 -43.433  0.00  0.00    +0.163 HD
ATOM      6  H   UNL     1      15.593 -27.478 -45.123  0.00  0.00    +0.159 HD
ATOM      7  H   UNL     1      14.139 -27.042 -44.308  0.00  0.00    +0.159 HD
ATOM      8  H   UNL     1      15.188 -30.968 -44.815  0.00  0.00    +0.159 HD
ATOM      9  H   UNL     1      16.185 -29.698 -45.410  0.00  0.00    +0.159 HD
ENDROOT
BRANCH   1  10
ATOM     10  C   UNL     1      12.937 -30.804 -43.590  0.00  0.00    +0.151 C 
BRANCH  10  11
ATOM     11  C   UNL     1      11.846 -30.833 -42.555  0.00  0.00    -0.028 A 
ATOM     12  C   UNL     1      10.736 -31.675 -42.713  0.00  0.00    +0.005 A 
ATOM     13  C   UNL     1      11.921 -30.024 -41.410  0.00  0.00    +0.005 A 
ATOM     14  C   UNL     1       9.738 -31.724 -41.737  0.00  0.00    +0.000 A 
ATOM     15  C   UNL     1      10.921 -30.076 -40.438  0.00  0.00    +0.000 A 
ATOM     16  C   UNL     1       9.832 -30.928 -40.601  0.00  0.00    +0.000 A 
ENDBRANCH  10  11
ENDBRANCH   1  10
TORSDOF 2
ENDMDL
