MODEL 1
REMARK VINA RESULT:    -5.274      0.000      0.000
REMARK INTER + INTRA:          -6.049
REMARK INTER:                  -5.891
REMARK INTRA:                  -0.159
REMARK UNBOUND:                -0.159
REMARK  Name = 1550473
REMARK  2 active torsions:
REMARK  status: ('A' for Active; 'I' for Inactive)
REMARK    1  A    between atoms: N_1  and  C_4
REMARK    2  A    between atoms: C_4  and  C_5
REMARK                            x       y       z     vdW  Elec       q    Type
REMARK                         _______ _______ _______ _____ _____    ______ ____
ROOT
ATOM      1  N   UNL     1      -0.737  16.731   3.174  0.00  0.00    -0.354 N 
ATOM      2  N   UNL     1      -2.522  17.533   1.935  0.00  0.00    -0.372 N 
ATOM      3  N   UNL     1      -2.425  15.292   2.418  0.00  0.00    -0.372 N 
ATOM      4  C   UNL     1      -1.884  16.510   2.517  0.00  0.00    +0.166 C 
ATOM      5  H   UNL     1      -0.363  17.673   3.187  0.00  0.00    +0.163 HD
ATOM      6  H   UNL     1      -3.391  17.398   1.435  0.00  0.00    +0.159 HD
ATOM      7  H   UNL     1      -2.170  18.481   1.989  0.00  0.00    +0.159 HD
ATOM      8  H   UNL     1      -1.990  14.477   2.830  0.00  0.00    +0.159 HD
ATOM      9  H   UNL     1      -3.288  15.135   1.912  0.00  0.00    +0.159 HD
ENDROOT
BRANCH   1  10
ATOM     10  C   UNL     1       0.008  15.695   3.888  0.00  0.00    +0.151 C 
BRANCH  10  11
ATOM     11  C   UNL     1       1.291  15.419   3.153  0.00  0.00    -0.028 A 
ATOM     12  C   UNL     1       2.233  16.439   2.957  0.00  0.00    +0.005 A 
ATOM     13  C   UNL     1       1.573  14.137   2.657  0.00  0.00    +0.005 A 
ATOM     14  C   UNL     1       3.438  16.176   2.301  0.00  0.00    +0.000 A 
ATOM     15  C   UNL     1       2.777  13.878   2.002  0.00  0.00    +0.000 A 
ATOM     16  C   UNL     1       3.710  14.897   1.826  0.00  0.00    +0.000 A 
ENDBRANCH  10  11
ENDBRANCH   1  10
TORSDOF 2
ENDMDL
MODEL 2
REMARK VINA RESULT:    -4.964     25.336     26.276
REMARK INTER + INTRA:          -5.703
REMARK INTER:                  -5.574
REMARK INTRA:                  -0.129
REMARK UNBOUND:                -0.159
REMARK  Name = 1550473
REMARK  2 active torsions:
REMARK  status: ('A' for Active; 'I' for Inactive)
REMARK    1  A    between atoms: N_1  and  C_4
REMARK    2  A    between atoms: C_4  and  C_5
REMARK                            x       y       z     vdW  Elec       q    Type
REMARK                         _______ _______ _______ _____ _____    ______ ____
ROOT
ATOM      1  N   UNL     1      14.676   1.732  19.053  0.00  0.00    -0.354 N 
ATOM      2  N   UNL     1      15.134   1.288  16.826  0.00  0.00    -0.372 N 
ATOM      3  N   UNL     1      15.894  -0.170  18.427  0.00  0.00    -0.372 N 
ATOM      4  C   UNL     1      15.233   0.951  18.118  0.00  0.00    +0.166 C 
ATOM      5  H   UNL     1      14.215   2.584  18.755  0.00  0.00    +0.163 HD
ATOM      6  H   UNL     1      15.541   0.716  16.098  0.00  0.00    +0.159 HD
ATOM      7  H   UNL     1      14.632   2.116  16.528  0.00  0.00    +0.159 HD
ATOM      8  H   UNL     1      16.010  -0.476  19.383  0.00  0.00    +0.159 HD
ATOM      9  H   UNL     1      16.318  -0.749  17.713  0.00  0.00    +0.159 HD
ENDROOT
BRANCH   1  10
ATOM     10  C   UNL     1      14.681   1.427  20.482  0.00  0.00    +0.151 C 
BRANCH  10  11
ATOM     11  C   UNL     1      13.408   1.937  21.098  0.00  0.00    -0.028 A 
ATOM     12  C   UNL     1      12.599   2.851  20.406  0.00  0.00    +0.005 A 
ATOM     13  C   UNL     1      13.001   1.507  22.370  0.00  0.00    +0.005 A 
ATOM     14  C   UNL     1      11.401   3.303  20.965  0.00  0.00    +0.000 A 
ATOM     15  C   UNL     1      11.804   1.960  22.925  0.00  0.00    +0.000 A 
ATOM     16  C   UNL     1      11.003   2.856  22.221  0.00  0.00    +0.000 A 
ENDBRANCH  10  11
ENDBRANCH   1  10
TORSDOF 2
ENDMDL
MODEL 3
REMARK VINA RESULT:    -4.899     23.018     24.043
REMARK INTER + INTRA:          -5.630
REMARK INTER:                  -5.499
REMARK INTRA:                  -0.132
REMARK UNBOUND:                -0.159
REMARK  Name = 1550473
REMARK  2 active torsions:
REMARK  status: ('A' for Active; 'I' for Inactive)
REMARK    1  A    between atoms: N_1  and  C_4
REMARK    2  A    between atoms: C_4  and  C_5
REMARK                            x       y       z     vdW  Elec       q    Type
REMARK                         _______ _______ _______ _____ _____    ______ ____
ROOT
ATOM      1  N   UNL     1      -3.838  -7.451   6.444  0.00  0.00    -0.354 N 
ATOM      2  N   UNL     1      -5.446  -7.323   4.782  0.00  0.00    -0.372 N 
ATOM      3  N   UNL     1      -4.698  -5.384   5.753  0.00  0.00    -0.372 N 
ATOM      4  C   UNL     1      -4.650  -6.717   5.671  0.00  0.00    +0.166 C 
ATOM      5  H   UNL     1      -3.871  -8.460   6.355  0.00  0.00    +0.163 HD
ATOM      6  H   UNL     1      -6.066  -6.796   4.183  0.00  0.00    +0.159 HD
ATOM      7  H   UNL     1      -5.443  -8.329   4.663  0.00  0.00    +0.159 HD
ATOM      8  H   UNL     1      -4.126  -4.866   6.408  0.00  0.00    +0.159 HD
ATOM      9  H   UNL     1      -5.321  -4.839   5.170  0.00  0.00    +0.159 HD
ENDROOT
BRANCH   1  10
ATOM     10  C   UNL     1      -2.893  -6.886   7.406  0.00  0.00    +0.151 C 
BRANCH  10  11
ATOM     11  C   UNL     1      -1.656  -7.740   7.440  0.00  0.00    -0.028 A 
ATOM     12  C   UNL     1      -0.894  -7.844   8.613  0.00  0.00    +0.005 A 
ATOM     13  C   UNL     1      -1.243  -8.452   6.303  0.00  0.00    +0.005 A 
ATOM     14  C   UNL     1       0.238  -8.661   8.653  0.00  0.00    +0.000 A 
ATOM     15  C   UNL     1      -0.111  -9.266   6.348  0.00  0.00    +0.000 A 
ATOM     16  C   UNL     1       0.627  -9.372   7.523  0.00  0.00    +0.000 A 
ENDBRANCH  10  11
ENDBRANCH   1  10
TORSDOF 2
ENDMDL
MODEL 4
REMARK VINA RESULT:    -4.849     29.549     30.065
REMARK INTER + INTRA:          -5.575
REMARK INTER:                  -5.439
REMARK INTRA:                  -0.136
REMARK UNBOUND:                -0.159
REMARK  Name = 1550473
REMARK  2 active torsions:
REMARK  status: ('A' for Active; 'I' for Inactive)
REMARK    1  A    between atoms: N_1  and  C_4
REMARK    2  A    between atoms: C_4  and  C_5
REMARK                            x       y       z     vdW  Elec       q    Type
REMARK                         _______ _______ _______ _____ _____    ______ ____
ROOT
ATOM      1  N   UNL     1       7.017 -11.900  -4.676  0.00  0.00    -0.354 N 
ATOM      2  N   UNL     1       4.890 -11.849  -5.590  0.00  0.00    -0.372 N 
ATOM      3  N   UNL     1       6.575 -12.877  -6.759  0.00  0.00    -0.372 N 
ATOM      4  C   UNL     1       6.176 -12.210  -5.671  0.00  0.00    +0.166 C 
ATOM      5  H   UNL     1       6.659 -11.366  -3.892  0.00  0.00    +0.163 HD
ATOM      6  H   UNL     1       4.231 -12.072  -6.323  0.00  0.00    +0.159 HD
ATOM      7  H   UNL     1       4.524 -11.356  -4.784  0.00  0.00    +0.159 HD
ATOM      8  H   UNL     1       7.534 -13.173  -6.885  0.00  0.00    +0.159 HD
ATOM      9  H   UNL     1       5.933 -13.099  -7.510  0.00  0.00    +0.159 HD
ENDROOT
BRANCH   1  10
ATOM     10  C   UNL     1       8.425 -12.293  -4.642  0.00  0.00    +0.151 C 
BRANCH  10  11
ATOM     11  C   UNL     1       8.785 -12.710  -3.243  0.00  0.00    -0.028 A 
ATOM     12  C   UNL     1      10.112 -12.633  -2.797  0.00  0.00    +0.005 A 
ATOM     13  C   UNL     1       7.802 -13.177  -2.357  0.00  0.00    +0.005 A 
ATOM     14  C   UNL     1      10.442 -12.992  -1.488  0.00  0.00    +0.000 A 
ATOM     15  C   UNL     1       8.136 -13.535  -1.051  0.00  0.00    +0.000 A 
ATOM     16  C   UNL     1       9.456 -13.440  -0.616  0.00  0.00    +0.000 A 
ENDBRANCH  10  11
ENDBRANCH   1  10
TORSDOF 2
ENDMDL
MODEL 5
REMARK VINA RESULT:    -4.666     15.624     16.422
REMARK INTER + INTRA:          -5.371
REMARK INTER:                  -5.278
REMARK INTRA:                  -0.092
REMARK UNBOUND:                -0.159
REMARK  Name = 1550473
REMARK  2 active torsions:
REMARK  status: ('A' for Active; 'I' for Inactive)
REMARK    1  A    between atoms: N_1  and  C_4
REMARK    2  A    between atoms: C_4  and  C_5
REMARK                            x       y       z     vdW  Elec       q    Type
REMARK                         _______ _______ _______ _____ _____    ______ ____
ROOT
ATOM      1  N   UNL     1      -1.150   7.723 -12.754  0.00  0.00    -0.354 N 
ATOM      2  N   UNL     1      -2.282   6.849 -14.577  0.00  0.00    -0.372 N 
ATOM      3  N   UNL     1      -3.474   7.422 -12.702  0.00  0.00    -0.372 N 
ATOM      4  C   UNL     1      -2.297   7.337 -13.330  0.00  0.00    +0.166 C 
ATOM      5  H   UNL     1      -0.288   7.605 -13.273  0.00  0.00    +0.163 HD
ATOM      6  H   UNL     1      -3.131   6.553 -15.039  0.00  0.00    +0.159 HD
ATOM      7  H   UNL     1      -1.423   6.775 -15.110  0.00  0.00    +0.159 HD
ATOM      8  H   UNL     1      -3.553   7.776 -11.758  0.00  0.00    +0.159 HD
ATOM      9  H   UNL     1      -4.334   7.120 -13.143  0.00  0.00    +0.159 HD
ENDROOT
BRANCH   1  10
ATOM     10  C   UNL     1      -1.065   8.317 -11.422  0.00  0.00    +0.151 C 
BRANCH  10  11
ATOM     11  C   UNL     1       0.294   8.938 -11.247  0.00  0.00    -0.028 A 
ATOM     12  C   UNL     1       1.392   8.152 -10.867  0.00  0.00    +0.005 A 
ATOM     13  C   UNL     1       0.491  10.310 -11.466  0.00  0.00    +0.005 A 
ATOM     14  C   UNL     1       2.660   8.723 -10.734  0.00  0.00    +0.000 A 
ATOM     15  C   UNL     1       1.759  10.876 -11.331  0.00  0.00    +0.000 A 
ATOM     16  C   UNL     1       2.843  10.081 -10.967  0.00  0.00    +0.000 A 
ENDBRANCH  10  11
ENDBRANCH   1  10
TORSDOF 2
ENDMDL
MODEL 6
REMARK VINA RESULT:    -4.601     23.108     24.287
REMARK INTER + INTRA:          -5.297
REMARK INTER:                  -5.158
REMARK INTRA:                  -0.140
REMARK UNBOUND:                -0.159
REMARK  Name = 1550473
REMARK  2 active torsions:
REMARK  status: ('A' for Active; 'I' for Inactive)
REMARK    1  A    between atoms: N_1  and  C_4
REMARK    2  A    between atoms: C_4  and  C_5
REMARK                            x       y       z     vdW  Elec       q    Type
REMARK                         _______ _______ _______ _____ _____    ______ ____
ROOT
ATOM      1  N   UNL     1      -1.785  -8.423   8.670  0.00  0.00    -0.354 N 
ATOM      2  N   UNL     1       0.510  -8.569   8.949  0.00  0.00    -0.372 N 
ATOM      3  N   UNL     1      -0.799  -8.070  10.766  0.00  0.00    -0.372 N 
ATOM      4  C   UNL     1      -0.707  -8.352   9.463  0.00  0.00    +0.166 C 
ATOM      5  H   UNL     1      -1.646  -8.611   7.684  0.00  0.00    +0.163 HD
ATOM      6  H   UNL     1       1.341  -8.525   9.523  0.00  0.00    +0.159 HD
ATOM      7  H   UNL     1       0.642  -8.802   7.972  0.00  0.00    +0.159 HD
ATOM      8  H   UNL     1      -1.688  -7.891  11.214  0.00  0.00    +0.159 HD
ATOM      9  H   UNL     1       0.022  -8.011  11.355  0.00  0.00    +0.159 HD
ENDROOT
BRANCH   1  10
ATOM     10  C   UNL     1      -3.159  -8.257   9.141  0.00  0.00    +0.151 C 
BRANCH  10  11
ATOM     11  C   UNL     1      -3.820  -7.162   8.350  0.00  0.00    -0.028 A 
ATOM     12  C   UNL     1      -4.772  -6.325   8.951  0.00  0.00    +0.005 A 
ATOM     13  C   UNL     1      -3.496  -6.953   7.001  0.00  0.00    +0.005 A 
ATOM     14  C   UNL     1      -5.364  -5.289   8.225  0.00  0.00    +0.000 A 
ATOM     15  C   UNL     1      -4.090  -5.918   6.279  0.00  0.00    +0.000 A 
ATOM     16  C   UNL     1      -5.022  -5.085   6.893  0.00  0.00    +0.000 A 
ENDBRANCH  10  11
ENDBRANCH   1  10
TORSDOF 2
ENDMDL
MODEL 7
REMARK VINA RESULT:    -4.587     15.017     15.669
REMARK INTER + INTRA:          -5.282
REMARK INTER:                  -5.119
REMARK INTRA:                  -0.163
REMARK UNBOUND:                -0.159
REMARK  Name = 1550473
REMARK  2 active torsions:
REMARK  status: ('A' for Active; 'I' for Inactive)
REMARK    1  A    between atoms: N_1  and  C_4
REMARK    2  A    between atoms: C_4  and  C_5
REMARK                            x       y       z     vdW  Elec       q    Type
REMARK                         _______ _______ _______ _____ _____    ______ ____
ROOT
ATOM      1  N   UNL     1     -11.808   5.848   3.381  0.00  0.00    -0.354 N 
ATOM      2  N   UNL     1     -10.636   6.581   1.522  0.00  0.00    -0.372 N 
ATOM      3  N   UNL     1     -12.144   7.999   2.513  0.00  0.00    -0.372 N 
ATOM      4  C   UNL     1     -11.539   6.807   2.485  0.00  0.00    +0.166 C 
ATOM      5  H   UNL     1     -11.337   4.955   3.286  0.00  0.00    +0.163 HD
ATOM      6  H   UNL     1     -10.410   7.287   0.834  0.00  0.00    +0.159 HD
ATOM      7  H   UNL     1     -10.134   5.705   1.458  0.00  0.00    +0.159 HD
ATOM      8  H   UNL     1     -12.839   8.230   3.211  0.00  0.00    +0.159 HD
ATOM      9  H   UNL     1     -11.940   8.714   1.826  0.00  0.00    +0.159 HD
ENDROOT
BRANCH   1  10
ATOM     10  C   UNL     1     -12.734   6.011   4.500  0.00  0.00    +0.151 C 
BRANCH  10  11
ATOM     11  C   UNL     1     -11.962   6.432   5.719  0.00  0.00    -0.028 A 
ATOM     12  C   UNL     1     -11.935   7.777   6.116  0.00  0.00    +0.005 A 
ATOM     13  C   UNL     1     -11.259   5.490   6.486  0.00  0.00    +0.005 A 
ATOM     14  C   UNL     1     -11.242   8.164   7.266  0.00  0.00    +0.000 A 
ATOM     15  C   UNL     1     -10.568   5.880   7.633  0.00  0.00    +0.000 A 
ATOM     16  C   UNL     1     -10.562   7.217   8.024  0.00  0.00    +0.000 A 
ENDBRANCH  10  11
ENDBRANCH   1  10
TORSDOF 2
ENDMDL
MODEL 8
REMARK VINA RESULT:    -4.581     21.716     22.992
REMARK INTER + INTRA:          -5.275
REMARK INTER:                  -5.117
REMARK INTRA:                  -0.158
REMARK UNBOUND:                -0.159
REMARK  Name = 1550473
REMARK  2 active torsions:
REMARK  status: ('A' for Active; 'I' for Inactive)
REMARK    1  A    between atoms: N_1  and  C_4
REMARK    2  A    between atoms: C_4  and  C_5
REMARK                            x       y       z     vdW  Elec       q    Type
REMARK                         _______ _______ _______ _____ _____    ______ ____
ROOT
ATOM      1  N   UNL     1      15.918  -0.654   2.568  0.00  0.00    -0.354 N 
ATOM      2  N   UNL     1      17.698   0.224   3.761  0.00  0.00    -0.372 N 
ATOM      3  N   UNL     1      17.782  -1.972   3.099  0.00  0.00    -0.372 N 
ATOM      4  C   UNL     1      17.122  -0.809   3.135  0.00  0.00    +0.166 C 
ATOM      5  H   UNL     1      15.456   0.244   2.656  0.00  0.00    +0.163 HD
ATOM      6  H   UNL     1      18.608   0.138   4.194  0.00  0.00    +0.159 HD
ATOM      7  H   UNL     1      17.255   1.133   3.807  0.00  0.00    +0.159 HD
ATOM      8  H   UNL     1      17.399  -2.791   2.648  0.00  0.00    +0.159 HD
ATOM      9  H   UNL     1      18.688  -2.080   3.538  0.00  0.00    +0.159 HD
ENDROOT
BRANCH   1  10
ATOM     10  C   UNL     1      15.227  -1.701   1.817  0.00  0.00    +0.151 C 
BRANCH  10  11
ATOM     11  C   UNL     1      14.062  -2.200   2.627  0.00  0.00    -0.028 A 
ATOM     12  C   UNL     1      13.617  -3.523   2.493  0.00  0.00    +0.005 A 
ATOM     13  C   UNL     1      13.403  -1.356   3.533  0.00  0.00    +0.005 A 
ATOM     14  C   UNL     1      12.554  -3.996   3.267  0.00  0.00    +0.000 A 
ATOM     15  C   UNL     1      12.342  -1.831   4.303  0.00  0.00    +0.000 A 
ATOM     16  C   UNL     1      11.919  -3.152   4.172  0.00  0.00    +0.000 A 
ENDBRANCH  10  11
ENDBRANCH   1  10
TORSDOF 2
ENDMDL
MODEL 9
REMARK VINA RESULT:    -4.495     22.676     23.370
REMARK INTER + INTRA:          -5.180
REMARK INTER:                  -5.042
REMARK INTRA:                  -0.137
REMARK UNBOUND:                -0.159
REMARK  Name = 1550473
REMARK  2 active torsions:
REMARK  status: ('A' for Active; 'I' for Inactive)
REMARK    1  A    between atoms: N_1  and  C_4
REMARK    2  A    between atoms: C_4  and  C_5
REMARK                            x       y       z     vdW  Elec       q    Type
REMARK                         _______ _______ _______ _____ _____    ______ ____
ROOT
ATOM      1  N   UNL     1      16.109  -1.879  -1.831  0.00  0.00    -0.354 N 
ATOM      2  N   UNL     1      16.251  -0.206  -3.427  0.00  0.00    -0.372 N 
ATOM      3  N   UNL     1      14.399  -1.561  -3.403  0.00  0.00    -0.372 N 
ATOM      4  C   UNL     1      15.583  -1.228  -2.878  0.00  0.00    +0.166 C 
ATOM      5  H   UNL     1      17.024  -1.596  -1.499  0.00  0.00    +0.163 HD
ATOM      6  H   UNL     1      15.878   0.306  -4.215  0.00  0.00    +0.159 HD
ATOM      7  H   UNL     1      17.145   0.103  -3.064  0.00  0.00    +0.159 HD
ATOM      8  H   UNL     1      13.848  -2.326  -3.038  0.00  0.00    +0.159 HD
ATOM      9  H   UNL     1      14.015  -1.068  -4.199  0.00  0.00    +0.159 HD
ENDROOT
BRANCH   1  10
ATOM     10  C   UNL     1      15.438  -2.969  -1.126  0.00  0.00    +0.151 C 
BRANCH  10  11
ATOM     11  C   UNL     1      15.276  -2.593   0.321  0.00  0.00    -0.028 A 
ATOM     12  C   UNL     1      16.350  -2.046   1.038  0.00  0.00    +0.005 A 
ATOM     13  C   UNL     1      14.050  -2.775   0.978  0.00  0.00    +0.005 A 
ATOM     14  C   UNL     1      16.192  -1.669   2.374  0.00  0.00    +0.000 A 
ATOM     15  C   UNL     1      13.897  -2.398   2.312  0.00  0.00    +0.000 A 
ATOM     16  C   UNL     1      14.967  -1.842   3.009  0.00  0.00    +0.000 A 
ENDBRANCH  10  11
ENDBRANCH   1  10
TORSDOF 2
ENDMDL
