MODEL 1
REMARK VINA RESULT:    -5.172      0.000      0.000
REMARK INTER + INTRA:          -5.899
REMARK INTER:                  -5.777
REMARK INTRA:                  -0.123
REMARK UNBOUND:                -0.123
REMARK  Name = 1550473
REMARK  2 active torsions:
REMARK  status: ('A' for Active; 'I' for Inactive)
REMARK    1  A    between atoms: N_1  and  C_4
REMARK    2  A    between atoms: C_4  and  C_5
REMARK                            x       y       z     vdW  Elec       q    Type
REMARK                         _______ _______ _______ _____ _____    ______ ____
ROOT
ATOM      1  N   UNL     1       9.075   4.645 -14.994  0.00  0.00    -0.354 N 
ATOM      2  N   UNL     1       9.789   3.027 -16.489  0.00  0.00    -0.372 N 
ATOM      3  N   UNL     1      10.467   2.892 -14.301  0.00  0.00    -0.372 N 
ATOM      4  C   UNL     1       9.774   3.531 -15.250  0.00  0.00    +0.166 C 
ATOM      5  H   UNL     1       8.595   5.099 -15.763  0.00  0.00    +0.163 HD
ATOM      6  H   UNL     1      10.305   2.186 -16.711  0.00  0.00    +0.159 HD
ATOM      7  H   UNL     1       9.271   3.457 -17.246  0.00  0.00    +0.159 HD
ATOM      8  H   UNL     1      10.501   3.225 -13.347  0.00  0.00    +0.159 HD
ATOM      9  H   UNL     1      10.999   2.056 -14.506  0.00  0.00    +0.159 HD
ENDROOT
BRANCH   1  10
ATOM     10  C   UNL     1       8.949   5.246 -13.667  0.00  0.00    +0.151 C 
BRANCH  10  11
ATOM     11  C   UNL     1       7.691   6.068 -13.617  0.00  0.00    -0.028 A 
ATOM     12  C   UNL     1       6.538   5.647 -14.297  0.00  0.00    +0.005 A 
ATOM     13  C   UNL     1       7.643   7.265 -12.887  0.00  0.00    +0.005 A 
ATOM     14  C   UNL     1       5.360   6.395 -14.226  0.00  0.00    +0.000 A 
ATOM     15  C   UNL     1       6.465   8.009 -12.820  0.00  0.00    +0.000 A 
ATOM     16  C   UNL     1       5.323   7.573 -13.487  0.00  0.00    +0.000 A 
ENDBRANCH  10  11
ENDBRANCH   1  10
TORSDOF 2
ENDMDL
MODEL 2
REMARK VINA RESULT:    -5.027      1.045      2.020
REMARK INTER + INTRA:          -5.737
REMARK INTER:                  -5.614
REMARK INTRA:                  -0.124
REMARK UNBOUND:                -0.123
REMARK  Name = 1550473
REMARK  2 active torsions:
REMARK  status: ('A' for Active; 'I' for Inactive)
REMARK    1  A    between atoms: N_1  and  C_4
REMARK    2  A    between atoms: C_4  and  C_5
REMARK                            x       y       z     vdW  Elec       q    Type
REMARK                         _______ _______ _______ _____ _____    ______ ____
ROOT
ATOM      1  N   UNL     1       9.376   4.891 -13.835  0.00  0.00    -0.354 N 
ATOM      2  N   UNL     1      11.458   4.157 -13.133  0.00  0.00    -0.372 N 
ATOM      3  N   UNL     1      10.212   2.808 -14.509  0.00  0.00    -0.372 N 
ATOM      4  C   UNL     1      10.334   3.954 -13.832  0.00  0.00    +0.166 C 
ATOM      5  H   UNL     1       9.516   5.725 -13.277  0.00  0.00    +0.163 HD
ATOM      6  H   UNL     1      12.199   3.470 -13.115  0.00  0.00    +0.159 HD
ATOM      7  H   UNL     1      11.615   5.011 -12.613  0.00  0.00    +0.159 HD
ATOM      8  H   UNL     1       9.386   2.592 -15.052  0.00  0.00    +0.159 HD
ATOM      9  H   UNL     1      10.939   2.103 -14.494  0.00  0.00    +0.159 HD
ENDROOT
BRANCH   1  10
ATOM     10  C   UNL     1       8.138   4.791 -14.606  0.00  0.00    +0.151 C 
BRANCH  10  11
ATOM     11  C   UNL     1       7.188   5.864 -14.150  0.00  0.00    -0.028 A 
ATOM     12  C   UNL     1       7.613   6.860 -13.259  0.00  0.00    +0.005 A 
ATOM     13  C   UNL     1       5.863   5.894 -14.611  0.00  0.00    +0.005 A 
ATOM     14  C   UNL     1       6.740   7.874 -12.858  0.00  0.00    +0.000 A 
ATOM     15  C   UNL     1       4.994   6.908 -14.209  0.00  0.00    +0.000 A 
ATOM     16  C   UNL     1       5.433   7.899 -13.334  0.00  0.00    +0.000 A 
ENDBRANCH  10  11
ENDBRANCH   1  10
TORSDOF 2
ENDMDL
MODEL 3
REMARK VINA RESULT:    -4.957     19.324     19.666
REMARK INTER + INTRA:          -5.659
REMARK INTER:                  -5.536
REMARK INTRA:                  -0.124
REMARK UNBOUND:                -0.123
REMARK  Name = 1550473
REMARK  2 active torsions:
REMARK  status: ('A' for Active; 'I' for Inactive)
REMARK    1  A    between atoms: N_1  and  C_4
REMARK    2  A    between atoms: C_4  and  C_5
REMARK                            x       y       z     vdW  Elec       q    Type
REMARK                         _______ _______ _______ _____ _____    ______ ____
ROOT
ATOM      1  N   UNL     1       3.738  -5.444   1.046  0.00  0.00    -0.354 N 
ATOM      2  N   UNL     1       5.579  -6.736   0.489  0.00  0.00    -0.372 N 
ATOM      3  N   UNL     1       3.485  -7.661   0.329  0.00  0.00    -0.372 N 
ATOM      4  C   UNL     1       4.253  -6.607   0.625  0.00  0.00    +0.166 C 
ATOM      5  H   UNL     1       4.376  -4.693   1.282  0.00  0.00    +0.163 HD
ATOM      6  H   UNL     1       5.996  -7.600   0.171  0.00  0.00    +0.159 HD
ATOM      7  H   UNL     1       6.211  -5.969   0.683  0.00  0.00    +0.159 HD
ATOM      8  H   UNL     1       2.478  -7.631   0.416  0.00  0.00    +0.159 HD
ATOM      9  H   UNL     1       3.884  -8.538   0.020  0.00  0.00    +0.159 HD
ENDROOT
BRANCH   1  10
ATOM     10  C   UNL     1       2.306  -5.183   1.175  0.00  0.00    +0.151 C 
BRANCH  10  11
ATOM     11  C   UNL     1       2.103  -3.987   2.064  0.00  0.00    -0.028 A 
ATOM     12  C   UNL     1       3.058  -3.651   3.034  0.00  0.00    +0.005 A 
ATOM     13  C   UNL     1       0.960  -3.183   1.937  0.00  0.00    +0.005 A 
ATOM     14  C   UNL     1       2.885  -2.523   3.839  0.00  0.00    +0.000 A 
ATOM     15  C   UNL     1       0.790  -2.058   2.744  0.00  0.00    +0.000 A 
ATOM     16  C   UNL     1       1.754  -1.727   3.693  0.00  0.00    +0.000 A 
ENDBRANCH  10  11
ENDBRANCH   1  10
TORSDOF 2
ENDMDL
MODEL 4
REMARK VINA RESULT:    -4.919     20.278     20.623
REMARK INTER + INTRA:          -5.617
REMARK INTER:                  -5.476
REMARK INTRA:                  -0.141
REMARK UNBOUND:                -0.123
REMARK  Name = 1550473
REMARK  2 active torsions:
REMARK  status: ('A' for Active; 'I' for Inactive)
REMARK    1  A    between atoms: N_1  and  C_4
REMARK    2  A    between atoms: C_4  and  C_5
REMARK                            x       y       z     vdW  Elec       q    Type
REMARK                         _______ _______ _______ _____ _____    ______ ____
ROOT
ATOM      1  N   UNL     1       1.512  -6.135   1.766  0.00  0.00    -0.354 N 
ATOM      2  N   UNL     1       0.902  -8.199   2.621  0.00  0.00    -0.372 N 
ATOM      3  N   UNL     1       3.128  -7.651   2.528  0.00  0.00    -0.372 N 
ATOM      4  C   UNL     1       1.854  -7.315   2.300  0.00  0.00    +0.166 C 
ATOM      5  H   UNL     1       0.530  -5.953   1.590  0.00  0.00    +0.163 HD
ATOM      6  H   UNL     1       1.129  -9.096   3.028  0.00  0.00    +0.159 HD
ATOM      7  H   UNL     1      -0.081  -7.996   2.487  0.00  0.00    +0.159 HD
ATOM      8  H   UNL     1       3.894  -7.031   2.302  0.00  0.00    +0.159 HD
ATOM      9  H   UNL     1       3.377  -8.549   2.924  0.00  0.00    +0.159 HD
ENDROOT
BRANCH   1  10
ATOM     10  C   UNL     1       2.468  -5.081   1.430  0.00  0.00    +0.151 C 
BRANCH  10  11
ATOM     11  C   UNL     1       2.158  -3.858   2.248  0.00  0.00    -0.028 A 
ATOM     12  C   UNL     1       3.030  -3.440   3.264  0.00  0.00    +0.005 A 
ATOM     13  C   UNL     1       0.996  -3.108   2.007  0.00  0.00    +0.005 A 
ATOM     14  C   UNL     1       2.757  -2.287   4.004  0.00  0.00    +0.000 A 
ATOM     15  C   UNL     1       0.728  -1.957   2.748  0.00  0.00    +0.000 A 
ATOM     16  C   UNL     1       1.609  -1.546   3.745  0.00  0.00    +0.000 A 
ENDBRANCH  10  11
ENDBRANCH   1  10
TORSDOF 2
ENDMDL
MODEL 5
REMARK VINA RESULT:    -4.792      8.325      9.814
REMARK INTER + INTRA:          -5.475
REMARK INTER:                  -5.365
REMARK INTRA:                  -0.110
REMARK UNBOUND:                -0.123
REMARK  Name = 1550473
REMARK  2 active torsions:
REMARK  status: ('A' for Active; 'I' for Inactive)
REMARK    1  A    between atoms: N_1  and  C_4
REMARK    2  A    between atoms: C_4  and  C_5
REMARK                            x       y       z     vdW  Elec       q    Type
REMARK                         _______ _______ _______ _____ _____    ______ ____
ROOT
ATOM      1  N   UNL     1      10.917   4.349 -22.225  0.00  0.00    -0.354 N 
ATOM      2  N   UNL     1       9.914   5.813 -23.713  0.00  0.00    -0.372 N 
ATOM      3  N   UNL     1       9.901   6.324 -21.476  0.00  0.00    -0.372 N 
ATOM      4  C   UNL     1      10.250   5.487 -22.459  0.00  0.00    +0.166 C 
ATOM      5  H   UNL     1      11.125   3.743 -23.010  0.00  0.00    +0.163 HD
ATOM      6  H   UNL     1       9.414   6.667 -23.921  0.00  0.00    +0.159 HD
ATOM      7  H   UNL     1      10.164   5.228 -24.501  0.00  0.00    +0.159 HD
ATOM      8  H   UNL     1      10.120   6.132 -20.507  0.00  0.00    +0.159 HD
ATOM      9  H   UNL     1       9.390   7.177 -21.663  0.00  0.00    +0.159 HD
ENDROOT
BRANCH   1  10
ATOM     10  C   UNL     1      11.377   3.928 -20.903  0.00  0.00    +0.151 C 
BRANCH  10  11
ATOM     11  C   UNL     1      11.872   2.511 -20.984  0.00  0.00    -0.028 A 
ATOM     12  C   UNL     1      12.619   2.079 -22.090  0.00  0.00    +0.005 A 
ATOM     13  C   UNL     1      11.604   1.595 -19.954  0.00  0.00    +0.005 A 
ATOM     14  C   UNL     1      13.105   0.771 -22.151  0.00  0.00    +0.000 A 
ATOM     15  C   UNL     1      12.091   0.290 -20.020  0.00  0.00    +0.000 A 
ATOM     16  C   UNL     1      12.843  -0.121 -21.117  0.00  0.00    +0.000 A 
ENDBRANCH  10  11
ENDBRANCH   1  10
TORSDOF 2
ENDMDL
MODEL 6
REMARK VINA RESULT:    -4.789      4.002      7.227
REMARK INTER + INTRA:          -5.472
REMARK INTER:                  -5.372
REMARK INTRA:                  -0.099
REMARK UNBOUND:                -0.123
REMARK  Name = 1550473
REMARK  2 active torsions:
REMARK  status: ('A' for Active; 'I' for Inactive)
REMARK    1  A    between atoms: N_1  and  C_4
REMARK    2  A    between atoms: C_4  and  C_5
REMARK                            x       y       z     vdW  Elec       q    Type
REMARK                         _______ _______ _______ _____ _____    ______ ____
ROOT
ATOM      1  N   UNL     1      10.312   3.359 -16.608  0.00  0.00    -0.354 N 
ATOM      2  N   UNL     1       8.633   4.049 -15.170  0.00  0.00    -0.372 N 
ATOM      3  N   UNL     1      10.382   2.826 -14.327  0.00  0.00    -0.372 N 
ATOM      4  C   UNL     1       9.788   3.405 -15.376  0.00  0.00    +0.166 C 
ATOM      5  H   UNL     1       9.798   3.792 -17.366  0.00  0.00    +0.163 HD
ATOM      6  H   UNL     1       8.215   4.104 -14.251  0.00  0.00    +0.159 HD
ATOM      7  H   UNL     1       8.144   4.520 -15.921  0.00  0.00    +0.159 HD
ATOM      8  H   UNL     1      11.253   2.320 -14.416  0.00  0.00    +0.159 HD
ATOM      9  H   UNL     1       9.973   2.860 -13.401  0.00  0.00    +0.159 HD
ENDROOT
BRANCH   1  10
ATOM     10  C   UNL     1      11.592   2.729 -16.929  0.00  0.00    +0.151 C 
BRANCH  10  11
ATOM     11  C   UNL     1      11.670   2.504 -18.413  0.00  0.00    -0.028 A 
ATOM     12  C   UNL     1      11.823   1.209 -18.929  0.00  0.00    +0.005 A 
ATOM     13  C   UNL     1      11.584   3.580 -19.310  0.00  0.00    +0.005 A 
ATOM     14  C   UNL     1      11.866   0.995 -20.309  0.00  0.00    +0.000 A 
ATOM     15  C   UNL     1      11.628   3.363 -20.687  0.00  0.00    +0.000 A 
ATOM     16  C   UNL     1      11.766   2.070 -21.186  0.00  0.00    +0.000 A 
ENDBRANCH  10  11
ENDBRANCH   1  10
TORSDOF 2
ENDMDL
MODEL 7
REMARK VINA RESULT:    -4.603      4.366      5.474
REMARK INTER + INTRA:          -5.264
REMARK INTER:                  -5.154
REMARK INTRA:                  -0.110
REMARK UNBOUND:                -0.123
REMARK  Name = 1550473
REMARK  2 active torsions:
REMARK  status: ('A' for Active; 'I' for Inactive)
REMARK    1  A    between atoms: N_1  and  C_4
REMARK    2  A    between atoms: C_4  and  C_5
REMARK                            x       y       z     vdW  Elec       q    Type
REMARK                         _______ _______ _______ _____ _____    ______ ____
ROOT
ATOM      1  N   UNL     1       6.065   9.443 -17.390  0.00  0.00    -0.354 N 
ATOM      2  N   UNL     1       5.575   9.987 -19.587  0.00  0.00    -0.372 N 
ATOM      3  N   UNL     1       7.641  10.525 -18.746  0.00  0.00    -0.372 N 
ATOM      4  C   UNL     1       6.433   9.982 -18.560  0.00  0.00    +0.166 C 
ATOM      5  H   UNL     1       5.124   9.075 -17.304  0.00  0.00    +0.163 HD
ATOM      6  H   UNL     1       5.825  10.384 -20.483  0.00  0.00    +0.159 HD
ATOM      7  H   UNL     1       4.651   9.577 -19.512  0.00  0.00    +0.159 HD
ATOM      8  H   UNL     1       8.332  10.558 -18.009  0.00  0.00    +0.159 HD
ATOM      9  H   UNL     1       7.906  10.937 -19.632  0.00  0.00    +0.159 HD
ENDROOT
BRANCH   1  10
ATOM     10  C   UNL     1       6.943   9.339 -16.226  0.00  0.00    +0.151 C 
BRANCH  10  11
ATOM     11  C   UNL     1       6.624   8.072 -15.482  0.00  0.00    -0.028 A 
ATOM     12  C   UNL     1       7.650   7.199 -15.091  0.00  0.00    +0.005 A 
ATOM     13  C   UNL     1       5.299   7.741 -15.159  0.00  0.00    +0.005 A 
ATOM     14  C   UNL     1       7.357   6.036 -14.374  0.00  0.00    +0.000 A 
ATOM     15  C   UNL     1       5.011   6.579 -14.444  0.00  0.00    +0.000 A 
ATOM     16  C   UNL     1       6.041   5.728 -14.049  0.00  0.00    +0.000 A 
ENDBRANCH  10  11
ENDBRANCH   1  10
TORSDOF 2
ENDMDL
MODEL 8
REMARK VINA RESULT:    -4.581      2.534      5.098
REMARK INTER + INTRA:          -5.239
REMARK INTER:                  -5.126
REMARK INTRA:                  -0.113
REMARK UNBOUND:                -0.123
REMARK  Name = 1550473
REMARK  2 active torsions:
REMARK  status: ('A' for Active; 'I' for Inactive)
REMARK    1  A    between atoms: N_1  and  C_4
REMARK    2  A    between atoms: C_4  and  C_5
REMARK                            x       y       z     vdW  Elec       q    Type
REMARK                         _______ _______ _______ _____ _____    ______ ____
ROOT
ATOM      1  N   UNL     1       6.713   6.144 -14.632  0.00  0.00    -0.354 N 
ATOM      2  N   UNL     1       4.645   7.172 -14.802  0.00  0.00    -0.372 N 
ATOM      3  N   UNL     1       5.649   7.036 -12.744  0.00  0.00    -0.372 N 
ATOM      4  C   UNL     1       5.683   6.778 -14.056  0.00  0.00    +0.166 C 
ATOM      5  H   UNL     1       6.665   5.952 -15.626  0.00  0.00    +0.163 HD
ATOM      6  H   UNL     1       3.855   7.655 -14.396  0.00  0.00    +0.159 HD
ATOM      7  H   UNL     1       4.620   7.019 -15.803  0.00  0.00    +0.159 HD
ATOM      8  H   UNL     1       6.399   6.759 -12.124  0.00  0.00    +0.159 HD
ATOM      9  H   UNL     1       4.862   7.508 -12.317  0.00  0.00    +0.159 HD
ENDROOT
BRANCH   1  10
ATOM     10  C   UNL     1       7.916   5.721 -13.917  0.00  0.00    +0.151 C 
BRANCH  10  11
ATOM     11  C   UNL     1       8.760   4.877 -14.833  0.00  0.00    -0.028 A 
ATOM     12  C   UNL     1       8.812   5.152 -16.207  0.00  0.00    +0.005 A 
ATOM     13  C   UNL     1       9.515   3.806 -14.331  0.00  0.00    +0.005 A 
ATOM     14  C   UNL     1       9.619   4.388 -17.053  0.00  0.00    +0.000 A 
ATOM     15  C   UNL     1      10.319   3.045 -15.179  0.00  0.00    +0.000 A 
ATOM     16  C   UNL     1      10.373   3.337 -16.540  0.00  0.00    +0.000 A 
ENDBRANCH  10  11
ENDBRANCH   1  10
TORSDOF 2
ENDMDL
MODEL 9
REMARK VINA RESULT:    -4.555     32.509     33.502
REMARK INTER + INTRA:          -5.210
REMARK INTER:                  -5.049
REMARK INTRA:                  -0.161
REMARK UNBOUND:                -0.123
REMARK  Name = 1550473
REMARK  2 active torsions:
REMARK  status: ('A' for Active; 'I' for Inactive)
REMARK    1  A    between atoms: N_1  and  C_4
REMARK    2  A    between atoms: C_4  and  C_5
REMARK                            x       y       z     vdW  Elec       q    Type
REMARK                         _______ _______ _______ _____ _____    ______ ____
ROOT
ATOM      1  N   UNL     1      19.855   4.643  15.629  0.00  0.00    -0.354 N 
ATOM      2  N   UNL     1      20.802   2.678  14.851  0.00  0.00    -0.372 N 
ATOM      3  N   UNL     1      18.535   2.756  15.196  0.00  0.00    -0.372 N 
ATOM      4  C   UNL     1      19.722   3.371  15.231  0.00  0.00    +0.166 C 
ATOM      5  H   UNL     1      20.786   5.042  15.661  0.00  0.00    +0.163 HD
ATOM      6  H   UNL     1      20.732   1.718  14.542  0.00  0.00    +0.159 HD
ATOM      7  H   UNL     1      21.725   3.094  14.840  0.00  0.00    +0.159 HD
ATOM      8  H   UNL     1      17.682   3.222  15.476  0.00  0.00    +0.159 HD
ATOM      9  H   UNL     1      18.446   1.792  14.902  0.00  0.00    +0.159 HD
ENDROOT
BRANCH   1  10
ATOM     10  C   UNL     1      18.736   5.502  16.011  0.00  0.00    +0.151 C 
BRANCH  10  11
ATOM     11  C   UNL     1      18.788   5.746  17.494  0.00  0.00    -0.028 A 
ATOM     12  C   UNL     1      18.417   4.738  18.396  0.00  0.00    +0.005 A 
ATOM     13  C   UNL     1      19.214   6.983  18.004  0.00  0.00    +0.005 A 
ATOM     14  C   UNL     1      18.494   4.955  19.774  0.00  0.00    +0.000 A 
ATOM     15  C   UNL     1      19.289   7.195  19.381  0.00  0.00    +0.000 A 
ATOM     16  C   UNL     1      18.931   6.180  20.265  0.00  0.00    +0.000 A 
ENDBRANCH  10  11
ENDBRANCH   1  10
TORSDOF 2
ENDMDL
