MODEL 1
REMARK VINA RESULT:    -6.519      0.000      0.000
REMARK INTER + INTRA:          -7.438
REMARK INTER:                  -7.282
REMARK INTRA:                  -0.157
REMARK UNBOUND:                -0.157
REMARK  Name = 1550473
REMARK  2 active torsions:
REMARK  status: ('A' for Active; 'I' for Inactive)
REMARK    1  A    between atoms: N_1  and  C_4
REMARK    2  A    between atoms: C_4  and  C_5
REMARK                            x       y       z     vdW  Elec       q    Type
REMARK                         _______ _______ _______ _____ _____    ______ ____
ROOT
ATOM      1  N   UNL     1      -6.420   1.827  -0.862  0.00  0.00    -0.354 N 
ATOM      2  N   UNL     1      -7.505   1.123   1.059  0.00  0.00    -0.372 N 
ATOM      3  N   UNL     1      -5.212   1.085   1.003  0.00  0.00    -0.372 N 
ATOM      4  C   UNL     1      -6.369   1.349   0.388  0.00  0.00    +0.166 C 
ATOM      5  H   UNL     1      -7.330   1.978  -1.283  0.00  0.00    +0.163 HD
ATOM      6  H   UNL     1      -7.498   0.766   2.005  0.00  0.00    +0.159 HD
ATOM      7  H   UNL     1      -8.412   1.318   0.652  0.00  0.00    +0.159 HD
ATOM      8  H   UNL     1      -4.319   1.228   0.550  0.00  0.00    +0.159 HD
ATOM      9  H   UNL     1      -5.184   0.715   1.945  0.00  0.00    +0.159 HD
ENDROOT
BRANCH   1  10
ATOM     10  C   UNL     1      -5.240   2.158  -1.660  0.00  0.00    +0.151 C 
BRANCH  10  11
ATOM     11  C   UNL     1      -5.196   1.261  -2.866  0.00  0.00    -0.028 A 
ATOM     12  C   UNL     1      -4.408   0.101  -2.861  0.00  0.00    +0.005 A 
ATOM     13  C   UNL     1      -5.942   1.564  -4.015  0.00  0.00    +0.005 A 
ATOM     14  C   UNL     1      -4.390  -0.748  -3.971  0.00  0.00    +0.000 A 
ATOM     15  C   UNL     1      -5.920   0.714  -5.121  0.00  0.00    +0.000 A 
ATOM     16  C   UNL     1      -5.146  -0.443  -5.097  0.00  0.00    +0.000 A 
ENDBRANCH  10  11
ENDBRANCH   1  10
TORSDOF 2
ENDMDL
MODEL 2
REMARK VINA RESULT:    -6.279      1.099      2.073
REMARK INTER + INTRA:          -7.170
REMARK INTER:                  -7.086
REMARK INTRA:                  -0.084
REMARK UNBOUND:                -0.157
REMARK  Name = 1550473
REMARK  2 active torsions:
REMARK  status: ('A' for Active; 'I' for Inactive)
REMARK    1  A    between atoms: N_1  and  C_4
REMARK    2  A    between atoms: C_4  and  C_5
REMARK                            x       y       z     vdW  Elec       q    Type
REMARK                         _______ _______ _______ _____ _____    ______ ____
ROOT
ATOM      1  N   UNL     1      -4.884   2.667  -1.478  0.00  0.00    -0.354 N 
ATOM      2  N   UNL     1      -4.333   2.519   0.767  0.00  0.00    -0.372 N 
ATOM      3  N   UNL     1      -6.518   2.210   0.139  0.00  0.00    -0.372 N 
ATOM      4  C   UNL     1      -5.251   2.466  -0.205  0.00  0.00    +0.166 C 
ATOM      5  H   UNL     1      -3.914   2.886  -1.670  0.00  0.00    +0.163 HD
ATOM      6  H   UNL     1      -4.579   2.369   1.736  0.00  0.00    +0.159 HD
ATOM      7  H   UNL     1      -3.355   2.694   0.567  0.00  0.00    +0.159 HD
ATOM      8  H   UNL     1      -7.260   2.162  -0.546  0.00  0.00    +0.159 HD
ATOM      9  H   UNL     1      -6.786   2.068   1.105  0.00  0.00    +0.159 HD
ENDROOT
BRANCH   1  10
ATOM     10  C   UNL     1      -5.797   2.577  -2.616  0.00  0.00    +0.151 C 
BRANCH  10  11
ATOM     11  C   UNL     1      -5.462   1.351  -3.419  0.00  0.00    -0.028 A 
ATOM     12  C   UNL     1      -6.019   1.159  -4.692  0.00  0.00    +0.005 A 
ATOM     13  C   UNL     1      -4.584   0.379  -2.915  0.00  0.00    +0.005 A 
ATOM     14  C   UNL     1      -5.684   0.035  -5.451  0.00  0.00    +0.000 A 
ATOM     15  C   UNL     1      -4.253  -0.742  -3.676  0.00  0.00    +0.000 A 
ATOM     16  C   UNL     1      -4.802  -0.913  -4.945  0.00  0.00    +0.000 A 
ENDBRANCH  10  11
ENDBRANCH   1  10
TORSDOF 2
ENDMDL
MODEL 3
REMARK VINA RESULT:    -5.772      1.594      2.057
REMARK INTER + INTRA:          -6.603
REMARK INTER:                  -6.470
REMARK INTRA:                  -0.133
REMARK UNBOUND:                -0.157
REMARK  Name = 1550473
REMARK  2 active torsions:
REMARK  status: ('A' for Active; 'I' for Inactive)
REMARK    1  A    between atoms: N_1  and  C_4
REMARK    2  A    between atoms: C_4  and  C_5
REMARK                            x       y       z     vdW  Elec       q    Type
REMARK                         _______ _______ _______ _____ _____    ______ ____
ROOT
ATOM      1  N   UNL     1      -6.343   1.974  -1.811  0.00  0.00    -0.354 N 
ATOM      2  N   UNL     1      -6.550   2.207   0.484  0.00  0.00    -0.372 N 
ATOM      3  N   UNL     1      -4.452   2.029  -0.428  0.00  0.00    -0.372 N 
ATOM      4  C   UNL     1      -5.777   2.068  -0.600  0.00  0.00    +0.166 C 
ATOM      5  H   UNL     1      -7.355   1.980  -1.871  0.00  0.00    +0.163 HD
ATOM      6  H   UNL     1      -6.152   2.284   1.410  0.00  0.00    +0.159 HD
ATOM      7  H   UNL     1      -7.559   2.259   0.416  0.00  0.00    +0.159 HD
ATOM      8  H   UNL     1      -3.814   1.921  -1.205  0.00  0.00    +0.159 HD
ATOM      9  H   UNL     1      -4.035   2.093   0.492  0.00  0.00    +0.159 HD
ENDROOT
BRANCH   1  10
ATOM     10  C   UNL     1      -5.590   1.875  -3.060  0.00  0.00    +0.151 C 
BRANCH  10  11
ATOM     11  C   UNL     1      -6.311   0.945  -3.996  0.00  0.00    -0.028 A 
ATOM     12  C   UNL     1      -5.690   0.493  -5.169  0.00  0.00    +0.005 A 
ATOM     13  C   UNL     1      -7.613   0.507  -3.712  0.00  0.00    +0.005 A 
ATOM     14  C   UNL     1      -6.348  -0.395  -6.024  0.00  0.00    +0.000 A 
ATOM     15  C   UNL     1      -8.267  -0.379  -4.568  0.00  0.00    +0.000 A 
ATOM     16  C   UNL     1      -7.633  -0.832  -5.722  0.00  0.00    +0.000 A 
ENDBRANCH  10  11
ENDBRANCH   1  10
TORSDOF 2
ENDMDL
MODEL 4
REMARK VINA RESULT:    -5.359      3.280      4.760
REMARK INTER + INTRA:          -6.142
REMARK INTER:                  -5.994
REMARK INTRA:                  -0.148
REMARK UNBOUND:                -0.157
REMARK  Name = 1550473
REMARK  2 active torsions:
REMARK  status: ('A' for Active; 'I' for Inactive)
REMARK    1  A    between atoms: N_1  and  C_4
REMARK    2  A    between atoms: C_4  and  C_5
REMARK                            x       y       z     vdW  Elec       q    Type
REMARK                         _______ _______ _______ _____ _____    ______ ____
ROOT
ATOM      1  N   UNL     1      -7.091   1.970   3.467  0.00  0.00    -0.354 N 
ATOM      2  N   UNL     1      -6.484   1.958   5.702  0.00  0.00    -0.372 N 
ATOM      3  N   UNL     1      -6.423  -0.011   4.526  0.00  0.00    -0.372 N 
ATOM      4  C   UNL     1      -6.670   1.303   4.550  0.00  0.00    +0.166 C 
ATOM      5  H   UNL     1      -7.289   2.959   3.559  0.00  0.00    +0.163 HD
ATOM      6  H   UNL     1      -6.164   1.482   6.535  0.00  0.00    +0.159 HD
ATOM      7  H   UNL     1      -6.639   2.956   5.779  0.00  0.00    +0.159 HD
ATOM      8  H   UNL     1      -6.549  -0.565   3.689  0.00  0.00    +0.159 HD
ATOM      9  H   UNL     1      -6.113  -0.508   5.352  0.00  0.00    +0.159 HD
ENDROOT
BRANCH   1  10
ATOM     10  C   UNL     1      -7.273   1.360   2.151  0.00  0.00    +0.151 C 
BRANCH  10  11
ATOM     11  C   UNL     1      -6.235   1.906   1.209  0.00  0.00    -0.028 A 
ATOM     12  C   UNL     1      -5.943   1.242   0.009  0.00  0.00    +0.005 A 
ATOM     13  C   UNL     1      -5.545   3.091   1.509  0.00  0.00    +0.005 A 
ATOM     14  C   UNL     1      -5.001   1.765  -0.880  0.00  0.00    +0.000 A 
ATOM     15  C   UNL     1      -4.604   3.609   0.619  0.00  0.00    +0.000 A 
ATOM     16  C   UNL     1      -4.334   2.948  -0.576  0.00  0.00    +0.000 A 
ENDBRANCH  10  11
ENDBRANCH   1  10
TORSDOF 2
ENDMDL
MODEL 5
REMARK VINA RESULT:    -5.336      2.860      4.603
REMARK INTER + INTRA:          -6.117
REMARK INTER:                  -6.019
REMARK INTRA:                  -0.098
REMARK UNBOUND:                -0.157
REMARK  Name = 1550473
REMARK  2 active torsions:
REMARK  status: ('A' for Active; 'I' for Inactive)
REMARK    1  A    between atoms: N_1  and  C_4
REMARK    2  A    between atoms: C_4  and  C_5
REMARK                            x       y       z     vdW  Elec       q    Type
REMARK                         _______ _______ _______ _____ _____    ______ ____
ROOT
ATOM      1  N   UNL     1      -7.786   0.728  -1.497  0.00  0.00    -0.354 N 
ATOM      2  N   UNL     1      -9.940   0.246  -2.200  0.00  0.00    -0.372 N 
ATOM      3  N   UNL     1      -8.310  -1.352  -2.442  0.00  0.00    -0.372 N 
ATOM      4  C   UNL     1      -8.663  -0.125  -2.043  0.00  0.00    +0.166 C 
ATOM      5  H   UNL     1      -8.110   1.654  -1.243  0.00  0.00    +0.163 HD
ATOM      6  H   UNL     1     -10.625  -0.378  -2.605  0.00  0.00    +0.159 HD
ATOM      7  H   UNL     1     -10.271   1.156  -1.903  0.00  0.00    +0.159 HD
ATOM      8  H   UNL     1      -7.361  -1.690  -2.356  0.00  0.00    +0.159 HD
ATOM      9  H   UNL     1      -8.979  -1.986  -2.860  0.00  0.00    +0.159 HD
ENDROOT
BRANCH   1  10
ATOM     10  C   UNL     1      -6.386   0.403  -1.233  0.00  0.00    +0.151 C 
BRANCH  10  11
ATOM     11  C   UNL     1      -5.739   1.559  -0.521  0.00  0.00    -0.028 A 
ATOM     12  C   UNL     1      -4.729   2.305  -1.145  0.00  0.00    +0.005 A 
ATOM     13  C   UNL     1      -6.137   1.917   0.777  0.00  0.00    +0.005 A 
ATOM     14  C   UNL     1      -4.149   3.398  -0.496  0.00  0.00    +0.000 A 
ATOM     15  C   UNL     1      -5.555   3.008   1.422  0.00  0.00    +0.000 A 
ATOM     16  C   UNL     1      -4.563   3.750   0.785  0.00  0.00    +0.000 A 
ENDBRANCH  10  11
ENDBRANCH   1  10
TORSDOF 2
ENDMDL
MODEL 6
REMARK VINA RESULT:    -5.018      4.454      5.261
REMARK INTER + INTRA:          -5.762
REMARK INTER:                  -5.582
REMARK INTRA:                  -0.180
REMARK UNBOUND:                -0.157
REMARK  Name = 1550473
REMARK  2 active torsions:
REMARK  status: ('A' for Active; 'I' for Inactive)
REMARK    1  A    between atoms: N_1  and  C_4
REMARK    2  A    between atoms: C_4  and  C_5
REMARK                            x       y       z     vdW  Elec       q    Type
REMARK                         _______ _______ _______ _____ _____    ______ ____
ROOT
ATOM      1  N   UNL     1     -10.153  -1.211  -3.014  0.00  0.00    -0.354 N 
ATOM      2  N   UNL     1     -11.883  -2.748  -2.918  0.00  0.00    -0.372 N 
ATOM      3  N   UNL     1     -11.518  -1.610  -4.877  0.00  0.00    -0.372 N 
ATOM      4  C   UNL     1     -11.174  -1.845  -3.606  0.00  0.00    +0.166 C 
ATOM      5  H   UNL     1      -9.962  -1.412  -2.039  0.00  0.00    +0.163 HD
ATOM      6  H   UNL     1     -12.656  -3.245  -3.339  0.00  0.00    +0.159 HD
ATOM      7  H   UNL     1     -11.661  -2.980  -1.958  0.00  0.00    +0.159 HD
ATOM      8  H   UNL     1     -11.026  -0.936  -5.449  0.00  0.00    +0.159 HD
ATOM      9  H   UNL     1     -12.296  -2.088  -5.313  0.00  0.00    +0.159 HD
ENDROOT
BRANCH   1  10
ATOM     10  C   UNL     1      -9.284  -0.249  -3.691  0.00  0.00    +0.151 C 
BRANCH  10  11
ATOM     11  C   UNL     1      -8.043  -0.956  -4.162  0.00  0.00    -0.028 A 
ATOM     12  C   UNL     1      -7.684  -0.936  -5.517  0.00  0.00    +0.005 A 
ATOM     13  C   UNL     1      -7.219  -1.642  -3.257  0.00  0.00    +0.005 A 
ATOM     14  C   UNL     1      -6.515  -1.567  -5.951  0.00  0.00    +0.000 A 
ATOM     15  C   UNL     1      -6.053  -2.271  -3.693  0.00  0.00    +0.000 A 
ATOM     16  C   UNL     1      -5.700  -2.231  -5.040  0.00  0.00    +0.000 A 
ENDBRANCH  10  11
ENDBRANCH   1  10
TORSDOF 2
ENDMDL
MODEL 7
REMARK VINA RESULT:    -4.931      2.949      4.322
REMARK INTER + INTRA:          -5.664
REMARK INTER:                  -5.500
REMARK INTRA:                  -0.164
REMARK UNBOUND:                -0.157
REMARK  Name = 1550473
REMARK  2 active torsions:
REMARK  status: ('A' for Active; 'I' for Inactive)
REMARK    1  A    between atoms: N_1  and  C_4
REMARK    2  A    between atoms: C_4  and  C_5
REMARK                            x       y       z     vdW  Elec       q    Type
REMARK                         _______ _______ _______ _____ _____    ______ ____
ROOT
ATOM      1  N   UNL     1      -8.495   0.723   0.674  0.00  0.00    -0.354 N 
ATOM      2  N   UNL     1     -10.506   0.282  -0.387  0.00  0.00    -0.372 N 
ATOM      3  N   UNL     1      -8.781  -1.214  -0.614  0.00  0.00    -0.372 N 
ATOM      4  C   UNL     1      -9.246  -0.069  -0.103  0.00  0.00    +0.166 C 
ATOM      5  H   UNL     1      -8.897   1.592   1.006  0.00  0.00    +0.163 HD
ATOM      6  H   UNL     1     -11.097  -0.297  -0.968  0.00  0.00    +0.159 HD
ATOM      7  H   UNL     1     -10.919   1.129  -0.017  0.00  0.00    +0.159 HD
ATOM      8  H   UNL     1      -7.836  -1.533  -0.442  0.00  0.00    +0.159 HD
ATOM      9  H   UNL     1      -9.353  -1.801  -1.207  0.00  0.00    +0.159 HD
ENDROOT
BRANCH   1  10
ATOM     10  C   UNL     1      -7.129   0.405   1.088  0.00  0.00    +0.151 C 
BRANCH  10  11
ATOM     11  C   UNL     1      -6.191   1.430   0.512  0.00  0.00    -0.028 A 
ATOM     12  C   UNL     1      -5.686   2.463   1.315  0.00  0.00    +0.005 A 
ATOM     13  C   UNL     1      -5.800   1.371  -0.834  0.00  0.00    +0.005 A 
ATOM     14  C   UNL     1      -4.791   3.398   0.789  0.00  0.00    +0.000 A 
ATOM     15  C   UNL     1      -4.907   2.307  -1.356  0.00  0.00    +0.000 A 
ATOM     16  C   UNL     1      -4.401   3.319  -0.543  0.00  0.00    +0.000 A 
ENDBRANCH  10  11
ENDBRANCH   1  10
TORSDOF 2
ENDMDL
MODEL 8
REMARK VINA RESULT:    -4.416     13.587     14.553
REMARK INTER + INTRA:          -5.089
REMARK INTER:                  -4.982
REMARK INTRA:                  -0.107
REMARK UNBOUND:                -0.157
REMARK  Name = 1550473
REMARK  2 active torsions:
REMARK  status: ('A' for Active; 'I' for Inactive)
REMARK    1  A    between atoms: N_1  and  C_4
REMARK    2  A    between atoms: C_4  and  C_5
REMARK                            x       y       z     vdW  Elec       q    Type
REMARK                         _______ _______ _______ _____ _____    ______ ____
ROOT
ATOM      1  N   UNL     1       3.225   2.759 -13.563  0.00  0.00    -0.354 N 
ATOM      2  N   UNL     1       4.791   3.492 -12.022  0.00  0.00    -0.372 N 
ATOM      3  N   UNL     1       2.600   4.122 -11.762  0.00  0.00    -0.372 N 
ATOM      4  C   UNL     1       3.526   3.454 -12.458  0.00  0.00    +0.166 C 
ATOM      5  H   UNL     1       3.978   2.299 -14.063  0.00  0.00    +0.163 HD
ATOM      6  H   UNL     1       5.048   4.005 -11.190  0.00  0.00    +0.159 HD
ATOM      7  H   UNL     1       5.534   2.994 -12.498  0.00  0.00    +0.159 HD
ATOM      8  H   UNL     1       1.628   4.138 -12.042  0.00  0.00    +0.159 HD
ATOM      9  H   UNL     1       2.839   4.651 -10.933  0.00  0.00    +0.159 HD
ENDROOT
BRANCH   1  10
ATOM     10  C   UNL     1       1.870   2.610 -14.092  0.00  0.00    +0.151 C 
BRANCH  10  11
ATOM     11  C   UNL     1       1.723   1.237 -14.687  0.00  0.00    -0.028 A 
ATOM     12  C   UNL     1       1.383   0.143 -13.877  0.00  0.00    +0.005 A 
ATOM     13  C   UNL     1       1.918   1.023 -16.060  0.00  0.00    +0.005 A 
ATOM     14  C   UNL     1       1.216  -1.127 -14.434  0.00  0.00    +0.000 A 
ATOM     15  C   UNL     1       1.752  -0.247 -16.612  0.00  0.00    +0.000 A 
ATOM     16  C   UNL     1       1.399  -1.321 -15.799  0.00  0.00    +0.000 A 
ENDBRANCH  10  11
ENDBRANCH   1  10
TORSDOF 2
ENDMDL
MODEL 9
REMARK VINA RESULT:    -4.102      5.886      6.481
REMARK INTER + INTRA:          -4.738
REMARK INTER:                  -4.612
REMARK INTRA:                  -0.126
REMARK UNBOUND:                -0.157
REMARK  Name = 1550473
REMARK  2 active torsions:
REMARK  status: ('A' for Active; 'I' for Inactive)
REMARK    1  A    between atoms: N_1  and  C_4
REMARK    2  A    between atoms: C_4  and  C_5
REMARK                            x       y       z     vdW  Elec       q    Type
REMARK                         _______ _______ _______ _____ _____    ______ ____
ROOT
ATOM      1  N   UNL     1     -11.482  -0.661  -1.563  0.00  0.00    -0.354 N 
ATOM      2  N   UNL     1     -10.046   0.275  -0.006  0.00  0.00    -0.372 N 
ATOM      3  N   UNL     1     -10.956  -1.787   0.424  0.00  0.00    -0.372 N 
ATOM      4  C   UNL     1     -10.838  -0.733  -0.391  0.00  0.00    +0.166 C 
ATOM      5  H   UNL     1     -11.374   0.178  -2.121  0.00  0.00    +0.163 HD
ATOM      6  H   UNL     1      -9.545   0.248   0.872  0.00  0.00    +0.159 HD
ATOM      7  H   UNL     1      -9.904   1.093  -0.586  0.00  0.00    +0.159 HD
ATOM      8  H   UNL     1     -11.543  -2.578   0.194  0.00  0.00    +0.159 HD
ATOM      9  H   UNL     1     -10.471  -1.828   1.312  0.00  0.00    +0.159 HD
ENDROOT
BRANCH   1  10
ATOM     10  C   UNL     1     -12.326  -1.728  -2.099  0.00  0.00    +0.151 C 
BRANCH  10  11
ATOM     11  C   UNL     1     -11.807  -2.131  -3.452  0.00  0.00    -0.028 A 
ATOM     12  C   UNL     1     -10.492  -1.826  -3.831  0.00  0.00    +0.005 A 
ATOM     13  C   UNL     1     -12.625  -2.823  -4.358  0.00  0.00    +0.005 A 
ATOM     14  C   UNL     1     -10.001  -2.226  -5.076  0.00  0.00    +0.000 A 
ATOM     15  C   UNL     1     -12.131  -3.221  -5.601  0.00  0.00    +0.000 A 
ATOM     16  C   UNL     1     -10.818  -2.924  -5.958  0.00  0.00    +0.000 A 
ENDBRANCH  10  11
ENDBRANCH   1  10
TORSDOF 2
ENDMDL
