MODEL 1
REMARK VINA RESULT:    -5.784      0.000      0.000
REMARK INTER + INTRA:          -6.601
REMARK INTER:                  -6.461
REMARK INTRA:                  -0.140
REMARK UNBOUND:                -0.140
REMARK  Name = 1550473
REMARK  2 active torsions:
REMARK  status: ('A' for Active; 'I' for Inactive)
REMARK    1  A    between atoms: N_1  and  C_4
REMARK    2  A    between atoms: C_4  and  C_5
REMARK                            x       y       z     vdW  Elec       q    Type
REMARK                         _______ _______ _______ _____ _____    ______ ____
ROOT
ATOM      1  N   UNL     1      -1.588  -2.372  -3.400  0.00  0.00    -0.354 N 
ATOM      2  N   UNL     1      -1.258  -4.492  -2.527  0.00  0.00    -0.372 N 
ATOM      3  N   UNL     1      -2.250  -4.282  -4.585  0.00  0.00    -0.372 N 
ATOM      4  C   UNL     1      -1.703  -3.702  -3.512  0.00  0.00    +0.166 C 
ATOM      5  H   UNL     1      -1.191  -1.993  -2.548  0.00  0.00    +0.163 HD
ATOM      6  H   UNL     1      -1.327  -5.499  -2.585  0.00  0.00    +0.159 HD
ATOM      7  H   UNL     1      -0.819  -4.112  -1.697  0.00  0.00    +0.159 HD
ATOM      8  H   UNL     1      -2.611  -3.742  -5.361  0.00  0.00    +0.159 HD
ATOM      9  H   UNL     1      -2.339  -5.288  -4.656  0.00  0.00    +0.159 HD
ENDROOT
BRANCH   1  10
ATOM     10  C   UNL     1      -1.992  -1.426  -4.439  0.00  0.00    +0.151 C 
BRANCH  10  11
ATOM     11  C   UNL     1      -0.786  -0.653  -4.895  0.00  0.00    -0.028 A 
ATOM     12  C   UNL     1      -0.096   0.181  -4.003  0.00  0.00    +0.005 A 
ATOM     13  C   UNL     1      -0.324  -0.754  -6.216  0.00  0.00    +0.005 A 
ATOM     14  C   UNL     1       1.042   0.877  -4.418  0.00  0.00    +0.000 A 
ATOM     15  C   UNL     1       0.813  -0.058  -6.626  0.00  0.00    +0.000 A 
ATOM     16  C   UNL     1       1.497   0.755  -5.726  0.00  0.00    +0.000 A 
ENDBRANCH  10  11
ENDBRANCH   1  10
TORSDOF 2
ENDMDL
MODEL 2
REMARK VINA RESULT:    -5.643      6.789      7.322
REMARK INTER + INTRA:          -6.443
REMARK INTER:                  -6.346
REMARK INTRA:                  -0.097
REMARK UNBOUND:                -0.140
REMARK  Name = 1550473
REMARK  2 active torsions:
REMARK  status: ('A' for Active; 'I' for Inactive)
REMARK    1  A    between atoms: N_1  and  C_4
REMARK    2  A    between atoms: C_4  and  C_5
REMARK                            x       y       z     vdW  Elec       q    Type
REMARK                         _______ _______ _______ _____ _____    ______ ____
ROOT
ATOM      1  N   UNL     1      -2.146  -4.135 -11.577  0.00  0.00    -0.354 N 
ATOM      2  N   UNL     1      -3.636  -4.786 -13.225  0.00  0.00    -0.372 N 
ATOM      3  N   UNL     1      -4.385  -3.448 -11.518  0.00  0.00    -0.372 N 
ATOM      4  C   UNL     1      -3.381  -4.117 -12.094  0.00  0.00    +0.166 C 
ATOM      5  H   UNL     1      -1.435  -4.686 -12.045  0.00  0.00    +0.163 HD
ATOM      6  H   UNL     1      -4.558  -4.788 -13.641  0.00  0.00    +0.159 HD
ATOM      7  H   UNL     1      -2.914  -5.298 -13.716  0.00  0.00    +0.159 HD
ATOM      8  H   UNL     1      -4.260  -2.928 -10.660  0.00  0.00    +0.159 HD
ATOM      9  H   UNL     1      -5.317  -3.447 -11.913  0.00  0.00    +0.159 HD
ENDROOT
BRANCH   1  10
ATOM     10  C   UNL     1      -1.750  -3.396 -10.379  0.00  0.00    +0.151 C 
BRANCH  10  11
ATOM     11  C   UNL     1      -0.260  -3.196 -10.395  0.00  0.00    -0.028 A 
ATOM     12  C   UNL     1       0.306  -2.119 -11.094  0.00  0.00    +0.005 A 
ATOM     13  C   UNL     1       0.591  -4.075  -9.708  0.00  0.00    +0.005 A 
ATOM     14  C   UNL     1       1.688  -1.915 -11.084  0.00  0.00    +0.000 A 
ATOM     15  C   UNL     1       1.971  -3.868  -9.702  0.00  0.00    +0.000 A 
ATOM     16  C   UNL     1       2.518  -2.787 -10.388  0.00  0.00    +0.000 A 
ENDBRANCH  10  11
ENDBRANCH   1  10
TORSDOF 2
ENDMDL
MODEL 3
REMARK VINA RESULT:    -5.557      8.068      9.411
REMARK INTER + INTRA:          -6.347
REMARK INTER:                  -6.208
REMARK INTRA:                  -0.138
REMARK UNBOUND:                -0.140
REMARK  Name = 1550473
REMARK  2 active torsions:
REMARK  status: ('A' for Active; 'I' for Inactive)
REMARK    1  A    between atoms: N_1  and  C_4
REMARK    2  A    between atoms: C_4  and  C_5
REMARK                            x       y       z     vdW  Elec       q    Type
REMARK                         _______ _______ _______ _____ _____    ______ ____
ROOT
ATOM      1  N   UNL     1      -1.791  -3.407 -11.211  0.00  0.00    -0.354 N 
ATOM      2  N   UNL     1       0.188  -2.211 -11.351  0.00  0.00    -0.372 N 
ATOM      3  N   UNL     1       0.281  -4.502 -11.260  0.00  0.00    -0.372 N 
ATOM      4  C   UNL     1      -0.453  -3.384 -11.273  0.00  0.00    +0.166 C 
ATOM      5  H   UNL     1      -2.287  -2.523 -11.194  0.00  0.00    +0.163 HD
ATOM      6  H   UNL     1       1.197  -2.163 -11.402  0.00  0.00    +0.159 HD
ATOM      7  H   UNL     1      -0.313  -1.332 -11.380  0.00  0.00    +0.159 HD
ATOM      8  H   UNL     1      -0.142  -5.419 -11.197  0.00  0.00    +0.159 HD
ATOM      9  H   UNL     1       1.292  -4.474 -11.299  0.00  0.00    +0.159 HD
ENDROOT
BRANCH   1  10
ATOM     10  C   UNL     1      -2.587  -4.632 -11.178  0.00  0.00    +0.151 C 
BRANCH  10  11
ATOM     11  C   UNL     1      -3.752  -4.487 -12.118  0.00  0.00    -0.028 A 
ATOM     12  C   UNL     1      -4.929  -5.222 -11.912  0.00  0.00    +0.005 A 
ATOM     13  C   UNL     1      -3.687  -3.612 -13.213  0.00  0.00    +0.005 A 
ATOM     14  C   UNL     1      -6.022  -5.064 -12.768  0.00  0.00    +0.000 A 
ATOM     15  C   UNL     1      -4.780  -3.458 -14.066  0.00  0.00    +0.000 A 
ATOM     16  C   UNL     1      -5.948  -4.183 -13.841  0.00  0.00    +0.000 A 
ENDBRANCH  10  11
ENDBRANCH   1  10
TORSDOF 2
ENDMDL
MODEL 4
REMARK VINA RESULT:    -5.456      8.541      9.854
REMARK INTER + INTRA:          -6.234
REMARK INTER:                  -6.134
REMARK INTRA:                  -0.100
REMARK UNBOUND:                -0.140
REMARK  Name = 1550473
REMARK  2 active torsions:
REMARK  status: ('A' for Active; 'I' for Inactive)
REMARK    1  A    between atoms: N_1  and  C_4
REMARK    2  A    between atoms: C_4  and  C_5
REMARK                            x       y       z     vdW  Elec       q    Type
REMARK                         _______ _______ _______ _____ _____    ______ ____
ROOT
ATOM      1  N   UNL     1      -2.160  -4.232 -11.788  0.00  0.00    -0.354 N 
ATOM      2  N   UNL     1       0.072  -4.372 -11.186  0.00  0.00    -0.372 N 
ATOM      3  N   UNL     1      -1.486  -3.911  -9.566  0.00  0.00    -0.372 N 
ATOM      4  C   UNL     1      -1.207  -4.170 -10.848  0.00  0.00    +0.166 C 
ATOM      5  H   UNL     1      -1.880  -4.402 -12.747  0.00  0.00    +0.163 HD
ATOM      6  H   UNL     1       0.813  -4.335 -10.498  0.00  0.00    +0.159 HD
ATOM      7  H   UNL     1       0.344  -4.587 -12.138  0.00  0.00    +0.159 HD
ATOM      8  H   UNL     1      -2.431  -3.743  -9.247  0.00  0.00    +0.159 HD
ATOM      9  H   UNL     1      -0.758  -3.858  -8.865  0.00  0.00    +0.159 HD
ENDROOT
BRANCH   1  10
ATOM     10  C   UNL     1      -3.588  -4.080 -11.515  0.00  0.00    +0.151 C 
BRANCH  10  11
ATOM     11  C   UNL     1      -4.355  -4.272 -12.794  0.00  0.00    -0.028 A 
ATOM     12  C   UNL     1      -4.131  -3.429 -13.892  0.00  0.00    +0.005 A 
ATOM     13  C   UNL     1      -5.304  -5.299 -12.916  0.00  0.00    +0.005 A 
ATOM     14  C   UNL     1      -4.822  -3.625 -15.091  0.00  0.00    +0.000 A 
ATOM     15  C   UNL     1      -5.992  -5.491 -14.114  0.00  0.00    +0.000 A 
ATOM     16  C   UNL     1      -5.749  -4.656 -15.202  0.00  0.00    +0.000 A 
ENDBRANCH  10  11
ENDBRANCH   1  10
TORSDOF 2
ENDMDL
MODEL 5
REMARK VINA RESULT:    -5.271      7.700      9.694
REMARK INTER + INTRA:          -6.028
REMARK INTER:                  -5.884
REMARK INTRA:                  -0.144
REMARK UNBOUND:                -0.140
REMARK  Name = 1550473
REMARK  2 active torsions:
REMARK  status: ('A' for Active; 'I' for Inactive)
REMARK    1  A    between atoms: N_1  and  C_4
REMARK    2  A    between atoms: C_4  and  C_5
REMARK                            x       y       z     vdW  Elec       q    Type
REMARK                         _______ _______ _______ _____ _____    ______ ____
ROOT
ATOM      1  N   UNL     1      -4.285  -7.875  -1.037  0.00  0.00    -0.354 N 
ATOM      2  N   UNL     1      -4.278  -5.578  -1.329  0.00  0.00    -0.372 N 
ATOM      3  N   UNL     1      -3.552  -6.444   0.668  0.00  0.00    -0.372 N 
ATOM      4  C   UNL     1      -4.037  -6.648  -0.562  0.00  0.00    +0.166 C 
ATOM      5  H   UNL     1      -4.681  -7.961  -1.966  0.00  0.00    +0.163 HD
ATOM      6  H   UNL     1      -4.097  -4.639  -0.999  0.00  0.00    +0.159 HD
ATOM      7  H   UNL     1      -4.630  -5.668  -2.274  0.00  0.00    +0.159 HD
ATOM      8  H   UNL     1      -3.354  -7.209   1.299  0.00  0.00    +0.159 HD
ATOM      9  H   UNL     1      -3.376  -5.512   1.021  0.00  0.00    +0.159 HD
ENDROOT
BRANCH   1  10
ATOM     10  C   UNL     1      -4.007  -9.108  -0.302  0.00  0.00    +0.151 C 
BRANCH  10  11
ATOM     11  C   UNL     1      -3.121  -9.989  -1.138  0.00  0.00    -0.028 A 
ATOM     12  C   UNL     1      -3.485 -11.317  -1.406  0.00  0.00    +0.005 A 
ATOM     13  C   UNL     1      -1.918  -9.501  -1.671  0.00  0.00    +0.005 A 
ATOM     14  C   UNL     1      -2.676 -12.127  -2.207  0.00  0.00    +0.000 A 
ATOM     15  C   UNL     1      -1.113 -10.313  -2.470  0.00  0.00    +0.000 A 
ATOM     16  C   UNL     1      -1.494 -11.625  -2.740  0.00  0.00    +0.000 A 
ENDBRANCH  10  11
ENDBRANCH   1  10
TORSDOF 2
ENDMDL
MODEL 6
REMARK VINA RESULT:    -5.129      3.522      4.790
REMARK INTER + INTRA:          -5.869
REMARK INTER:                  -5.737
REMARK INTRA:                  -0.132
REMARK UNBOUND:                -0.140
REMARK  Name = 1550473
REMARK  2 active torsions:
REMARK  status: ('A' for Active; 'I' for Inactive)
REMARK    1  A    between atoms: N_1  and  C_4
REMARK    2  A    between atoms: C_4  and  C_5
REMARK                            x       y       z     vdW  Elec       q    Type
REMARK                         _______ _______ _______ _____ _____    ______ ____
ROOT
ATOM      1  N   UNL     1       1.364  -1.207  -6.221  0.00  0.00    -0.354 N 
ATOM      2  N   UNL     1       0.633  -0.070  -4.340  0.00  0.00    -0.372 N 
ATOM      3  N   UNL     1       0.425  -2.354  -4.406  0.00  0.00    -0.372 N 
ATOM      4  C   UNL     1       0.811  -1.221  -5.000  0.00  0.00    +0.166 C 
ATOM      5  H   UNL     1       1.607  -0.312  -6.629  0.00  0.00    +0.163 HD
ATOM      6  H   UNL     1       0.222  -0.049  -3.417  0.00  0.00    +0.159 HD
ATOM      7  H   UNL     1       0.919   0.819  -4.732  0.00  0.00    +0.159 HD
ATOM      8  H   UNL     1       0.527  -3.255  -4.853  0.00  0.00    +0.159 HD
ATOM      9  H   UNL     1       0.001  -2.353  -3.486  0.00  0.00    +0.159 HD
ENDROOT
BRANCH   1  10
ATOM     10  C   UNL     1       1.651  -2.409  -7.002  0.00  0.00    +0.151 C 
BRANCH  10  11
ATOM     11  C   UNL     1       1.385  -2.126  -8.455  0.00  0.00    -0.028 A 
ATOM     12  C   UNL     1       1.228  -0.808  -8.906  0.00  0.00    +0.005 A 
ATOM     13  C   UNL     1       1.296  -3.172  -9.386  0.00  0.00    +0.005 A 
ATOM     14  C   UNL     1       1.011  -0.542 -10.260  0.00  0.00    +0.000 A 
ATOM     15  C   UNL     1       1.079  -2.903 -10.737  0.00  0.00    +0.000 A 
ATOM     16  C   UNL     1       0.939  -1.588 -11.174  0.00  0.00    +0.000 A 
ENDBRANCH  10  11
ENDBRANCH   1  10
TORSDOF 2
ENDMDL
MODEL 7
REMARK VINA RESULT:    -5.103     10.716     11.924
REMARK INTER + INTRA:          -5.840
REMARK INTER:                  -5.688
REMARK INTRA:                  -0.151
REMARK UNBOUND:                -0.140
REMARK  Name = 1550473
REMARK  2 active torsions:
REMARK  status: ('A' for Active; 'I' for Inactive)
REMARK    1  A    between atoms: N_1  and  C_4
REMARK    2  A    between atoms: C_4  and  C_5
REMARK                            x       y       z     vdW  Elec       q    Type
REMARK                         _______ _______ _______ _____ _____    ______ ____
ROOT
ATOM      1  N   UNL     1      -6.063  -6.166 -15.752  0.00  0.00    -0.354 N 
ATOM      2  N   UNL     1      -7.116  -8.157 -16.291  0.00  0.00    -0.372 N 
ATOM      3  N   UNL     1      -8.397  -6.358 -15.671  0.00  0.00    -0.372 N 
ATOM      4  C   UNL     1      -7.187  -6.879 -15.900  0.00  0.00    +0.166 C 
ATOM      5  H   UNL     1      -5.175  -6.628 -15.912  0.00  0.00    +0.163 HD
ATOM      6  H   UNL     1      -7.947  -8.719 -16.414  0.00  0.00    +0.159 HD
ATOM      7  H   UNL     1      -6.229  -8.603 -16.495  0.00  0.00    +0.159 HD
ATOM      8  H   UNL     1      -8.519  -5.400 -15.368  0.00  0.00    +0.159 HD
ATOM      9  H   UNL     1      -9.240  -6.908 -15.778  0.00  0.00    +0.159 HD
ENDROOT
BRANCH   1  10
ATOM     10  C   UNL     1      -6.034  -4.751 -15.383  0.00  0.00    +0.151 C 
BRANCH  10  11
ATOM     11  C   UNL     1      -5.315  -4.601 -14.071  0.00  0.00    -0.028 A 
ATOM     12  C   UNL     1      -4.162  -3.807 -13.978  0.00  0.00    +0.005 A 
ATOM     13  C   UNL     1      -5.785  -5.244 -12.916  0.00  0.00    +0.005 A 
ATOM     14  C   UNL     1      -3.511  -3.643 -12.754  0.00  0.00    +0.000 A 
ATOM     15  C   UNL     1      -5.131  -5.077 -11.695  0.00  0.00    +0.000 A 
ATOM     16  C   UNL     1      -3.996  -4.275 -11.614  0.00  0.00    +0.000 A 
ENDBRANCH  10  11
ENDBRANCH   1  10
TORSDOF 2
ENDMDL
MODEL 8
REMARK VINA RESULT:    -4.969     19.483     20.515
REMARK INTER + INTRA:          -5.690
REMARK INTER:                  -5.557
REMARK INTRA:                  -0.133
REMARK UNBOUND:                -0.140
REMARK  Name = 1550473
REMARK  2 active torsions:
REMARK  status: ('A' for Active; 'I' for Inactive)
REMARK    1  A    between atoms: N_1  and  C_4
REMARK    2  A    between atoms: C_4  and  C_5
REMARK                            x       y       z     vdW  Elec       q    Type
REMARK                         _______ _______ _______ _____ _____    ______ ____
ROOT
ATOM      1  N   UNL     1     -16.743   0.264   8.072  0.00  0.00    -0.354 N 
ATOM      2  N   UNL     1     -17.533   2.333   8.749  0.00  0.00    -0.372 N 
ATOM      3  N   UNL     1     -15.785   2.245   7.266  0.00  0.00    -0.372 N 
ATOM      4  C   UNL     1     -16.679   1.601   8.023  0.00  0.00    +0.166 C 
ATOM      5  H   UNL     1     -17.424  -0.163   8.689  0.00  0.00    +0.163 HD
ATOM      6  H   UNL     1     -17.511   3.344   8.730  0.00  0.00    +0.159 HD
ATOM      7  H   UNL     1     -18.243   1.903   9.330  0.00  0.00    +0.159 HD
ATOM      8  H   UNL     1     -15.109   1.750   6.699  0.00  0.00    +0.159 HD
ATOM      9  H   UNL     1     -15.740   3.256   7.242  0.00  0.00    +0.159 HD
ENDROOT
BRANCH   1  10
ATOM     10  C   UNL     1     -15.895  -0.625   7.279  0.00  0.00    +0.151 C 
BRANCH  10  11
ATOM     11  C   UNL     1     -16.765  -1.594   6.529  0.00  0.00    -0.028 A 
ATOM     12  C   UNL     1     -18.102  -1.278   6.245  0.00  0.00    +0.005 A 
ATOM     13  C   UNL     1     -16.258  -2.828   6.094  0.00  0.00    +0.005 A 
ATOM     14  C   UNL     1     -18.903  -2.166   5.522  0.00  0.00    +0.000 A 
ATOM     15  C   UNL     1     -17.061  -3.712   5.373  0.00  0.00    +0.000 A 
ATOM     16  C   UNL     1     -18.382  -3.379   5.085  0.00  0.00    +0.000 A 
ENDBRANCH  10  11
ENDBRANCH   1  10
TORSDOF 2
ENDMDL
MODEL 9
REMARK VINA RESULT:    -4.870     16.261     17.804
REMARK INTER + INTRA:          -5.580
REMARK INTER:                  -5.456
REMARK INTRA:                  -0.124
REMARK UNBOUND:                -0.140
REMARK  Name = 1550473
REMARK  2 active torsions:
REMARK  status: ('A' for Active; 'I' for Inactive)
REMARK    1  A    between atoms: N_1  and  C_4
REMARK    2  A    between atoms: C_4  and  C_5
REMARK                            x       y       z     vdW  Elec       q    Type
REMARK                         _______ _______ _______ _____ _____    ______ ____
ROOT
ATOM      1  N   UNL     1       0.903 -17.837  -8.031  0.00  0.00    -0.354 N 
ATOM      2  N   UNL     1       2.508 -16.502  -7.028  0.00  0.00    -0.372 N 
ATOM      3  N   UNL     1       0.972 -17.574  -5.704  0.00  0.00    -0.372 N 
ATOM      4  C   UNL     1       1.449 -17.314  -6.925  0.00  0.00    +0.166 C 
ATOM      5  H   UNL     1       1.293 -17.576  -8.930  0.00  0.00    +0.163 HD
ATOM      6  H   UNL     1       2.944 -16.096  -6.211  0.00  0.00    +0.159 HD
ATOM      7  H   UNL     1       2.924 -16.280  -7.925  0.00  0.00    +0.159 HD
ATOM      8  H   UNL     1       0.171 -18.174  -5.558  0.00  0.00    +0.159 HD
ATOM      9  H   UNL     1       1.387 -17.167  -4.875  0.00  0.00    +0.159 HD
ENDROOT
BRANCH   1  10
ATOM     10  C   UNL     1      -0.219 -18.774  -8.025  0.00  0.00    +0.151 C 
BRANCH  10  11
ATOM     11  C   UNL     1      -0.888 -18.749  -9.371  0.00  0.00    -0.028 A 
ATOM     12  C   UNL     1      -0.890 -17.578 -10.143  0.00  0.00    +0.005 A 
ATOM     13  C   UNL     1      -1.517 -19.894  -9.883  0.00  0.00    +0.005 A 
ATOM     14  C   UNL     1      -1.486 -17.562 -11.407  0.00  0.00    +0.000 A 
ATOM     15  C   UNL     1      -2.111 -19.874 -11.145  0.00  0.00    +0.000 A 
ATOM     16  C   UNL     1      -2.093 -18.709 -11.907  0.00  0.00    +0.000 A 
ENDBRANCH  10  11
ENDBRANCH   1  10
TORSDOF 2
ENDMDL
