MODEL 1
REMARK VINA RESULT:    -5.713      0.000      0.000
REMARK INTER + INTRA:          -6.526
REMARK INTER:                  -6.382
REMARK INTRA:                  -0.145
REMARK UNBOUND:                -0.145
REMARK  Name = 1550473
REMARK  2 active torsions:
REMARK  status: ('A' for Active; 'I' for Inactive)
REMARK    1  A    between atoms: N_1  and  C_4
REMARK    2  A    between atoms: C_4  and  C_5
REMARK                            x       y       z     vdW  Elec       q    Type
REMARK                         _______ _______ _______ _____ _____    ______ ____
ROOT
ATOM      1  N   UNL     1       4.765   2.788  35.084  0.00  0.00    -0.354 N 
ATOM      2  N   UNL     1       4.379   1.511  33.190  0.00  0.00    -0.372 N 
ATOM      3  N   UNL     1       5.282   0.503  35.042  0.00  0.00    -0.372 N 
ATOM      4  C   UNL     1       4.812   1.607  34.453  0.00  0.00    +0.166 C 
ATOM      5  H   UNL     1       4.426   3.594  34.572  0.00  0.00    +0.163 HD
ATOM      6  H   UNL     1       4.399   0.633  32.690  0.00  0.00    +0.159 HD
ATOM      7  H   UNL     1       3.997   2.309  32.696  0.00  0.00    +0.159 HD
ATOM      8  H   UNL     1       5.630   0.509  35.992  0.00  0.00    +0.159 HD
ATOM      9  H   UNL     1       5.322  -0.383  34.554  0.00  0.00    +0.159 HD
ENDROOT
BRANCH   1  10
ATOM     10  C   UNL     1       5.162   2.987  36.476  0.00  0.00    +0.151 C 
BRANCH  10  11
ATOM     11  C   UNL     1       6.469   3.732  36.513  0.00  0.00    -0.028 A 
ATOM     12  C   UNL     1       6.902   4.463  35.397  0.00  0.00    +0.005 A 
ATOM     13  C   UNL     1       7.275   3.714  37.661  0.00  0.00    +0.005 A 
ATOM     14  C   UNL     1       8.101   5.179  35.441  0.00  0.00    +0.000 A 
ATOM     15  C   UNL     1       8.471   4.429  37.700  0.00  0.00    +0.000 A 
ATOM     16  C   UNL     1       8.883   5.164  36.591  0.00  0.00    +0.000 A 
ENDBRANCH  10  11
ENDBRANCH   1  10
TORSDOF 2
ENDMDL
MODEL 2
REMARK VINA RESULT:    -5.455      1.397      2.305
REMARK INTER + INTRA:          -6.238
REMARK INTER:                  -6.097
REMARK INTRA:                  -0.141
REMARK UNBOUND:                -0.145
REMARK  Name = 1550473
REMARK  2 active torsions:
REMARK  status: ('A' for Active; 'I' for Inactive)
REMARK    1  A    between atoms: N_1  and  C_4
REMARK    2  A    between atoms: C_4  and  C_5
REMARK                            x       y       z     vdW  Elec       q    Type
REMARK                         _______ _______ _______ _____ _____    ______ ____
ROOT
ATOM      1  N   UNL     1       5.729   1.314  33.557  0.00  0.00    -0.354 N 
ATOM      2  N   UNL     1       4.981   0.736  31.442  0.00  0.00    -0.372 N 
ATOM      3  N   UNL     1       3.439   1.256  33.060  0.00  0.00    -0.372 N 
ATOM      4  C   UNL     1       4.719   1.106  32.701  0.00  0.00    +0.166 C 
ATOM      5  H   UNL     1       6.675   1.154  33.231  0.00  0.00    +0.163 HD
ATOM      6  H   UNL     1       4.240   0.575  30.773  0.00  0.00    +0.159 HD
ATOM      7  H   UNL     1       5.930   0.622  31.107  0.00  0.00    +0.159 HD
ATOM      8  H   UNL     1       3.174   1.527  33.997  0.00  0.00    +0.159 HD
ATOM      9  H   UNL     1       2.683   1.088  32.408  0.00  0.00    +0.159 HD
ENDROOT
BRANCH   1  10
ATOM     10  C   UNL     1       5.553   1.771  34.934  0.00  0.00    +0.151 C 
BRANCH  10  11
ATOM     11  C   UNL     1       6.442   2.959  35.175  0.00  0.00    -0.028 A 
ATOM     12  C   UNL     1       7.243   3.028  36.324  0.00  0.00    +0.005 A 
ATOM     13  C   UNL     1       6.492   4.017  34.254  0.00  0.00    +0.005 A 
ATOM     14  C   UNL     1       8.092   4.118  36.533  0.00  0.00    +0.000 A 
ATOM     15  C   UNL     1       7.340   5.104  34.467  0.00  0.00    +0.000 A 
ATOM     16  C   UNL     1       8.141   5.153  35.605  0.00  0.00    +0.000 A 
ENDBRANCH  10  11
ENDBRANCH   1  10
TORSDOF 2
ENDMDL
MODEL 3
REMARK VINA RESULT:    -5.013     16.093     18.697
REMARK INTER + INTRA:          -5.744
REMARK INTER:                  -5.603
REMARK INTRA:                  -0.142
REMARK UNBOUND:                -0.145
REMARK  Name = 1550473
REMARK  2 active torsions:
REMARK  status: ('A' for Active; 'I' for Inactive)
REMARK    1  A    between atoms: N_1  and  C_4
REMARK    2  A    between atoms: C_4  and  C_5
REMARK                            x       y       z     vdW  Elec       q    Type
REMARK                         _______ _______ _______ _____ _____    ______ ____
ROOT
ATOM      1  N   UNL     1       2.564  -0.414  20.402  0.00  0.00    -0.354 N 
ATOM      2  N   UNL     1       4.695  -0.013  21.217  0.00  0.00    -0.372 N 
ATOM      3  N   UNL     1       3.562   1.695  20.184  0.00  0.00    -0.372 N 
ATOM      4  C   UNL     1       3.592   0.422  20.594  0.00  0.00    +0.166 C 
ATOM      5  H   UNL     1       2.661  -1.375  20.710  0.00  0.00    +0.163 HD
ATOM      6  H   UNL     1       5.485   0.596  21.379  0.00  0.00    +0.159 HD
ATOM      7  H   UNL     1       4.771  -0.961  21.564  0.00  0.00    +0.159 HD
ATOM      8  H   UNL     1       2.762   2.083  19.703  0.00  0.00    +0.159 HD
ATOM      9  H   UNL     1       4.348   2.317  20.327  0.00  0.00    +0.159 HD
ENDROOT
BRANCH   1  10
ATOM     10  C   UNL     1       1.298  -0.025  19.784  0.00  0.00    +0.151 C 
BRANCH  10  11
ATOM     11  C   UNL     1       1.190  -0.678  18.433  0.00  0.00    -0.028 A 
ATOM     12  C   UNL     1       2.044  -1.735  18.083  0.00  0.00    +0.005 A 
ATOM     13  C   UNL     1       0.232  -0.249  17.502  0.00  0.00    +0.005 A 
ATOM     14  C   UNL     1       1.924  -2.362  16.840  0.00  0.00    +0.000 A 
ATOM     15  C   UNL     1       0.116  -0.877  16.262  0.00  0.00    +0.000 A 
ATOM     16  C   UNL     1       0.961  -1.935  15.932  0.00  0.00    +0.000 A 
ENDBRANCH  10  11
ENDBRANCH   1  10
TORSDOF 2
ENDMDL
MODEL 4
REMARK VINA RESULT:    -4.810     25.291     26.667
REMARK INTER + INTRA:          -5.517
REMARK INTER:                  -5.388
REMARK INTRA:                  -0.129
REMARK UNBOUND:                -0.145
REMARK  Name = 1550473
REMARK  2 active torsions:
REMARK  status: ('A' for Active; 'I' for Inactive)
REMARK    1  A    between atoms: N_1  and  C_4
REMARK    2  A    between atoms: C_4  and  C_5
REMARK                            x       y       z     vdW  Elec       q    Type
REMARK                         _______ _______ _______ _____ _____    ______ ____
ROOT
ATOM      1  N   UNL     1       6.202  10.053  11.477  0.00  0.00    -0.354 N 
ATOM      2  N   UNL     1       7.589  11.307  12.844  0.00  0.00    -0.372 N 
ATOM      3  N   UNL     1       6.487   9.503  13.737  0.00  0.00    -0.372 N 
ATOM      4  C   UNL     1       6.750  10.278  12.679  0.00  0.00    +0.166 C 
ATOM      5  H   UNL     1       6.418  10.694  10.722  0.00  0.00    +0.163 HD
ATOM      6  H   UNL     1       8.020  11.499  13.738  0.00  0.00    +0.159 HD
ATOM      7  H   UNL     1       7.839  11.919  12.077  0.00  0.00    +0.159 HD
ATOM      8  H   UNL     1       5.857   8.714  13.680  0.00  0.00    +0.159 HD
ATOM      9  H   UNL     1       6.900   9.687  14.643  0.00  0.00    +0.159 HD
ENDROOT
BRANCH   1  10
ATOM     10  C   UNL     1       5.318   8.928  11.179  0.00  0.00    +0.151 C 
BRANCH  10  11
ATOM     11  C   UNL     1       5.401   8.613   9.710  0.00  0.00    -0.028 A 
ATOM     12  C   UNL     1       4.538   7.670   9.134  0.00  0.00    +0.005 A 
ATOM     13  C   UNL     1       6.338   9.260   8.889  0.00  0.00    +0.005 A 
ATOM     14  C   UNL     1       4.595   7.399   7.765  0.00  0.00    +0.000 A 
ATOM     15  C   UNL     1       6.392   8.986   7.522  0.00  0.00    +0.000 A 
ATOM     16  C   UNL     1       5.519   8.058   6.960  0.00  0.00    +0.000 A 
ENDBRANCH  10  11
ENDBRANCH   1  10
TORSDOF 2
ENDMDL
MODEL 5
REMARK VINA RESULT:    -4.803      9.970     11.116
REMARK INTER + INTRA:          -5.510
REMARK INTER:                  -5.396
REMARK INTRA:                  -0.114
REMARK UNBOUND:                -0.145
REMARK  Name = 1550473
REMARK  2 active torsions:
REMARK  status: ('A' for Active; 'I' for Inactive)
REMARK    1  A    between atoms: N_1  and  C_4
REMARK    2  A    between atoms: C_4  and  C_5
REMARK                            x       y       z     vdW  Elec       q    Type
REMARK                         _______ _______ _______ _____ _____    ______ ____
ROOT
ATOM      1  N   UNL     1       1.837   1.315  25.405  0.00  0.00    -0.354 N 
ATOM      2  N   UNL     1      -0.445   1.058  25.102  0.00  0.00    -0.372 N 
ATOM      3  N   UNL     1       0.969  -0.570  24.316  0.00  0.00    -0.372 N 
ATOM      4  C   UNL     1       0.803   0.601  24.941  0.00  0.00    +0.166 C 
ATOM      5  H   UNL     1       1.646   2.209  25.843  0.00  0.00    +0.163 HD
ATOM      6  H   UNL     1      -1.245   0.539  24.766  0.00  0.00    +0.159 HD
ATOM      7  H   UNL     1      -0.635   1.930  25.581  0.00  0.00    +0.159 HD
ATOM      8  H   UNL     1       1.885  -0.967  24.158  0.00  0.00    +0.159 HD
ATOM      9  H   UNL     1       0.181  -1.098  23.962  0.00  0.00    +0.159 HD
ENDROOT
BRANCH   1  10
ATOM     10  C   UNL     1       3.231   0.881  25.329  0.00  0.00    +0.151 C 
BRANCH  10  11
ATOM     11  C   UNL     1       4.126   2.087  25.401  0.00  0.00    -0.028 A 
ATOM     12  C   UNL     1       3.961   3.151  24.502  0.00  0.00    +0.005 A 
ATOM     13  C   UNL     1       5.138   2.174  26.370  0.00  0.00    +0.005 A 
ATOM     14  C   UNL     1       4.773   4.285  24.588  0.00  0.00    +0.000 A 
ATOM     15  C   UNL     1       5.946   3.307  26.452  0.00  0.00    +0.000 A 
ATOM     16  C   UNL     1       5.762   4.363  25.563  0.00  0.00    +0.000 A 
ENDBRANCH  10  11
ENDBRANCH   1  10
TORSDOF 2
ENDMDL
MODEL 6
REMARK VINA RESULT:    -4.749     15.756     18.341
REMARK INTER + INTRA:          -5.449
REMARK INTER:                  -5.329
REMARK INTRA:                  -0.120
REMARK UNBOUND:                -0.145
REMARK  Name = 1550473
REMARK  2 active torsions:
REMARK  status: ('A' for Active; 'I' for Inactive)
REMARK    1  A    between atoms: N_1  and  C_4
REMARK    2  A    between atoms: C_4  and  C_5
REMARK                            x       y       z     vdW  Elec       q    Type
REMARK                         _______ _______ _______ _____ _____    ______ ____
ROOT
ATOM      1  N   UNL     1       1.579   0.341  20.545  0.00  0.00    -0.354 N 
ATOM      2  N   UNL     1       0.995   1.681  22.341  0.00  0.00    -0.372 N 
ATOM      3  N   UNL     1       3.105   0.782  22.268  0.00  0.00    -0.372 N 
ATOM      4  C   UNL     1       1.899   0.925  21.707  0.00  0.00    +0.166 C 
ATOM      5  H   UNL     1       0.638   0.463  20.188  0.00  0.00    +0.163 HD
ATOM      6  H   UNL     1       1.209   2.138  23.217  0.00  0.00    +0.159 HD
ATOM      7  H   UNL     1       0.070   1.840  21.958  0.00  0.00    +0.159 HD
ATOM      8  H   UNL     1       3.830   0.220  21.843  0.00  0.00    +0.159 HD
ATOM      9  H   UNL     1       3.334   1.222  23.151  0.00  0.00    +0.159 HD
ENDROOT
BRANCH   1  10
ATOM     10  C   UNL     1       2.508  -0.459  19.748  0.00  0.00    +0.151 C 
BRANCH  10  11
ATOM     11  C   UNL     1       1.839  -0.850  18.459  0.00  0.00    -0.028 A 
ATOM     12  C   UNL     1       0.784  -0.083  17.944  0.00  0.00    +0.005 A 
ATOM     13  C   UNL     1       2.260  -1.982  17.746  0.00  0.00    +0.005 A 
ATOM     14  C   UNL     1       0.182  -0.428  16.731  0.00  0.00    +0.000 A 
ATOM     15  C   UNL     1       1.656  -2.324  16.536  0.00  0.00    +0.000 A 
ATOM     16  C   UNL     1       0.619  -1.546  16.028  0.00  0.00    +0.000 A 
ENDBRANCH  10  11
ENDBRANCH   1  10
TORSDOF 2
ENDMDL
MODEL 7
REMARK VINA RESULT:    -4.463     22.329     24.817
REMARK INTER + INTRA:          -5.130
REMARK INTER:                  -4.956
REMARK INTRA:                  -0.174
REMARK UNBOUND:                -0.145
REMARK  Name = 1550473
REMARK  2 active torsions:
REMARK  status: ('A' for Active; 'I' for Inactive)
REMARK    1  A    between atoms: N_1  and  C_4
REMARK    2  A    between atoms: C_4  and  C_5
REMARK                            x       y       z     vdW  Elec       q    Type
REMARK                         _______ _______ _______ _____ _____    ______ ____
ROOT
ATOM      1  N   UNL     1      -1.290  -2.214  14.608  0.00  0.00    -0.354 N 
ATOM      2  N   UNL     1       0.236  -2.830  16.237  0.00  0.00    -0.372 N 
ATOM      3  N   UNL     1       0.293  -0.688  15.418  0.00  0.00    -0.372 N 
ATOM      4  C   UNL     1      -0.263  -1.904  15.410  0.00  0.00    +0.166 C 
ATOM      5  H   UNL     1      -1.647  -3.162  14.627  0.00  0.00    +0.163 HD
ATOM      6  H   UNL     1       1.008  -2.625  16.857  0.00  0.00    +0.159 HD
ATOM      7  H   UNL     1      -0.153  -3.764  16.288  0.00  0.00    +0.159 HD
ATOM      8  H   UNL     1      -0.033   0.054  14.813  0.00  0.00    +0.159 HD
ATOM      9  H   UNL     1       1.074  -0.466  16.022  0.00  0.00    +0.159 HD
ENDROOT
BRANCH   1  10
ATOM     10  C   UNL     1      -1.941  -1.262  13.708  0.00  0.00    +0.151 C 
BRANCH  10  11
ATOM     11  C   UNL     1      -1.340  -1.394  12.336  0.00  0.00    -0.028 A 
ATOM     12  C   UNL     1      -1.482  -2.584  11.608  0.00  0.00    +0.005 A 
ATOM     13  C   UNL     1      -0.633  -0.329  11.756  0.00  0.00    +0.005 A 
ATOM     14  C   UNL     1      -0.950  -2.695  10.321  0.00  0.00    +0.000 A 
ATOM     15  C   UNL     1      -0.102  -0.445  10.472  0.00  0.00    +0.000 A 
ATOM     16  C   UNL     1      -0.263  -1.627   9.753  0.00  0.00    +0.000 A 
ENDBRANCH  10  11
ENDBRANCH   1  10
TORSDOF 2
ENDMDL
MODEL 8
REMARK VINA RESULT:    -4.441     66.004     67.212
REMARK INTER + INTRA:          -5.105
REMARK INTER:                  -4.950
REMARK INTRA:                  -0.155
REMARK UNBOUND:                -0.145
REMARK  Name = 1550473
REMARK  2 active torsions:
REMARK  status: ('A' for Active; 'I' for Inactive)
REMARK    1  A    between atoms: N_1  and  C_4
REMARK    2  A    between atoms: C_4  and  C_5
REMARK                            x       y       z     vdW  Elec       q    Type
REMARK                         _______ _______ _______ _____ _____    ______ ____
ROOT
ATOM      1  N   UNL     1     -13.554  13.198 -28.537  0.00  0.00    -0.354 N 
ATOM      2  N   UNL     1     -12.942  11.064 -27.875  0.00  0.00    -0.372 N 
ATOM      3  N   UNL     1     -11.298  12.601 -28.320  0.00  0.00    -0.372 N 
ATOM      4  C   UNL     1     -12.600  12.303 -28.249  0.00  0.00    +0.166 C 
ATOM      5  H   UNL     1     -14.522  12.900 -28.493  0.00  0.00    +0.163 HD
ATOM      6  H   UNL     1     -12.245  10.368 -27.649  0.00  0.00    +0.159 HD
ATOM      7  H   UNL     1     -13.911  10.783 -27.788  0.00  0.00    +0.159 HD
ATOM      8  H   UNL     1     -10.973  13.517 -28.602  0.00  0.00    +0.159 HD
ATOM      9  H   UNL     1     -10.584  11.915 -28.109  0.00  0.00    +0.159 HD
ENDROOT
BRANCH   1  10
ATOM     10  C   UNL     1     -13.288  14.588 -28.902  0.00  0.00    +0.151 C 
BRANCH  10  11
ATOM     11  C   UNL     1     -13.554  15.468 -27.712  0.00  0.00    -0.028 A 
ATOM     12  C   UNL     1     -14.770  16.156 -27.593  0.00  0.00    +0.005 A 
ATOM     13  C   UNL     1     -12.596  15.612 -26.696  0.00  0.00    +0.005 A 
ATOM     14  C   UNL     1     -15.029  16.950 -26.472  0.00  0.00    +0.000 A 
ATOM     15  C   UNL     1     -12.858  16.406 -25.580  0.00  0.00    +0.000 A 
ATOM     16  C   UNL     1     -14.076  17.073 -25.467  0.00  0.00    +0.000 A 
ENDBRANCH  10  11
ENDBRANCH   1  10
TORSDOF 2
ENDMDL
MODEL 9
REMARK VINA RESULT:    -4.296     67.466     68.849
REMARK INTER + INTRA:          -4.943
REMARK INTER:                  -4.828
REMARK INTRA:                  -0.115
REMARK UNBOUND:                -0.145
REMARK  Name = 1550473
REMARK  2 active torsions:
REMARK  status: ('A' for Active; 'I' for Inactive)
REMARK    1  A    between atoms: N_1  and  C_4
REMARK    2  A    between atoms: C_4  and  C_5
REMARK                            x       y       z     vdW  Elec       q    Type
REMARK                         _______ _______ _______ _____ _____    ______ ____
ROOT
ATOM      1  N   UNL     1     -12.329  13.168 -28.956  0.00  0.00    -0.354 N 
ATOM      2  N   UNL     1     -11.689  11.039 -29.604  0.00  0.00    -0.372 N 
ATOM      3  N   UNL     1     -12.942  11.288 -27.698  0.00  0.00    -0.372 N 
ATOM      4  C   UNL     1     -12.325  11.845 -28.746  0.00  0.00    +0.166 C 
ATOM      5  H   UNL     1     -11.818  13.531 -29.752  0.00  0.00    +0.163 HD
ATOM      6  H   UNL     1     -11.671  10.037 -29.473  0.00  0.00    +0.159 HD
ATOM      7  H   UNL     1     -11.217  11.400 -30.424  0.00  0.00    +0.159 HD
ATOM      8  H   UNL     1     -13.435  11.842 -27.011  0.00  0.00    +0.159 HD
ATOM      9  H   UNL     1     -12.926  10.288 -27.544  0.00  0.00    +0.159 HD
ENDROOT
BRANCH   1  10
ATOM     10  C   UNL     1     -13.038  14.128 -28.111  0.00  0.00    +0.151 C 
BRANCH  10  11
ATOM     11  C   UNL     1     -13.346  15.359 -28.918  0.00  0.00    -0.028 A 
ATOM     12  C   UNL     1     -12.436  15.828 -29.877  0.00  0.00    +0.005 A 
ATOM     13  C   UNL     1     -14.548  16.059 -28.732  0.00  0.00    +0.005 A 
ATOM     14  C   UNL     1     -12.734  16.954 -30.648  0.00  0.00    +0.000 A 
ATOM     15  C   UNL     1     -14.842  17.183 -29.503  0.00  0.00    +0.000 A 
ATOM     16  C   UNL     1     -13.936  17.629 -30.463  0.00  0.00    +0.000 A 
ENDBRANCH  10  11
ENDBRANCH   1  10
TORSDOF 2
ENDMDL
