MODEL 1
REMARK VINA RESULT:    -5.432      0.000      0.000
REMARK INTER + INTRA:          -6.233
REMARK INTER:                  -6.067
REMARK INTRA:                  -0.166
REMARK UNBOUND:                -0.166
REMARK  Name = 1550473
REMARK  2 active torsions:
REMARK  status: ('A' for Active; 'I' for Inactive)
REMARK    1  A    between atoms: N_1  and  C_4
REMARK    2  A    between atoms: C_4  and  C_5
REMARK                            x       y       z     vdW  Elec       q    Type
REMARK                         _______ _______ _______ _____ _____    ______ ____
ROOT
ATOM      1  N   UNL     1       7.182 -12.677   0.844  0.00  0.00    -0.354 N 
ATOM      2  N   UNL     1       5.138 -13.130   1.835  0.00  0.00    -0.372 N 
ATOM      3  N   UNL     1       6.631 -11.782   2.939  0.00  0.00    -0.372 N 
ATOM      4  C   UNL     1       6.332 -12.525   1.868  0.00  0.00    +0.166 C 
ATOM      5  H   UNL     1       6.908 -13.278   0.076  0.00  0.00    +0.163 HD
ATOM      6  H   UNL     1       4.474 -13.031   2.591  0.00  0.00    +0.159 HD
ATOM      7  H   UNL     1       4.848 -13.692   1.044  0.00  0.00    +0.159 HD
ATOM      8  H   UNL     1       7.518 -11.304   3.028  0.00  0.00    +0.159 HD
ATOM      9  H   UNL     1       5.984 -11.680   3.711  0.00  0.00    +0.159 HD
ENDROOT
BRANCH   1  10
ATOM     10  C   UNL     1       8.484 -12.018   0.758  0.00  0.00    +0.151 C 
BRANCH  10  11
ATOM     11  C   UNL     1       8.408 -10.910  -0.256  0.00  0.00    -0.028 A 
ATOM     12  C   UNL     1       8.883 -11.105  -1.561  0.00  0.00    +0.005 A 
ATOM     13  C   UNL     1       7.857  -9.664   0.081  0.00  0.00    +0.005 A 
ATOM     14  C   UNL     1       8.785 -10.086  -2.511  0.00  0.00    +0.000 A 
ATOM     15  C   UNL     1       7.762  -8.649  -0.871  0.00  0.00    +0.000 A 
ATOM     16  C   UNL     1       8.224  -8.861  -2.167  0.00  0.00    +0.000 A 
ENDBRANCH  10  11
ENDBRANCH   1  10
TORSDOF 2
ENDMDL
MODEL 2
REMARK VINA RESULT:    -5.267      4.654      5.727
REMARK INTER + INTRA:          -6.049
REMARK INTER:                  -5.913
REMARK INTRA:                  -0.137
REMARK UNBOUND:                -0.166
REMARK  Name = 1550473
REMARK  2 active torsions:
REMARK  status: ('A' for Active; 'I' for Inactive)
REMARK    1  A    between atoms: N_1  and  C_4
REMARK    2  A    between atoms: C_4  and  C_5
REMARK                            x       y       z     vdW  Elec       q    Type
REMARK                         _______ _______ _______ _____ _____    ______ ____
ROOT
ATOM      1  N   UNL     1       7.462  -7.450  -3.970  0.00  0.00    -0.354 N 
ATOM      2  N   UNL     1       5.554  -7.132  -5.242  0.00  0.00    -0.372 N 
ATOM      3  N   UNL     1       5.849  -5.867  -3.350  0.00  0.00    -0.372 N 
ATOM      4  C   UNL     1       6.300  -6.817  -4.177  0.00  0.00    +0.166 C 
ATOM      5  H   UNL     1       7.734  -8.182  -4.617  0.00  0.00    +0.163 HD
ATOM      6  H   UNL     1       4.674  -6.668  -5.427  0.00  0.00    +0.159 HD
ATOM      7  H   UNL     1       5.850  -7.831  -5.913  0.00  0.00    +0.159 HD
ATOM      8  H   UNL     1       6.362  -5.588  -2.525  0.00  0.00    +0.159 HD
ATOM      9  H   UNL     1       4.965  -5.401  -3.512  0.00  0.00    +0.159 HD
ENDROOT
BRANCH   1  10
ATOM     10  C   UNL     1       8.375  -7.145  -2.870  0.00  0.00    +0.151 C 
BRANCH  10  11
ATOM     11  C   UNL     1       8.959  -8.427  -2.345  0.00  0.00    -0.028 A 
ATOM     12  C   UNL     1       8.292  -9.645  -2.540  0.00  0.00    +0.005 A 
ATOM     13  C   UNL     1      10.183  -8.432  -1.658  0.00  0.00    +0.005 A 
ATOM     14  C   UNL     1       8.849 -10.841  -2.079  0.00  0.00    +0.000 A 
ATOM     15  C   UNL     1      10.735  -9.628  -1.199  0.00  0.00    +0.000 A 
ATOM     16  C   UNL     1      10.069 -10.832  -1.412  0.00  0.00    +0.000 A 
ENDBRANCH  10  11
ENDBRANCH   1  10
TORSDOF 2
ENDMDL
MODEL 3
REMARK VINA RESULT:    -5.024      4.484      5.624
REMARK INTER + INTRA:          -5.778
REMARK INTER:                  -5.662
REMARK INTRA:                  -0.116
REMARK UNBOUND:                -0.166
REMARK  Name = 1550473
REMARK  2 active torsions:
REMARK  status: ('A' for Active; 'I' for Inactive)
REMARK    1  A    between atoms: N_1  and  C_4
REMARK    2  A    between atoms: C_4  and  C_5
REMARK                            x       y       z     vdW  Elec       q    Type
REMARK                         _______ _______ _______ _____ _____    ______ ____
ROOT
ATOM      1  N   UNL     1       7.434  -6.548  -3.134  0.00  0.00    -0.354 N 
ATOM      2  N   UNL     1       5.533  -5.253  -2.867  0.00  0.00    -0.372 N 
ATOM      3  N   UNL     1       7.383  -4.784  -1.592  0.00  0.00    -0.372 N 
ATOM      4  C   UNL     1       6.797  -5.536  -2.530  0.00  0.00    +0.166 C 
ATOM      5  H   UNL     1       6.925  -7.099  -3.816  0.00  0.00    +0.163 HD
ATOM      6  H   UNL     1       5.028  -4.493  -2.431  0.00  0.00    +0.159 HD
ATOM      7  H   UNL     1       5.042  -5.776  -3.581  0.00  0.00    +0.159 HD
ATOM      8  H   UNL     1       8.333  -4.950  -1.289  0.00  0.00    +0.159 HD
ATOM      9  H   UNL     1       6.890  -4.027  -1.136  0.00  0.00    +0.159 HD
ENDROOT
BRANCH   1  10
ATOM     10  C   UNL     1       8.829  -6.905  -2.879  0.00  0.00    +0.151 C 
BRANCH  10  11
ATOM     11  C   UNL     1       8.883  -8.291  -2.298  0.00  0.00    -0.028 A 
ATOM     12  C   UNL     1      10.091  -9.004  -2.268  0.00  0.00    +0.005 A 
ATOM     13  C   UNL     1       7.731  -8.894  -1.770  0.00  0.00    +0.005 A 
ATOM     14  C   UNL     1      10.148 -10.279  -1.701  0.00  0.00    +0.000 A 
ATOM     15  C   UNL     1       7.793 -10.168  -1.205  0.00  0.00    +0.000 A 
ATOM     16  C   UNL     1       9.001 -10.859  -1.169  0.00  0.00    +0.000 A 
ENDBRANCH  10  11
ENDBRANCH   1  10
TORSDOF 2
ENDMDL
MODEL 4
REMARK VINA RESULT:    -4.867     25.946     26.918
REMARK INTER + INTRA:          -5.602
REMARK INTER:                  -5.470
REMARK INTRA:                  -0.132
REMARK UNBOUND:                -0.166
REMARK  Name = 1550473
REMARK  2 active torsions:
REMARK  status: ('A' for Active; 'I' for Inactive)
REMARK    1  A    between atoms: N_1  and  C_4
REMARK    2  A    between atoms: C_4  and  C_5
REMARK                            x       y       z     vdW  Elec       q    Type
REMARK                         _______ _______ _______ _____ _____    ______ ____
ROOT
ATOM      1  N   UNL     1     -14.874   2.958  -5.786  0.00  0.00    -0.354 N 
ATOM      2  N   UNL     1     -13.807   4.577  -4.519  0.00  0.00    -0.372 N 
ATOM      3  N   UNL     1     -13.875   4.820  -6.800  0.00  0.00    -0.372 N 
ATOM      4  C   UNL     1     -14.192   4.109  -5.713  0.00  0.00    +0.166 C 
ATOM      5  H   UNL     1     -15.056   2.451  -4.927  0.00  0.00    +0.163 HD
ATOM      6  H   UNL     1     -13.294   5.445  -4.432  0.00  0.00    +0.159 HD
ATOM      7  H   UNL     1     -14.031   4.092  -3.659  0.00  0.00    +0.159 HD
ATOM      8  H   UNL     1     -14.131   4.518  -7.731  0.00  0.00    +0.159 HD
ATOM      9  H   UNL     1     -13.352   5.684  -6.734  0.00  0.00    +0.159 HD
ENDROOT
BRANCH   1  10
ATOM     10  C   UNL     1     -15.386   2.389  -7.031  0.00  0.00    +0.151 C 
BRANCH  10  11
ATOM     11  C   UNL     1     -15.322   0.889  -6.948  0.00  0.00    -0.028 A 
ATOM     12  C   UNL     1     -14.977   0.256  -5.744  0.00  0.00    +0.005 A 
ATOM     13  C   UNL     1     -15.612   0.094  -8.067  0.00  0.00    +0.005 A 
ATOM     14  C   UNL     1     -14.947  -1.138  -5.658  0.00  0.00    +0.000 A 
ATOM     15  C   UNL     1     -15.581  -1.298  -7.978  0.00  0.00    +0.000 A 
ATOM     16  C   UNL     1     -15.251  -1.913  -6.772  0.00  0.00    +0.000 A 
ENDBRANCH  10  11
ENDBRANCH   1  10
TORSDOF 2
ENDMDL
MODEL 5
REMARK VINA RESULT:    -4.759      4.464      5.622
REMARK INTER + INTRA:          -5.482
REMARK INTER:                  -5.354
REMARK INTRA:                  -0.128
REMARK UNBOUND:                -0.166
REMARK  Name = 1550473
REMARK  2 active torsions:
REMARK  status: ('A' for Active; 'I' for Inactive)
REMARK    1  A    between atoms: N_1  and  C_4
REMARK    2  A    between atoms: C_4  and  C_5
REMARK                            x       y       z     vdW  Elec       q    Type
REMARK                         _______ _______ _______ _____ _____    ______ ____
ROOT
ATOM      1  N   UNL     1       9.783  -6.797  -1.449  0.00  0.00    -0.354 N 
ATOM      2  N   UNL     1       9.964  -4.830  -0.239  0.00  0.00    -0.372 N 
ATOM      3  N   UNL     1       8.055  -5.215  -1.452  0.00  0.00    -0.372 N 
ATOM      4  C   UNL     1       9.264  -5.626  -1.056  0.00  0.00    +0.166 C 
ATOM      5  H   UNL     1      10.717  -7.037  -1.138  0.00  0.00    +0.163 HD
ATOM      6  H   UNL     1       9.596  -3.943   0.078  0.00  0.00    +0.159 HD
ATOM      7  H   UNL     1      10.878  -5.094   0.107  0.00  0.00    +0.159 HD
ATOM      8  H   UNL     1       7.478  -5.766  -2.073  0.00  0.00    +0.159 HD
ATOM      9  H   UNL     1       7.674  -4.324  -1.155  0.00  0.00    +0.159 HD
ENDROOT
BRANCH   1  10
ATOM     10  C   UNL     1       9.081  -7.760  -2.295  0.00  0.00    +0.151 C 
BRANCH  10  11
ATOM     11  C   UNL     1       9.469  -9.153  -1.879  0.00  0.00    -0.028 A 
ATOM     12  C   UNL     1       8.698 -10.255  -2.277  0.00  0.00    +0.005 A 
ATOM     13  C   UNL     1      10.609  -9.377  -1.093  0.00  0.00    +0.005 A 
ATOM     14  C   UNL     1       9.075 -11.551  -1.917  0.00  0.00    +0.000 A 
ATOM     15  C   UNL     1      10.982 -10.672  -0.734  0.00  0.00    +0.000 A 
ATOM     16  C   UNL     1      10.216 -11.759  -1.149  0.00  0.00    +0.000 A 
ENDBRANCH  10  11
ENDBRANCH   1  10
TORSDOF 2
ENDMDL
MODEL 6
REMARK VINA RESULT:    -4.738      2.600      3.786
REMARK INTER + INTRA:          -5.459
REMARK INTER:                  -5.326
REMARK INTRA:                  -0.132
REMARK UNBOUND:                -0.166
REMARK  Name = 1550473
REMARK  2 active torsions:
REMARK  status: ('A' for Active; 'I' for Inactive)
REMARK    1  A    between atoms: N_1  and  C_4
REMARK    2  A    between atoms: C_4  and  C_5
REMARK                            x       y       z     vdW  Elec       q    Type
REMARK                         _______ _______ _______ _____ _____    ______ ____
ROOT
ATOM      1  N   UNL     1       9.299 -10.336  -0.606  0.00  0.00    -0.354 N 
ATOM      2  N   UNL     1      10.781 -11.841   0.345  0.00  0.00    -0.372 N 
ATOM      3  N   UNL     1       8.893 -12.643  -0.683  0.00  0.00    -0.372 N 
ATOM      4  C   UNL     1       9.646 -11.599  -0.322  0.00  0.00    +0.166 C 
ATOM      5  H   UNL     1       9.897  -9.587  -0.277  0.00  0.00    +0.163 HD
ATOM      6  H   UNL     1      11.071 -12.783   0.570  0.00  0.00    +0.159 HD
ATOM      7  H   UNL     1      11.401 -11.092   0.631  0.00  0.00    +0.159 HD
ATOM      8  H   UNL     1       8.022 -12.528  -1.183  0.00  0.00    +0.159 HD
ATOM      9  H   UNL     1       9.160 -13.593  -0.456  0.00  0.00    +0.159 HD
ENDROOT
BRANCH   1  10
ATOM     10  C   UNL     1       8.110  -9.968  -1.373  0.00  0.00    +0.151 C 
BRANCH  10  11
ATOM     11  C   UNL     1       8.400  -8.718  -2.158  0.00  0.00    -0.028 A 
ATOM     12  C   UNL     1       7.380  -8.073  -2.871  0.00  0.00    +0.005 A 
ATOM     13  C   UNL     1       9.692  -8.172  -2.188  0.00  0.00    +0.005 A 
ATOM     14  C   UNL     1       7.642  -6.895  -3.576  0.00  0.00    +0.000 A 
ATOM     15  C   UNL     1       9.950  -6.997  -2.894  0.00  0.00    +0.000 A 
ATOM     16  C   UNL     1       8.924  -6.357  -3.585  0.00  0.00    +0.000 A 
ENDBRANCH  10  11
ENDBRANCH   1  10
TORSDOF 2
ENDMDL
MODEL 7
REMARK VINA RESULT:    -4.593     20.237     21.113
REMARK INTER + INTRA:          -5.296
REMARK INTER:                  -5.157
REMARK INTRA:                  -0.139
REMARK UNBOUND:                -0.166
REMARK  Name = 1550473
REMARK  2 active torsions:
REMARK  status: ('A' for Active; 'I' for Inactive)
REMARK    1  A    between atoms: N_1  and  C_4
REMARK    2  A    between atoms: C_4  and  C_5
REMARK                            x       y       z     vdW  Elec       q    Type
REMARK                         _______ _______ _______ _____ _____    ______ ____
ROOT
ATOM      1  N   UNL     1       4.866   6.819 -10.876  0.00  0.00    -0.354 N 
ATOM      2  N   UNL     1       3.242   7.561 -12.351  0.00  0.00    -0.372 N 
ATOM      3  N   UNL     1       2.643   6.103 -10.683  0.00  0.00    -0.372 N 
ATOM      4  C   UNL     1       3.593   6.821 -11.292  0.00  0.00    +0.166 C 
ATOM      5  H   UNL     1       5.544   7.361 -11.399  0.00  0.00    +0.163 HD
ATOM      6  H   UNL     1       2.288   7.585 -12.686  0.00  0.00    +0.159 HD
ATOM      7  H   UNL     1       3.913   8.138 -12.844  0.00  0.00    +0.159 HD
ATOM      8  H   UNL     1       2.844   5.519  -9.883  0.00  0.00    +0.159 HD
ATOM      9  H   UNL     1       1.685   6.104 -11.011  0.00  0.00    +0.159 HD
ENDROOT
BRANCH   1  10
ATOM     10  C   UNL     1       5.342   6.090  -9.702  0.00  0.00    +0.151 C 
BRANCH  10  11
ATOM     11  C   UNL     1       5.845   7.074  -8.683  0.00  0.00    -0.028 A 
ATOM     12  C   UNL     1       5.003   8.082  -8.190  0.00  0.00    +0.005 A 
ATOM     13  C   UNL     1       7.161   7.001  -8.202  0.00  0.00    +0.005 A 
ATOM     14  C   UNL     1       5.461   8.978  -7.221  0.00  0.00    +0.000 A 
ATOM     15  C   UNL     1       7.615   7.899  -7.235  0.00  0.00    +0.000 A 
ATOM     16  C   UNL     1       6.764   8.886  -6.743  0.00  0.00    +0.000 A 
ENDBRANCH  10  11
ENDBRANCH   1  10
TORSDOF 2
ENDMDL
MODEL 8
REMARK VINA RESULT:    -4.464     24.006     24.903
REMARK INTER + INTRA:          -5.152
REMARK INTER:                  -5.023
REMARK INTRA:                  -0.129
REMARK UNBOUND:                -0.166
REMARK  Name = 1550473
REMARK  2 active torsions:
REMARK  status: ('A' for Active; 'I' for Inactive)
REMARK    1  A    between atoms: N_1  and  C_4
REMARK    2  A    between atoms: C_4  and  C_5
REMARK                            x       y       z     vdW  Elec       q    Type
REMARK                         _______ _______ _______ _____ _____    ______ ____
ROOT
ATOM      1  N   UNL     1     -14.623  -3.458  -4.002  0.00  0.00    -0.354 N 
ATOM      2  N   UNL     1     -14.989  -4.035  -1.789  0.00  0.00    -0.372 N 
ATOM      3  N   UNL     1     -15.436  -5.580  -3.426  0.00  0.00    -0.372 N 
ATOM      4  C   UNL     1     -15.015  -4.356  -3.088  0.00  0.00    +0.166 C 
ATOM      5  H   UNL     1     -14.344  -2.538  -3.683  0.00  0.00    +0.163 HD
ATOM      6  H   UNL     1     -15.276  -4.693  -1.076  0.00  0.00    +0.159 HD
ATOM      7  H   UNL     1     -14.666  -3.130  -1.470  0.00  0.00    +0.159 HD
ATOM      8  H   UNL     1     -15.485  -5.882  -4.390  0.00  0.00    +0.159 HD
ATOM      9  H   UNL     1     -15.738  -6.248  -2.728  0.00  0.00    +0.159 HD
ENDROOT
BRANCH   1  10
ATOM     10  C   UNL     1     -14.562  -3.726  -5.437  0.00  0.00    +0.151 C 
BRANCH  10  11
ATOM     11  C   UNL     1     -14.919  -2.472  -6.187  0.00  0.00    -0.028 A 
ATOM     12  C   UNL     1     -14.862  -1.223  -5.552  0.00  0.00    +0.005 A 
ATOM     13  C   UNL     1     -15.309  -2.526  -7.534  0.00  0.00    +0.005 A 
ATOM     14  C   UNL     1     -15.164  -0.055  -6.256  0.00  0.00    +0.000 A 
ATOM     15  C   UNL     1     -15.610  -1.357  -8.233  0.00  0.00    +0.000 A 
ATOM     16  C   UNL     1     -15.536  -0.122  -7.595  0.00  0.00    +0.000 A 
ENDBRANCH  10  11
ENDBRANCH   1  10
TORSDOF 2
ENDMDL
MODEL 9
REMARK VINA RESULT:    -4.177     19.770     20.698
REMARK INTER + INTRA:          -4.831
REMARK INTER:                  -4.735
REMARK INTRA:                  -0.096
REMARK UNBOUND:                -0.166
REMARK  Name = 1550473
REMARK  2 active torsions:
REMARK  status: ('A' for Active; 'I' for Inactive)
REMARK    1  A    between atoms: N_1  and  C_4
REMARK    2  A    between atoms: C_4  and  C_5
REMARK                            x       y       z     vdW  Elec       q    Type
REMARK                         _______ _______ _______ _____ _____    ______ ____
ROOT
ATOM      1  N   UNL     1       4.940   6.930  -8.782  0.00  0.00    -0.354 N 
ATOM      2  N   UNL     1       3.691   5.330  -9.896  0.00  0.00    -0.372 N 
ATOM      3  N   UNL     1       3.610   7.504 -10.624  0.00  0.00    -0.372 N 
ATOM      4  C   UNL     1       4.088   6.601  -9.761  0.00  0.00    +0.166 C 
ATOM      5  H   UNL     1       5.242   6.204  -8.142  0.00  0.00    +0.163 HD
ATOM      6  H   UNL     1       3.051   5.051 -10.627  0.00  0.00    +0.159 HD
ATOM      7  H   UNL     1       4.030   4.598  -9.283  0.00  0.00    +0.159 HD
ATOM      8  H   UNL     1       3.866   8.481 -10.572  0.00  0.00    +0.159 HD
ATOM      9  H   UNL     1       2.960   7.247 -11.355  0.00  0.00    +0.159 HD
ENDROOT
BRANCH   1  10
ATOM     10  C   UNL     1       5.476   8.275  -8.582  0.00  0.00    +0.151 C 
BRANCH  10  11
ATOM     11  C   UNL     1       6.417   8.260  -7.409  0.00  0.00    -0.028 A 
ATOM     12  C   UNL     1       6.084   8.927  -6.221  0.00  0.00    +0.005 A 
ATOM     13  C   UNL     1       7.640   7.575  -7.477  0.00  0.00    +0.005 A 
ATOM     14  C   UNL     1       6.944   8.888  -5.120  0.00  0.00    +0.000 A 
ATOM     15  C   UNL     1       8.496   7.540  -6.376  0.00  0.00    +0.000 A 
ATOM     16  C   UNL     1       8.147   8.194  -5.198  0.00  0.00    +0.000 A 
ENDBRANCH  10  11
ENDBRANCH   1  10
TORSDOF 2
ENDMDL
