MODEL 1
REMARK VINA RESULT:    -5.366      0.000      0.000
REMARK INTER + INTRA:          -6.107
REMARK INTER:                  -5.994
REMARK INTRA:                  -0.113
REMARK UNBOUND:                -0.113
REMARK  Name = 1550473
REMARK  2 active torsions:
REMARK  status: ('A' for Active; 'I' for Inactive)
REMARK    1  A    between atoms: N_1  and  C_4
REMARK    2  A    between atoms: C_4  and  C_5
REMARK                            x       y       z     vdW  Elec       q    Type
REMARK                         _______ _______ _______ _____ _____    ______ ____
ROOT
ATOM      1  N   UNL     1      -1.286   8.598   2.460  0.00  0.00    -0.354 N 
ATOM      2  N   UNL     1      -0.031   9.203   4.311  0.00  0.00    -0.372 N 
ATOM      3  N   UNL     1      -1.837  10.492   3.726  0.00  0.00    -0.372 N 
ATOM      4  C   UNL     1      -1.061   9.429   3.487  0.00  0.00    +0.166 C 
ATOM      5  H   UNL     1      -0.644   7.828   2.316  0.00  0.00    +0.163 HD
ATOM      6  H   UNL     1       0.161   9.811   5.096  0.00  0.00    +0.159 HD
ATOM      7  H   UNL     1       0.582   8.406   4.191  0.00  0.00    +0.159 HD
ATOM      8  H   UNL     1      -2.626  10.722   3.138  0.00  0.00    +0.159 HD
ATOM      9  H   UNL     1      -1.653  11.119   4.499  0.00  0.00    +0.159 HD
ENDROOT
BRANCH   1  10
ATOM     10  C   UNL     1      -2.412   8.725   1.537  0.00  0.00    +0.151 C 
BRANCH  10  11
ATOM     11  C   UNL     1      -1.943   8.406   0.144  0.00  0.00    -0.028 A 
ATOM     12  C   UNL     1      -1.353   9.397  -0.654  0.00  0.00    +0.005 A 
ATOM     13  C   UNL     1      -2.082   7.112  -0.382  0.00  0.00    +0.005 A 
ATOM     14  C   UNL     1      -0.890   9.093  -1.936  0.00  0.00    +0.000 A 
ATOM     15  C   UNL     1      -1.619   6.813  -1.663  0.00  0.00    +0.000 A 
ATOM     16  C   UNL     1      -1.021   7.803  -2.439  0.00  0.00    +0.000 A 
ENDBRANCH  10  11
ENDBRANCH   1  10
TORSDOF 2
ENDMDL
MODEL 2
REMARK VINA RESULT:    -4.992     16.380     17.084
REMARK INTER + INTRA:          -5.689
REMARK INTER:                  -5.552
REMARK INTRA:                  -0.137
REMARK UNBOUND:                -0.113
REMARK  Name = 1550473
REMARK  2 active torsions:
REMARK  status: ('A' for Active; 'I' for Inactive)
REMARK    1  A    between atoms: N_1  and  C_4
REMARK    2  A    between atoms: C_4  and  C_5
REMARK                            x       y       z     vdW  Elec       q    Type
REMARK                         _______ _______ _______ _____ _____    ______ ____
ROOT
ATOM      1  N   UNL     1       4.021  -1.096 -11.673  0.00  0.00    -0.354 N 
ATOM      2  N   UNL     1       4.829  -2.346  -9.898  0.00  0.00    -0.372 N 
ATOM      3  N   UNL     1       4.418  -3.395 -11.897  0.00  0.00    -0.372 N 
ATOM      4  C   UNL     1       4.417  -2.273 -11.170  0.00  0.00    +0.166 C 
ATOM      5  H   UNL     1       4.015  -0.289 -11.061  0.00  0.00    +0.163 HD
ATOM      6  H   UNL     1       5.137  -3.220  -9.492  0.00  0.00    +0.159 HD
ATOM      7  H   UNL     1       4.866  -1.528  -9.302  0.00  0.00    +0.159 HD
ATOM      8  H   UNL     1       4.113  -3.408 -12.861  0.00  0.00    +0.159 HD
ATOM      9  H   UNL     1       4.711  -4.281 -11.505  0.00  0.00    +0.159 HD
ENDROOT
BRANCH   1  10
ATOM     10  C   UNL     1       3.606  -0.899 -13.060  0.00  0.00    +0.151 C 
BRANCH  10  11
ATOM     11  C   UNL     1       2.156  -0.498 -13.087  0.00  0.00    -0.028 A 
ATOM     12  C   UNL     1       1.188  -1.289 -12.451  0.00  0.00    +0.005 A 
ATOM     13  C   UNL     1       1.746   0.674 -13.741  0.00  0.00    +0.005 A 
ATOM     14  C   UNL     1      -0.155  -0.901 -12.449  0.00  0.00    +0.000 A 
ATOM     15  C   UNL     1       0.405   1.056 -13.738  0.00  0.00    +0.000 A 
ATOM     16  C   UNL     1      -0.545   0.270 -13.090  0.00  0.00    +0.000 A 
ENDBRANCH  10  11
ENDBRANCH   1  10
TORSDOF 2
ENDMDL
MODEL 3
REMARK VINA RESULT:    -4.894     18.796     19.804
REMARK INTER + INTRA:          -5.580
REMARK INTER:                  -5.486
REMARK INTRA:                  -0.094
REMARK UNBOUND:                -0.113
REMARK  Name = 1550473
REMARK  2 active torsions:
REMARK  status: ('A' for Active; 'I' for Inactive)
REMARK    1  A    between atoms: N_1  and  C_4
REMARK    2  A    between atoms: C_4  and  C_5
REMARK                            x       y       z     vdW  Elec       q    Type
REMARK                         _______ _______ _______ _____ _____    ______ ____
ROOT
ATOM      1  N   UNL     1       1.502  -8.722  -8.668  0.00  0.00    -0.354 N 
ATOM      2  N   UNL     1      -0.322  -9.650  -7.583  0.00  0.00    -0.372 N 
ATOM      3  N   UNL     1       1.788 -10.300  -6.959  0.00  0.00    -0.372 N 
ATOM      4  C   UNL     1       1.003  -9.553  -7.743  0.00  0.00    +0.166 C 
ATOM      5  H   UNL     1       0.853  -8.206  -9.251  0.00  0.00    +0.163 HD
ATOM      6  H   UNL     1      -0.727 -10.266  -6.891  0.00  0.00    +0.159 HD
ATOM      7  H   UNL     1      -0.967  -9.099  -8.136  0.00  0.00    +0.159 HD
ATOM      8  H   UNL     1       2.796 -10.277  -7.033  0.00  0.00    +0.159 HD
ATOM      9  H   UNL     1       1.401 -10.931  -6.268  0.00  0.00    +0.159 HD
ENDROOT
BRANCH   1  10
ATOM     10  C   UNL     1       2.930  -8.502  -8.885  0.00  0.00    +0.151 C 
BRANCH  10  11
ATOM     11  C   UNL     1       3.115  -7.275  -9.734  0.00  0.00    -0.028 A 
ATOM     12  C   UNL     1       2.801  -7.300 -11.100  0.00  0.00    +0.005 A 
ATOM     13  C   UNL     1       3.599  -6.081  -9.176  0.00  0.00    +0.005 A 
ATOM     14  C   UNL     1       2.944  -6.152 -11.883  0.00  0.00    +0.000 A 
ATOM     15  C   UNL     1       3.742  -4.937  -9.961  0.00  0.00    +0.000 A 
ATOM     16  C   UNL     1       3.412  -4.972 -11.314  0.00  0.00    +0.000 A 
ENDBRANCH  10  11
ENDBRANCH   1  10
TORSDOF 2
ENDMDL
MODEL 4
REMARK VINA RESULT:    -4.891     15.934     16.595
REMARK INTER + INTRA:          -5.576
REMARK INTER:                  -5.413
REMARK INTRA:                  -0.163
REMARK UNBOUND:                -0.113
REMARK  Name = 1550473
REMARK  2 active torsions:
REMARK  status: ('A' for Active; 'I' for Inactive)
REMARK    1  A    between atoms: N_1  and  C_4
REMARK    2  A    between atoms: C_4  and  C_5
REMARK                            x       y       z     vdW  Elec       q    Type
REMARK                         _______ _______ _______ _____ _____    ______ ____
ROOT
ATOM      1  N   UNL     1      15.002   8.091  -0.263  0.00  0.00    -0.354 N 
ATOM      2  N   UNL     1      15.137   9.465   1.597  0.00  0.00    -0.372 N 
ATOM      3  N   UNL     1      13.099   8.588   1.011  0.00  0.00    -0.372 N 
ATOM      4  C   UNL     1      14.409   8.705   0.770  0.00  0.00    +0.166 C 
ATOM      5  H   UNL     1      15.993   8.245  -0.410  0.00  0.00    +0.163 HD
ATOM      6  H   UNL     1      14.718   9.937   2.387  0.00  0.00    +0.159 HD
ATOM      7  H   UNL     1      16.136   9.579   1.475  0.00  0.00    +0.159 HD
ATOM      8  H   UNL     1      12.493   8.034   0.421  0.00  0.00    +0.159 HD
ATOM      9  H   UNL     1      12.660   9.063   1.790  0.00  0.00    +0.159 HD
ENDROOT
BRANCH   1  10
ATOM     10  C   UNL     1      14.310   7.199  -1.191  0.00  0.00    +0.151 C 
BRANCH  10  11
ATOM     11  C   UNL     1      14.683   5.777  -0.876  0.00  0.00    -0.028 A 
ATOM     12  C   UNL     1      13.716   4.762  -0.911  0.00  0.00    +0.005 A 
ATOM     13  C   UNL     1      16.005   5.436  -0.549  0.00  0.00    +0.005 A 
ATOM     14  C   UNL     1      14.068   3.436  -0.648  0.00  0.00    +0.000 A 
ATOM     15  C   UNL     1      16.352   4.111  -0.286  0.00  0.00    +0.000 A 
ATOM     16  C   UNL     1      15.384   3.111  -0.338  0.00  0.00    +0.000 A 
ENDBRANCH  10  11
ENDBRANCH   1  10
TORSDOF 2
ENDMDL
MODEL 5
REMARK VINA RESULT:    -4.857      0.883      1.910
REMARK INTER + INTRA:          -5.539
REMARK INTER:                  -5.417
REMARK INTRA:                  -0.122
REMARK UNBOUND:                -0.113
REMARK  Name = 1550473
REMARK  2 active torsions:
REMARK  status: ('A' for Active; 'I' for Inactive)
REMARK    1  A    between atoms: N_1  and  C_4
REMARK    2  A    between atoms: C_4  and  C_5
REMARK                            x       y       z     vdW  Elec       q    Type
REMARK                         _______ _______ _______ _____ _____    ______ ____
ROOT
ATOM      1  N   UNL     1      -2.780   9.733   1.810  0.00  0.00    -0.354 N 
ATOM      2  N   UNL     1      -1.743  11.188   3.285  0.00  0.00    -0.372 N 
ATOM      3  N   UNL     1      -1.447   8.930   3.563  0.00  0.00    -0.372 N 
ATOM      4  C   UNL     1      -1.996   9.938   2.877  0.00  0.00    +0.166 C 
ATOM      5  H   UNL     1      -3.190  10.539   1.352  0.00  0.00    +0.163 HD
ATOM      6  H   UNL     1      -1.153  11.374   4.085  0.00  0.00    +0.159 HD
ATOM      7  H   UNL     1      -2.118  11.993   2.798  0.00  0.00    +0.159 HD
ATOM      8  H   UNL     1      -1.604   7.963   3.310  0.00  0.00    +0.159 HD
ATOM      9  H   UNL     1      -0.863   9.095   4.373  0.00  0.00    +0.159 HD
ENDROOT
BRANCH   1  10
ATOM     10  C   UNL     1      -3.073   8.414   1.253  0.00  0.00    +0.151 C 
BRANCH  10  11
ATOM     11  C   UNL     1      -2.306   8.241  -0.029  0.00  0.00    -0.028 A 
ATOM     12  C   UNL     1      -2.230   6.984  -0.648  0.00  0.00    +0.005 A 
ATOM     13  C   UNL     1      -1.659   9.330  -0.633  0.00  0.00    +0.005 A 
ATOM     14  C   UNL     1      -1.542   6.829  -1.855  0.00  0.00    +0.000 A 
ATOM     15  C   UNL     1      -0.973   9.170  -1.837  0.00  0.00    +0.000 A 
ATOM     16  C   UNL     1      -0.917   7.920  -2.449  0.00  0.00    +0.000 A 
ENDBRANCH  10  11
ENDBRANCH   1  10
TORSDOF 2
ENDMDL
MODEL 6
REMARK VINA RESULT:    -4.761     17.448     18.641
REMARK INTER + INTRA:          -5.431
REMARK INTER:                  -5.263
REMARK INTRA:                  -0.168
REMARK UNBOUND:                -0.113
REMARK  Name = 1550473
REMARK  2 active torsions:
REMARK  status: ('A' for Active; 'I' for Inactive)
REMARK    1  A    between atoms: N_1  and  C_4
REMARK    2  A    between atoms: C_4  and  C_5
REMARK                            x       y       z     vdW  Elec       q    Type
REMARK                         _______ _______ _______ _____ _____    ______ ____
ROOT
ATOM      1  N   UNL     1       4.895  -2.703 -12.128  0.00  0.00    -0.354 N 
ATOM      2  N   UNL     1       6.938  -1.617 -12.031  0.00  0.00    -0.372 N 
ATOM      3  N   UNL     1       5.367  -1.170 -10.420  0.00  0.00    -0.372 N 
ATOM      4  C   UNL     1       5.719  -1.836 -11.525  0.00  0.00    +0.166 C 
ATOM      5  H   UNL     1       5.210  -3.153 -12.980  0.00  0.00    +0.163 HD
ATOM      6  H   UNL     1       7.583  -0.972 -11.596  0.00  0.00    +0.159 HD
ATOM      7  H   UNL     1       7.268  -2.103 -12.856  0.00  0.00    +0.159 HD
ATOM      8  H   UNL     1       4.458  -1.285  -9.992  0.00  0.00    +0.159 HD
ATOM      9  H   UNL     1       5.994  -0.510  -9.977  0.00  0.00    +0.159 HD
ENDROOT
BRANCH   1  10
ATOM     10  C   UNL     1       3.566  -3.052 -11.628  0.00  0.00    +0.151 C 
BRANCH  10  11
ATOM     11  C   UNL     1       3.598  -4.456 -11.089  0.00  0.00    -0.028 A 
ATOM     12  C   UNL     1       3.120  -5.525 -11.860  0.00  0.00    +0.005 A 
ATOM     13  C   UNL     1       4.110  -4.723  -9.810  0.00  0.00    +0.005 A 
ATOM     14  C   UNL     1       3.177  -6.833 -11.371  0.00  0.00    +0.000 A 
ATOM     15  C   UNL     1       4.164  -6.030  -9.325  0.00  0.00    +0.000 A 
ATOM     16  C   UNL     1       3.700  -7.085 -10.107  0.00  0.00    +0.000 A 
ENDBRANCH  10  11
ENDBRANCH   1  10
TORSDOF 2
ENDMDL
MODEL 7
REMARK VINA RESULT:    -4.623     16.966     17.973
REMARK INTER + INTRA:          -5.277
REMARK INTER:                  -5.101
REMARK INTRA:                  -0.176
REMARK UNBOUND:                -0.113
REMARK  Name = 1550473
REMARK  2 active torsions:
REMARK  status: ('A' for Active; 'I' for Inactive)
REMARK    1  A    between atoms: N_1  and  C_4
REMARK    2  A    between atoms: C_4  and  C_5
REMARK                            x       y       z     vdW  Elec       q    Type
REMARK                         _______ _______ _______ _____ _____    ______ ____
ROOT
ATOM      1  N   UNL     1      13.512   3.886  -5.205  0.00  0.00    -0.354 N 
ATOM      2  N   UNL     1      13.065   2.111  -6.625  0.00  0.00    -0.372 N 
ATOM      3  N   UNL     1      15.164   3.038  -6.635  0.00  0.00    -0.372 N 
ATOM      4  C   UNL     1      13.920   3.024  -6.147  0.00  0.00    +0.166 C 
ATOM      5  H   UNL     1      12.547   3.843  -4.899  0.00  0.00    +0.163 HD
ATOM      6  H   UNL     1      13.345   1.446  -7.333  0.00  0.00    +0.159 HD
ATOM      7  H   UNL     1      12.115   2.040  -6.283  0.00  0.00    +0.159 HD
ATOM      8  H   UNL     1      15.855   3.706  -6.320  0.00  0.00    +0.159 HD
ATOM      9  H   UNL     1      15.460   2.388  -7.352  0.00  0.00    +0.159 HD
ENDROOT
BRANCH   1  10
ATOM     10  C   UNL     1      14.378   4.883  -4.580  0.00  0.00    +0.151 C 
BRANCH  10  11
ATOM     11  C   UNL     1      14.708   4.440  -3.181  0.00  0.00    -0.028 A 
ATOM     12  C   UNL     1      13.773   4.595  -2.147  0.00  0.00    +0.005 A 
ATOM     13  C   UNL     1      15.950   3.859  -2.884  0.00  0.00    +0.005 A 
ATOM     14  C   UNL     1      14.067   4.156  -0.853  0.00  0.00    +0.000 A 
ATOM     15  C   UNL     1      16.240   3.423  -1.592  0.00  0.00    +0.000 A 
ATOM     16  C   UNL     1      15.297   3.569  -0.577  0.00  0.00    +0.000 A 
ENDBRANCH  10  11
ENDBRANCH   1  10
TORSDOF 2
ENDMDL
MODEL 8
REMARK VINA RESULT:    -4.555      2.524      5.065
REMARK INTER + INTRA:          -5.201
REMARK INTER:                  -5.082
REMARK INTRA:                  -0.119
REMARK UNBOUND:                -0.113
REMARK  Name = 1550473
REMARK  2 active torsions:
REMARK  status: ('A' for Active; 'I' for Inactive)
REMARK    1  A    between atoms: N_1  and  C_4
REMARK    2  A    between atoms: C_4  and  C_5
REMARK                            x       y       z     vdW  Elec       q    Type
REMARK                         _______ _______ _______ _____ _____    ______ ____
ROOT
ATOM      1  N   UNL     1      -1.686   7.596   0.372  0.00  0.00    -0.354 N 
ATOM      2  N   UNL     1      -1.489   5.912  -1.207  0.00  0.00    -0.372 N 
ATOM      3  N   UNL     1      -1.265   8.095  -1.879  0.00  0.00    -0.372 N 
ATOM      4  C   UNL     1      -1.481   7.214  -0.896  0.00  0.00    +0.166 C 
ATOM      5  H   UNL     1      -1.874   6.881   1.065  0.00  0.00    +0.163 HD
ATOM      6  H   UNL     1      -1.334   5.595  -2.154  0.00  0.00    +0.159 HD
ATOM      7  H   UNL     1      -1.632   5.198  -0.504  0.00  0.00    +0.159 HD
ATOM      8  H   UNL     1      -1.252   9.092  -1.711  0.00  0.00    +0.159 HD
ATOM      9  H   UNL     1      -1.119   7.797  -2.835  0.00  0.00    +0.159 HD
ENDROOT
BRANCH   1  10
ATOM     10  C   UNL     1      -1.644   8.985   0.825  0.00  0.00    +0.151 C 
BRANCH  10  11
ATOM     11  C   UNL     1      -2.381   9.098   2.130  0.00  0.00    -0.028 A 
ATOM     12  C   UNL     1      -1.898   9.931   3.151  0.00  0.00    +0.005 A 
ATOM     13  C   UNL     1      -3.566   8.380   2.352  0.00  0.00    +0.005 A 
ATOM     14  C   UNL     1      -2.598  10.060   4.353  0.00  0.00    +0.000 A 
ATOM     15  C   UNL     1      -4.262   8.511   3.553  0.00  0.00    +0.000 A 
ATOM     16  C   UNL     1      -3.779   9.353   4.552  0.00  0.00    +0.000 A 
ENDBRANCH  10  11
ENDBRANCH   1  10
TORSDOF 2
ENDMDL
MODEL 9
REMARK VINA RESULT:    -4.516     16.224     16.897
REMARK INTER + INTRA:          -5.158
REMARK INTER:                  -5.057
REMARK INTRA:                  -0.100
REMARK UNBOUND:                -0.113
REMARK  Name = 1550473
REMARK  2 active torsions:
REMARK  status: ('A' for Active; 'I' for Inactive)
REMARK    1  A    between atoms: N_1  and  C_4
REMARK    2  A    between atoms: C_4  and  C_5
REMARK                            x       y       z     vdW  Elec       q    Type
REMARK                         _______ _______ _______ _____ _____    ______ ____
ROOT
ATOM      1  N   UNL     1      15.302   8.047  -1.102  0.00  0.00    -0.354 N 
ATOM      2  N   UNL     1      13.903   9.879  -1.329  0.00  0.00    -0.372 N 
ATOM      3  N   UNL     1      14.544   9.228   0.776  0.00  0.00    -0.372 N 
ATOM      4  C   UNL     1      14.592   9.039  -0.547  0.00  0.00    +0.166 C 
ATOM      5  H   UNL     1      15.273   7.940  -2.109  0.00  0.00    +0.163 HD
ATOM      6  H   UNL     1      13.361  10.639  -0.940  0.00  0.00    +0.159 HD
ATOM      7  H   UNL     1      13.913   9.797  -2.338  0.00  0.00    +0.159 HD
ATOM      8  H   UNL     1      15.037   8.625   1.421  0.00  0.00    +0.159 HD
ATOM      9  H   UNL     1      13.998   9.975   1.185  0.00  0.00    +0.159 HD
ENDROOT
BRANCH   1  10
ATOM     10  C   UNL     1      16.130   7.111  -0.343  0.00  0.00    +0.151 C 
BRANCH  10  11
ATOM     11  C   UNL     1      15.545   5.731  -0.461  0.00  0.00    -0.028 A 
ATOM     12  C   UNL     1      16.354   4.598  -0.292  0.00  0.00    +0.005 A 
ATOM     13  C   UNL     1      14.181   5.550  -0.737  0.00  0.00    +0.005 A 
ATOM     14  C   UNL     1      15.805   3.316  -0.372  0.00  0.00    +0.000 A 
ATOM     15  C   UNL     1      13.637   4.268  -0.816  0.00  0.00    +0.000 A 
ATOM     16  C   UNL     1      14.449   3.151  -0.631  0.00  0.00    +0.000 A 
ENDBRANCH  10  11
ENDBRANCH   1  10
TORSDOF 2
ENDMDL
