MODEL 1
REMARK VINA RESULT:    -5.859      0.000      0.000
REMARK INTER + INTRA:          -6.664
REMARK INTER:                  -6.544
REMARK INTRA:                  -0.120
REMARK UNBOUND:                -0.120
REMARK  Name = 1550473
REMARK  2 active torsions:
REMARK  status: ('A' for Active; 'I' for Inactive)
REMARK    1  A    between atoms: N_1  and  C_4
REMARK    2  A    between atoms: C_4  and  C_5
REMARK                            x       y       z     vdW  Elec       q    Type
REMARK                         _______ _______ _______ _____ _____    ______ ____
ROOT
ATOM      1  N   UNL     1       5.555  11.201   6.644  0.00  0.00    -0.354 N 
ATOM      2  N   UNL     1       6.636  10.015   4.974  0.00  0.00    -0.372 N 
ATOM      3  N   UNL     1       5.296  11.784   4.389  0.00  0.00    -0.372 N 
ATOM      4  C   UNL     1       5.820  11.009   5.345  0.00  0.00    +0.166 C 
ATOM      5  H   UNL     1       5.960  10.560   7.318  0.00  0.00    +0.163 HD
ATOM      6  H   UNL     1       6.857   9.849   4.001  0.00  0.00    +0.159 HD
ATOM      7  H   UNL     1       7.076   9.405   5.652  0.00  0.00    +0.159 HD
ATOM      8  H   UNL     1       4.668  12.547   4.603  0.00  0.00    +0.159 HD
ATOM      9  H   UNL     1       5.496  11.626   3.410  0.00  0.00    +0.159 HD
ENDROOT
BRANCH   1  10
ATOM     10  C   UNL     1       4.723  12.288   7.158  0.00  0.00    +0.151 C 
BRANCH  10  11
ATOM     11  C   UNL     1       4.766  12.271   8.661  0.00  0.00    -0.028 A 
ATOM     12  C   UNL     1       4.356  13.392   9.397  0.00  0.00    +0.005 A 
ATOM     13  C   UNL     1       5.210  11.135   9.355  0.00  0.00    +0.005 A 
ATOM     14  C   UNL     1       4.367  13.366  10.794  0.00  0.00    +0.000 A 
ATOM     15  C   UNL     1       5.220  11.114  10.749  0.00  0.00    +0.000 A 
ATOM     16  C   UNL     1       4.796  12.228  11.469  0.00  0.00    +0.000 A 
ENDBRANCH  10  11
ENDBRANCH   1  10
TORSDOF 2
ENDMDL
MODEL 2
REMARK VINA RESULT:    -5.575      3.756      5.011
REMARK INTER + INTRA:          -6.347
REMARK INTER:                  -6.172
REMARK INTRA:                  -0.176
REMARK UNBOUND:                -0.120
REMARK  Name = 1550473
REMARK  2 active torsions:
REMARK  status: ('A' for Active; 'I' for Inactive)
REMARK    1  A    between atoms: N_1  and  C_4
REMARK    2  A    between atoms: C_4  and  C_5
REMARK                            x       y       z     vdW  Elec       q    Type
REMARK                         _______ _______ _______ _____ _____    ______ ____
ROOT
ATOM      1  N   UNL     1       4.987  15.741   9.902  0.00  0.00    -0.354 N 
ATOM      2  N   UNL     1       6.830  17.116   9.626  0.00  0.00    -0.372 N 
ATOM      3  N   UNL     1       6.368  16.287  11.715  0.00  0.00    -0.372 N 
ATOM      4  C   UNL     1       6.050  16.372  10.419  0.00  0.00    +0.166 C 
ATOM      5  H   UNL     1       4.783  15.869   8.918  0.00  0.00    +0.163 HD
ATOM      6  H   UNL     1       7.641  17.601   9.987  0.00  0.00    +0.159 HD
ATOM      7  H   UNL     1       6.650  17.206   8.633  0.00  0.00    +0.159 HD
ATOM      8  H   UNL     1       5.816  15.747  12.368  0.00  0.00    +0.159 HD
ATOM      9  H   UNL     1       7.168  16.775  12.098  0.00  0.00    +0.159 HD
ENDROOT
BRANCH   1  10
ATOM     10  C   UNL     1       4.105  14.863  10.669  0.00  0.00    +0.151 C 
BRANCH  10  11
ATOM     11  C   UNL     1       4.460  13.431  10.376  0.00  0.00    -0.028 A 
ATOM     12  C   UNL     1       4.501  12.964   9.054  0.00  0.00    +0.005 A 
ATOM     13  C   UNL     1       4.764  12.539  11.416  0.00  0.00    +0.005 A 
ATOM     14  C   UNL     1       4.860  11.642   8.780  0.00  0.00    +0.000 A 
ATOM     15  C   UNL     1       5.122  11.220  11.138  0.00  0.00    +0.000 A 
ATOM     16  C   UNL     1       5.172  10.772   9.820  0.00  0.00    +0.000 A 
ENDBRANCH  10  11
ENDBRANCH   1  10
TORSDOF 2
ENDMDL
MODEL 3
REMARK VINA RESULT:    -5.426      4.942      6.555
REMARK INTER + INTRA:          -6.180
REMARK INTER:                  -6.049
REMARK INTRA:                  -0.132
REMARK UNBOUND:                -0.120
REMARK  Name = 1550473
REMARK  2 active torsions:
REMARK  status: ('A' for Active; 'I' for Inactive)
REMARK    1  A    between atoms: N_1  and  C_4
REMARK    2  A    between atoms: C_4  and  C_5
REMARK                            x       y       z     vdW  Elec       q    Type
REMARK                         _______ _______ _______ _____ _____    ______ ____
ROOT
ATOM      1  N   UNL     1       5.761  15.055  13.159  0.00  0.00    -0.354 N 
ATOM      2  N   UNL     1       6.225  15.566  15.369  0.00  0.00    -0.372 N 
ATOM      3  N   UNL     1       7.557  16.449  13.723  0.00  0.00    -0.372 N 
ATOM      4  C   UNL     1       6.513  15.688  14.068  0.00  0.00    +0.166 C 
ATOM      5  H   UNL     1       5.002  14.468  13.486  0.00  0.00    +0.163 HD
ATOM      6  H   UNL     1       6.773  16.035  16.078  0.00  0.00    +0.159 HD
ATOM      7  H   UNL     1       5.438  15.016  15.691  0.00  0.00    +0.159 HD
ATOM      8  H   UNL     1       7.831  16.578  12.758  0.00  0.00    +0.159 HD
ATOM      9  H   UNL     1       8.125  16.917  14.419  0.00  0.00    +0.159 HD
ENDROOT
BRANCH   1  10
ATOM     10  C   UNL     1       5.957  15.165  11.714  0.00  0.00    +0.151 C 
BRANCH  10  11
ATOM     11  C   UNL     1       5.612  13.851  11.070  0.00  0.00    -0.028 A 
ATOM     12  C   UNL     1       4.975  12.842  11.807  0.00  0.00    +0.005 A 
ATOM     13  C   UNL     1       5.913  13.611   9.720  0.00  0.00    +0.005 A 
ATOM     14  C   UNL     1       4.627  11.632  11.201  0.00  0.00    +0.000 A 
ATOM     15  C   UNL     1       5.565  12.402   9.119  0.00  0.00    +0.000 A 
ATOM     16  C   UNL     1       4.919  11.414   9.858  0.00  0.00    +0.000 A 
ENDBRANCH  10  11
ENDBRANCH   1  10
TORSDOF 2
ENDMDL
MODEL 4
REMARK VINA RESULT:    -5.336      5.875      7.595
REMARK INTER + INTRA:          -6.080
REMARK INTER:                  -5.940
REMARK INTRA:                  -0.140
REMARK UNBOUND:                -0.120
REMARK  Name = 1550473
REMARK  2 active torsions:
REMARK  status: ('A' for Active; 'I' for Inactive)
REMARK    1  A    between atoms: N_1  and  C_4
REMARK    2  A    between atoms: C_4  and  C_5
REMARK                            x       y       z     vdW  Elec       q    Type
REMARK                         _______ _______ _______ _____ _____    ______ ____
ROOT
ATOM      1  N   UNL     1       6.090  15.489  14.434  0.00  0.00    -0.354 N 
ATOM      2  N   UNL     1       6.424  15.170  16.704  0.00  0.00    -0.372 N 
ATOM      3  N   UNL     1       8.103  16.115  15.457  0.00  0.00    -0.372 N 
ATOM      4  C   UNL     1       6.873  15.594  15.516  0.00  0.00    +0.166 C 
ATOM      5  H   UNL     1       5.179  15.057  14.539  0.00  0.00    +0.163 HD
ATOM      6  H   UNL     1       6.991  15.239  17.538  0.00  0.00    +0.159 HD
ATOM      7  H   UNL     1       5.496  14.781  16.814  0.00  0.00    +0.159 HD
ATOM      8  H   UNL     1       8.503  16.448  14.590  0.00  0.00    +0.159 HD
ATOM      9  H   UNL     1       8.690  16.182  16.279  0.00  0.00    +0.159 HD
ENDROOT
BRANCH   1  10
ATOM     10  C   UNL     1       6.463  15.970  13.105  0.00  0.00    +0.151 C 
BRANCH  10  11
ATOM     11  C   UNL     1       6.156  14.902  12.092  0.00  0.00    -0.028 A 
ATOM     12  C   UNL     1       5.353  13.805  12.435  0.00  0.00    +0.005 A 
ATOM     13  C   UNL     1       6.662  14.984  10.785  0.00  0.00    +0.005 A 
ATOM     14  C   UNL     1       5.043  12.828  11.486  0.00  0.00    +0.000 A 
ATOM     15  C   UNL     1       6.351  14.006   9.841  0.00  0.00    +0.000 A 
ATOM     16  C   UNL     1       5.540  12.929  10.191  0.00  0.00    +0.000 A 
ENDBRANCH  10  11
ENDBRANCH   1  10
TORSDOF 2
ENDMDL
MODEL 5
REMARK VINA RESULT:    -5.175     14.170     17.091
REMARK INTER + INTRA:          -5.900
REMARK INTER:                  -5.757
REMARK INTRA:                  -0.143
REMARK UNBOUND:                -0.120
REMARK  Name = 1550473
REMARK  2 active torsions:
REMARK  status: ('A' for Active; 'I' for Inactive)
REMARK    1  A    between atoms: N_1  and  C_4
REMARK    2  A    between atoms: C_4  and  C_5
REMARK                            x       y       z     vdW  Elec       q    Type
REMARK                         _______ _______ _______ _____ _____    ______ ____
ROOT
ATOM      1  N   UNL     1       3.493   2.300  -3.207  0.00  0.00    -0.354 N 
ATOM      2  N   UNL     1       4.566   4.190  -2.405  0.00  0.00    -0.372 N 
ATOM      3  N   UNL     1       5.808   2.570  -3.452  0.00  0.00    -0.372 N 
ATOM      4  C   UNL     1       4.618   3.006  -3.028  0.00  0.00    +0.166 C 
ATOM      5  H   UNL     1       2.627   2.672  -2.835  0.00  0.00    +0.163 HD
ATOM      6  H   UNL     1       5.397   4.747  -2.259  0.00  0.00    +0.159 HD
ATOM      7  H   UNL     1       3.692   4.581  -2.075  0.00  0.00    +0.159 HD
ATOM      8  H   UNL     1       5.916   1.681  -3.923  0.00  0.00    +0.159 HD
ATOM      9  H   UNL     1       6.654   3.107  -3.304  0.00  0.00    +0.159 HD
ENDROOT
BRANCH   1  10
ATOM     10  C   UNL     1       3.433   1.025  -3.919  0.00  0.00    +0.151 C 
BRANCH  10  11
ATOM     11  C   UNL     1       2.574   1.186  -5.143  0.00  0.00    -0.028 A 
ATOM     12  C   UNL     1       2.909   2.124  -6.130  0.00  0.00    +0.005 A 
ATOM     13  C   UNL     1       1.425   0.400  -5.323  0.00  0.00    +0.005 A 
ATOM     14  C   UNL     1       2.128   2.253  -7.281  0.00  0.00    +0.000 A 
ATOM     15  C   UNL     1       0.647   0.532  -6.473  0.00  0.00    +0.000 A 
ATOM     16  C   UNL     1       1.000   1.457  -7.453  0.00  0.00    +0.000 A 
ENDBRANCH  10  11
ENDBRANCH   1  10
TORSDOF 2
ENDMDL
MODEL 6
REMARK VINA RESULT:    -5.171      2.287      2.685
REMARK INTER + INTRA:          -5.895
REMARK INTER:                  -5.743
REMARK INTRA:                  -0.152
REMARK UNBOUND:                -0.120
REMARK  Name = 1550473
REMARK  2 active torsions:
REMARK  status: ('A' for Active; 'I' for Inactive)
REMARK    1  A    between atoms: N_1  and  C_4
REMARK    2  A    between atoms: C_4  and  C_5
REMARK                            x       y       z     vdW  Elec       q    Type
REMARK                         _______ _______ _______ _____ _____    ______ ____
ROOT
ATOM      1  N   UNL     1       6.029  13.591   7.029  0.00  0.00    -0.354 N 
ATOM      2  N   UNL     1       7.139  15.588   6.647  0.00  0.00    -0.372 N 
ATOM      3  N   UNL     1       4.848  15.599   6.776  0.00  0.00    -0.372 N 
ATOM      4  C   UNL     1       5.995  14.914   6.819  0.00  0.00    +0.166 C 
ATOM      5  H   UNL     1       6.929  13.125   7.020  0.00  0.00    +0.163 HD
ATOM      6  H   UNL     1       7.145  16.587   6.491  0.00  0.00    +0.159 HD
ATOM      7  H   UNL     1       8.040  15.127   6.685  0.00  0.00    +0.159 HD
ATOM      8  H   UNL     1       3.950  15.149   6.893  0.00  0.00    +0.159 HD
ATOM      9  H   UNL     1       4.833  16.598   6.609  0.00  0.00    +0.159 HD
ENDROOT
BRANCH   1  10
ATOM     10  C   UNL     1       4.844  12.773   7.282  0.00  0.00    +0.151 C 
BRANCH  10  11
ATOM     11  C   UNL     1       4.811  12.392   8.736  0.00  0.00    -0.028 A 
ATOM     12  C   UNL     1       4.433  13.330   9.709  0.00  0.00    +0.005 A 
ATOM     13  C   UNL     1       5.151  11.095   9.148  0.00  0.00    +0.005 A 
ATOM     14  C   UNL     1       4.374  12.969  11.057  0.00  0.00    +0.000 A 
ATOM     15  C   UNL     1       5.091  10.738  10.495  0.00  0.00    +0.000 A 
ATOM     16  C   UNL     1       4.700  11.675  11.449  0.00  0.00    +0.000 A 
ENDBRANCH  10  11
ENDBRANCH   1  10
TORSDOF 2
ENDMDL
MODEL 7
REMARK VINA RESULT:    -5.136      4.112      5.571
REMARK INTER + INTRA:          -5.857
REMARK INTER:                  -5.759
REMARK INTRA:                  -0.098
REMARK UNBOUND:                -0.120
REMARK  Name = 1550473
REMARK  2 active torsions:
REMARK  status: ('A' for Active; 'I' for Inactive)
REMARK    1  A    between atoms: N_1  and  C_4
REMARK    2  A    between atoms: C_4  and  C_5
REMARK                            x       y       z     vdW  Elec       q    Type
REMARK                         _______ _______ _______ _____ _____    ______ ____
ROOT
ATOM      1  N   UNL     1       2.995  15.215  10.718  0.00  0.00    -0.354 N 
ATOM      2  N   UNL     1       1.229  16.701  10.522  0.00  0.00    -0.372 N 
ATOM      3  N   UNL     1       3.286  17.500  11.149  0.00  0.00    -0.372 N 
ATOM      4  C   UNL     1       2.517  16.464  10.799  0.00  0.00    +0.166 C 
ATOM      5  H   UNL     1       2.353  14.469  10.476  0.00  0.00    +0.163 HD
ATOM      6  H   UNL     1       0.841  17.633  10.572  0.00  0.00    +0.159 HD
ATOM      7  H   UNL     1       0.600  15.960  10.236  0.00  0.00    +0.159 HD
ATOM      8  H   UNL     1       4.265  17.387  11.376  0.00  0.00    +0.159 HD
ATOM      9  H   UNL     1       2.914  18.438  11.216  0.00  0.00    +0.159 HD
ENDROOT
BRANCH   1  10
ATOM     10  C   UNL     1       4.394  14.858  10.946  0.00  0.00    +0.151 C 
BRANCH  10  11
ATOM     11  C   UNL     1       4.621  13.443  10.490  0.00  0.00    -0.028 A 
ATOM     12  C   UNL     1       4.599  13.123   9.124  0.00  0.00    +0.005 A 
ATOM     13  C   UNL     1       4.864  12.419  11.418  0.00  0.00    +0.005 A 
ATOM     14  C   UNL     1       4.839  11.814   8.698  0.00  0.00    +0.000 A 
ATOM     15  C   UNL     1       5.103  11.114  10.989  0.00  0.00    +0.000 A 
ATOM     16  C   UNL     1       5.093  10.812   9.629  0.00  0.00    +0.000 A 
ENDBRANCH  10  11
ENDBRANCH   1  10
TORSDOF 2
ENDMDL
MODEL 8
REMARK VINA RESULT:    -5.061      5.970      7.638
REMARK INTER + INTRA:          -5.773
REMARK INTER:                  -5.649
REMARK INTRA:                  -0.124
REMARK UNBOUND:                -0.120
REMARK  Name = 1550473
REMARK  2 active torsions:
REMARK  status: ('A' for Active; 'I' for Inactive)
REMARK    1  A    between atoms: N_1  and  C_4
REMARK    2  A    between atoms: C_4  and  C_5
REMARK                            x       y       z     vdW  Elec       q    Type
REMARK                         _______ _______ _______ _____ _____    ______ ____
ROOT
ATOM      1  N   UNL     1       3.923   7.366   0.592  0.00  0.00    -0.354 N 
ATOM      2  N   UNL     1       3.606   8.107  -1.580  0.00  0.00    -0.372 N 
ATOM      3  N   UNL     1       2.805   6.041  -0.985  0.00  0.00    -0.372 N 
ATOM      4  C   UNL     1       3.446   7.164  -0.644  0.00  0.00    +0.166 C 
ATOM      5  H   UNL     1       4.425   8.226   0.779  0.00  0.00    +0.163 HD
ATOM      6  H   UNL     1       3.254   7.985  -2.520  0.00  0.00    +0.159 HD
ATOM      7  H   UNL     1       4.069   8.985  -1.377  0.00  0.00    +0.159 HD
ATOM      8  H   UNL     1       2.656   5.288  -0.327  0.00  0.00    +0.159 HD
ATOM      9  H   UNL     1       2.456   5.895  -1.924  0.00  0.00    +0.159 HD
ENDROOT
BRANCH   1  10
ATOM     10  C   UNL     1       3.753   6.425   1.698  0.00  0.00    +0.151 C 
BRANCH  10  11
ATOM     11  C   UNL     1       4.264   7.058   2.963  0.00  0.00    -0.028 A 
ATOM     12  C   UNL     1       4.815   8.347   2.942  0.00  0.00    +0.005 A 
ATOM     13  C   UNL     1       4.195   6.374   4.187  0.00  0.00    +0.005 A 
ATOM     14  C   UNL     1       5.262   8.947   4.122  0.00  0.00    +0.000 A 
ATOM     15  C   UNL     1       4.644   6.976   5.362  0.00  0.00    +0.000 A 
ATOM     16  C   UNL     1       5.175   8.263   5.330  0.00  0.00    +0.000 A 
ENDBRANCH  10  11
ENDBRANCH   1  10
TORSDOF 2
ENDMDL
MODEL 9
REMARK VINA RESULT:    -5.015     15.516     18.390
REMARK INTER + INTRA:          -5.722
REMARK INTER:                  -5.599
REMARK INTRA:                  -0.122
REMARK UNBOUND:                -0.120
REMARK  Name = 1550473
REMARK  2 active torsions:
REMARK  status: ('A' for Active; 'I' for Inactive)
REMARK    1  A    between atoms: N_1  and  C_4
REMARK    2  A    between atoms: C_4  and  C_5
REMARK                            x       y       z     vdW  Elec       q    Type
REMARK                         _______ _______ _______ _____ _____    ______ ____
ROOT
ATOM      1  N   UNL     1       3.777   0.394  -4.042  0.00  0.00    -0.354 N 
ATOM      2  N   UNL     1       5.718   1.487  -3.409  0.00  0.00    -0.372 N 
ATOM      3  N   UNL     1       3.696   2.343  -2.743  0.00  0.00    -0.372 N 
ATOM      4  C   UNL     1       4.383   1.403  -3.401  0.00  0.00    +0.166 C 
ATOM      5  H   UNL     1       4.353  -0.269  -4.548  0.00  0.00    +0.163 HD
ATOM      6  H   UNL     1       6.203   2.235  -2.931  0.00  0.00    +0.159 HD
ATOM      7  H   UNL     1       6.293   0.797  -3.876  0.00  0.00    +0.159 HD
ATOM      8  H   UNL     1       2.685   2.339  -2.704  0.00  0.00    +0.159 HD
ATOM      9  H   UNL     1       4.163   3.105  -2.268  0.00  0.00    +0.159 HD
ENDROOT
BRANCH   1  10
ATOM     10  C   UNL     1       2.331   0.180  -4.050  0.00  0.00    +0.151 C 
BRANCH  10  11
ATOM     11  C   UNL     1       1.871  -0.014  -5.468  0.00  0.00    -0.028 A 
ATOM     12  C   UNL     1       2.058  -1.244  -6.115  0.00  0.00    +0.005 A 
ATOM     13  C   UNL     1       1.242   1.027  -6.168  0.00  0.00    +0.005 A 
ATOM     14  C   UNL     1       1.603  -1.434  -7.422  0.00  0.00    +0.000 A 
ATOM     15  C   UNL     1       0.790   0.833  -7.474  0.00  0.00    +0.000 A 
ATOM     16  C   UNL     1       0.969  -0.398  -8.099  0.00  0.00    +0.000 A 
ENDBRANCH  10  11
ENDBRANCH   1  10
TORSDOF 2
ENDMDL
