MODEL 1
REMARK VINA RESULT:    -5.466      0.000      0.000
REMARK INTER + INTRA:          -6.260
REMARK INTER:                  -6.105
REMARK INTRA:                  -0.155
REMARK UNBOUND:                -0.155
REMARK  Name = 1550473
REMARK  2 active torsions:
REMARK  status: ('A' for Active; 'I' for Inactive)
REMARK    1  A    between atoms: N_1  and  C_4
REMARK    2  A    between atoms: C_4  and  C_5
REMARK                            x       y       z     vdW  Elec       q    Type
REMARK                         _______ _______ _______ _____ _____    ______ ____
ROOT
ATOM      1  N   UNL     1      -3.781  -0.672   1.554  0.00  0.00    -0.354 N 
ATOM      2  N   UNL     1      -5.053   0.108   3.326  0.00  0.00    -0.372 N 
ATOM      3  N   UNL     1      -6.021  -1.315   1.808  0.00  0.00    -0.372 N 
ATOM      4  C   UNL     1      -4.945  -0.633   2.216  0.00  0.00    +0.166 C 
ATOM      5  H   UNL     1      -3.013  -0.109   1.898  0.00  0.00    +0.163 HD
ATOM      6  H   UNL     1      -5.918   0.154   3.848  0.00  0.00    +0.159 HD
ATOM      7  H   UNL     1      -4.270   0.634   3.693  0.00  0.00    +0.159 HD
ATOM      8  H   UNL     1      -6.007  -1.888   0.975  0.00  0.00    +0.159 HD
ATOM      9  H   UNL     1      -6.898  -1.272   2.311  0.00  0.00    +0.159 HD
ENDROOT
BRANCH   1  10
ATOM     10  C   UNL     1      -3.544  -1.490   0.366  0.00  0.00    +0.151 C 
BRANCH  10  11
ATOM     11  C   UNL     1      -2.823  -2.746   0.770  0.00  0.00    -0.028 A 
ATOM     12  C   UNL     1      -3.012  -3.937   0.054  0.00  0.00    +0.005 A 
ATOM     13  C   UNL     1      -1.945  -2.751   1.865  0.00  0.00    +0.005 A 
ATOM     14  C   UNL     1      -2.320  -5.097   0.411  0.00  0.00    +0.000 A 
ATOM     15  C   UNL     1      -1.256  -3.911   2.218  0.00  0.00    +0.000 A 
ATOM     16  C   UNL     1      -1.442  -5.083   1.489  0.00  0.00    +0.000 A 
ENDBRANCH  10  11
ENDBRANCH   1  10
TORSDOF 2
ENDMDL
MODEL 2
REMARK VINA RESULT:    -5.328      2.793      4.116
REMARK INTER + INTRA:          -6.106
REMARK INTER:                  -5.964
REMARK INTRA:                  -0.142
REMARK UNBOUND:                -0.155
REMARK  Name = 1550473
REMARK  2 active torsions:
REMARK  status: ('A' for Active; 'I' for Inactive)
REMARK    1  A    between atoms: N_1  and  C_4
REMARK    2  A    between atoms: C_4  and  C_5
REMARK                            x       y       z     vdW  Elec       q    Type
REMARK                         _______ _______ _______ _____ _____    ______ ____
ROOT
ATOM      1  N   UNL     1      -3.921  -1.571   2.165  0.00  0.00    -0.354 N 
ATOM      2  N   UNL     1      -1.683  -1.598   2.760  0.00  0.00    -0.372 N 
ATOM      3  N   UNL     1      -2.311  -0.482   0.856  0.00  0.00    -0.372 N 
ATOM      4  C   UNL     1      -2.653  -1.215   1.921  0.00  0.00    +0.166 C 
ATOM      5  H   UNL     1      -4.111  -2.154   2.972  0.00  0.00    +0.163 HD
ATOM      6  H   UNL     1      -0.717  -1.342   2.604  0.00  0.00    +0.159 HD
ATOM      7  H   UNL     1      -1.881  -2.142   3.591  0.00  0.00    +0.159 HD
ATOM      8  H   UNL     1      -2.995  -0.166   0.182  0.00  0.00    +0.159 HD
ATOM      9  H   UNL     1      -1.348  -0.225   0.676  0.00  0.00    +0.159 HD
ENDROOT
BRANCH   1  10
ATOM     10  C   UNL     1      -5.058  -1.161   1.343  0.00  0.00    +0.151 C 
BRANCH  10  11
ATOM     11  C   UNL     1      -5.908  -2.365   1.045  0.00  0.00    -0.028 A 
ATOM     12  C   UNL     1      -5.315  -3.590   0.707  0.00  0.00    +0.005 A 
ATOM     13  C   UNL     1      -7.308  -2.288   1.103  0.00  0.00    +0.005 A 
ATOM     14  C   UNL     1      -6.103  -4.716   0.459  0.00  0.00    +0.000 A 
ATOM     15  C   UNL     1      -8.092  -3.415   0.855  0.00  0.00    +0.000 A 
ATOM     16  C   UNL     1      -7.489  -4.629   0.535  0.00  0.00    +0.000 A 
ENDBRANCH  10  11
ENDBRANCH   1  10
TORSDOF 2
ENDMDL
MODEL 3
REMARK VINA RESULT:    -5.253     11.320     12.175
REMARK INTER + INTRA:          -6.022
REMARK INTER:                  -5.917
REMARK INTRA:                  -0.104
REMARK UNBOUND:                -0.155
REMARK  Name = 1550473
REMARK  2 active torsions:
REMARK  status: ('A' for Active; 'I' for Inactive)
REMARK    1  A    between atoms: N_1  and  C_4
REMARK    2  A    between atoms: C_4  and  C_5
REMARK                            x       y       z     vdW  Elec       q    Type
REMARK                         _______ _______ _______ _____ _____    ______ ____
ROOT
ATOM      1  N   UNL     1      -5.652  -7.916  12.892  0.00  0.00    -0.354 N 
ATOM      2  N   UNL     1      -6.663  -9.980  13.179  0.00  0.00    -0.372 N 
ATOM      3  N   UNL     1      -7.102  -8.310  14.690  0.00  0.00    -0.372 N 
ATOM      4  C   UNL     1      -6.467  -8.720  13.588  0.00  0.00    +0.166 C 
ATOM      5  H   UNL     1      -5.177  -8.296  12.082  0.00  0.00    +0.163 HD
ATOM      6  H   UNL     1      -7.274 -10.609  13.682  0.00  0.00    +0.159 HD
ATOM      7  H   UNL     1      -6.222 -10.344  12.343  0.00  0.00    +0.159 HD
ATOM      8  H   UNL     1      -6.992  -7.373  15.055  0.00  0.00    +0.159 HD
ATOM      9  H   UNL     1      -7.709  -8.929  15.214  0.00  0.00    +0.159 HD
ENDROOT
BRANCH   1  10
ATOM     10  C   UNL     1      -5.413  -6.512  13.221  0.00  0.00    +0.151 C 
BRANCH  10  11
ATOM     11  C   UNL     1      -5.146  -5.748  11.953  0.00  0.00    -0.028 A 
ATOM     12  C   UNL     1      -4.087  -6.116  11.111  0.00  0.00    +0.005 A 
ATOM     13  C   UNL     1      -5.952  -4.660  11.586  0.00  0.00    +0.005 A 
ATOM     14  C   UNL     1      -3.856  -5.426   9.918  0.00  0.00    +0.000 A 
ATOM     15  C   UNL     1      -5.719  -3.973  10.395  0.00  0.00    +0.000 A 
ATOM     16  C   UNL     1      -4.672  -4.358   9.560  0.00  0.00    +0.000 A 
ENDBRANCH  10  11
ENDBRANCH   1  10
TORSDOF 2
ENDMDL
MODEL 4
REMARK VINA RESULT:    -5.070      2.530      3.832
REMARK INTER + INTRA:          -5.818
REMARK INTER:                  -5.680
REMARK INTRA:                  -0.138
REMARK UNBOUND:                -0.155
REMARK  Name = 1550473
REMARK  2 active torsions:
REMARK  status: ('A' for Active; 'I' for Inactive)
REMARK    1  A    between atoms: N_1  and  C_4
REMARK    2  A    between atoms: C_4  and  C_5
REMARK                            x       y       z     vdW  Elec       q    Type
REMARK                         _______ _______ _______ _____ _____    ______ ____
ROOT
ATOM      1  N   UNL     1      -2.364  -2.635   1.186  0.00  0.00    -0.354 N 
ATOM      2  N   UNL     1      -0.556  -1.707   2.298  0.00  0.00    -0.372 N 
ATOM      3  N   UNL     1      -2.644  -0.819   2.641  0.00  0.00    -0.372 N 
ATOM      4  C   UNL     1      -1.869  -1.725   2.035  0.00  0.00    +0.166 C 
ATOM      5  H   UNL     1      -1.719  -3.275   0.737  0.00  0.00    +0.163 HD
ATOM      6  H   UNL     1      -0.155  -1.034   2.937  0.00  0.00    +0.159 HD
ATOM      7  H   UNL     1       0.079  -2.377   1.883  0.00  0.00    +0.159 HD
ATOM      8  H   UNL     1      -3.642  -0.776   2.480  0.00  0.00    +0.159 HD
ATOM      9  H   UNL     1      -2.259  -0.130   3.274  0.00  0.00    +0.159 HD
ENDROOT
BRANCH   1  10
ATOM     10  C   UNL     1      -3.785  -2.774   0.873  0.00  0.00    +0.151 C 
BRANCH  10  11
ATOM     11  C   UNL     1      -3.945  -2.973  -0.609  0.00  0.00    -0.028 A 
ATOM     12  C   UNL     1      -5.021  -3.715  -1.115  0.00  0.00    +0.005 A 
ATOM     13  C   UNL     1      -3.025  -2.418  -1.512  0.00  0.00    +0.005 A 
ATOM     14  C   UNL     1      -5.187  -3.876  -2.493  0.00  0.00    +0.000 A 
ATOM     15  C   UNL     1      -3.194  -2.581  -2.887  0.00  0.00    +0.000 A 
ATOM     16  C   UNL     1      -4.276  -3.307  -3.377  0.00  0.00    +0.000 A 
ENDBRANCH  10  11
ENDBRANCH   1  10
TORSDOF 2
ENDMDL
MODEL 5
REMARK VINA RESULT:    -5.058      3.698      5.177
REMARK INTER + INTRA:          -5.804
REMARK INTER:                  -5.664
REMARK INTRA:                  -0.141
REMARK UNBOUND:                -0.155
REMARK  Name = 1550473
REMARK  2 active torsions:
REMARK  status: ('A' for Active; 'I' for Inactive)
REMARK    1  A    between atoms: N_1  and  C_4
REMARK    2  A    between atoms: C_4  and  C_5
REMARK                            x       y       z     vdW  Elec       q    Type
REMARK                         _______ _______ _______ _____ _____    ______ ____
ROOT
ATOM      1  N   UNL     1      -5.191  -3.249  -2.641  0.00  0.00    -0.354 N 
ATOM      2  N   UNL     1      -4.843  -2.751  -4.876  0.00  0.00    -0.372 N 
ATOM      3  N   UNL     1      -3.231  -3.921  -3.737  0.00  0.00    -0.372 N 
ATOM      4  C   UNL     1      -4.422  -3.311  -3.736  0.00  0.00    +0.166 C 
ATOM      5  H   UNL     1      -6.069  -2.746  -2.698  0.00  0.00    +0.163 HD
ATOM      6  H   UNL     1      -4.286  -2.785  -5.719  0.00  0.00    +0.159 HD
ATOM      7  H   UNL     1      -5.742  -2.289  -4.943  0.00  0.00    +0.159 HD
ATOM      8  H   UNL     1      -2.854  -4.359  -2.907  0.00  0.00    +0.159 HD
ATOM      9  H   UNL     1      -2.654  -3.955  -4.567  0.00  0.00    +0.159 HD
ENDROOT
BRANCH   1  10
ATOM     10  C   UNL     1      -4.849  -3.873  -1.365  0.00  0.00    +0.151 C 
BRANCH  10  11
ATOM     11  C   UNL     1      -4.857  -2.824  -0.287  0.00  0.00    -0.028 A 
ATOM     12  C   UNL     1      -6.036  -2.535   0.415  0.00  0.00    +0.005 A 
ATOM     13  C   UNL     1      -3.688  -2.121   0.040  0.00  0.00    +0.005 A 
ATOM     14  C   UNL     1      -6.037  -1.582   1.437  0.00  0.00    +0.000 A 
ATOM     15  C   UNL     1      -3.693  -1.170   1.060  0.00  0.00    +0.000 A 
ATOM     16  C   UNL     1      -4.867  -0.902   1.760  0.00  0.00    +0.000 A 
ENDBRANCH  10  11
ENDBRANCH   1  10
TORSDOF 2
ENDMDL
MODEL 6
REMARK VINA RESULT:    -4.993      2.613      3.497
REMARK INTER + INTRA:          -5.732
REMARK INTER:                  -5.561
REMARK INTRA:                  -0.171
REMARK UNBOUND:                -0.155
REMARK  Name = 1550473
REMARK  2 active torsions:
REMARK  status: ('A' for Active; 'I' for Inactive)
REMARK    1  A    between atoms: N_1  and  C_4
REMARK    2  A    between atoms: C_4  and  C_5
REMARK                            x       y       z     vdW  Elec       q    Type
REMARK                         _______ _______ _______ _____ _____    ______ ____
ROOT
ATOM      1  N   UNL     1      -3.101  -3.564  -1.062  0.00  0.00    -0.354 N 
ATOM      2  N   UNL     1      -2.948  -2.435  -3.079  0.00  0.00    -0.372 N 
ATOM      3  N   UNL     1      -3.334  -1.234  -1.162  0.00  0.00    -0.372 N 
ATOM      4  C   UNL     1      -3.129  -2.417  -1.753  0.00  0.00    +0.166 C 
ATOM      5  H   UNL     1      -2.972  -4.430  -1.573  0.00  0.00    +0.163 HD
ATOM      6  H   UNL     1      -2.960  -1.585  -3.626  0.00  0.00    +0.159 HD
ATOM      7  H   UNL     1      -2.773  -3.298  -3.580  0.00  0.00    +0.159 HD
ATOM      8  H   UNL     1      -3.483  -1.153  -0.165  0.00  0.00    +0.159 HD
ATOM      9  H   UNL     1      -3.361  -0.374  -1.694  0.00  0.00    +0.159 HD
ENDROOT
BRANCH   1  10
ATOM     10  C   UNL     1      -3.234  -3.647   0.391  0.00  0.00    +0.151 C 
BRANCH  10  11
ATOM     11  C   UNL     1      -1.887  -3.940   0.992  0.00  0.00    -0.028 A 
ATOM     12  C   UNL     1      -1.520  -5.256   1.311  0.00  0.00    +0.005 A 
ATOM     13  C   UNL     1      -0.970  -2.907   1.239  0.00  0.00    +0.005 A 
ATOM     14  C   UNL     1      -0.258  -5.532   1.841  0.00  0.00    +0.000 A 
ATOM     15  C   UNL     1       0.289  -3.186   1.770  0.00  0.00    +0.000 A 
ATOM     16  C   UNL     1       0.646  -4.499   2.068  0.00  0.00    +0.000 A 
ENDBRANCH  10  11
ENDBRANCH   1  10
TORSDOF 2
ENDMDL
MODEL 7
REMARK VINA RESULT:    -4.980      3.132      4.183
REMARK INTER + INTRA:          -5.717
REMARK INTER:                  -5.561
REMARK INTRA:                  -0.156
REMARK UNBOUND:                -0.155
REMARK  Name = 1550473
REMARK  2 active torsions:
REMARK  status: ('A' for Active; 'I' for Inactive)
REMARK    1  A    between atoms: N_1  and  C_4
REMARK    2  A    between atoms: C_4  and  C_5
REMARK                            x       y       z     vdW  Elec       q    Type
REMARK                         _______ _______ _______ _____ _____    ______ ____
ROOT
ATOM      1  N   UNL     1      -4.286  -3.808  -1.795  0.00  0.00    -0.354 N 
ATOM      2  N   UNL     1      -3.247  -4.193  -3.828  0.00  0.00    -0.372 N 
ATOM      3  N   UNL     1      -3.736  -2.034  -3.225  0.00  0.00    -0.372 N 
ATOM      4  C   UNL     1      -3.763  -3.340  -2.936  0.00  0.00    +0.166 C 
ATOM      5  H   UNL     1      -4.303  -4.810  -1.649  0.00  0.00    +0.163 HD
ATOM      6  H   UNL     1      -2.842  -3.869  -4.697  0.00  0.00    +0.159 HD
ATOM      7  H   UNL     1      -3.224  -5.192  -3.660  0.00  0.00    +0.159 HD
ATOM      8  H   UNL     1      -4.115  -1.339  -2.596  0.00  0.00    +0.159 HD
ATOM      9  H   UNL     1      -3.346  -1.692  -4.094  0.00  0.00    +0.159 HD
ENDROOT
BRANCH   1  10
ATOM     10  C   UNL     1      -4.825  -2.959  -0.734  0.00  0.00    +0.151 C 
BRANCH  10  11
ATOM     11  C   UNL     1      -3.772  -2.764   0.322  0.00  0.00    -0.028 A 
ATOM     12  C   UNL     1      -2.862  -3.790   0.617  0.00  0.00    +0.005 A 
ATOM     13  C   UNL     1      -3.676  -1.555   1.028  0.00  0.00    +0.005 A 
ATOM     14  C   UNL     1      -1.865  -3.599   1.577  0.00  0.00    +0.000 A 
ATOM     15  C   UNL     1      -2.680  -1.369   1.986  0.00  0.00    +0.000 A 
ATOM     16  C   UNL     1      -1.773  -2.390   2.259  0.00  0.00    +0.000 A 
ENDBRANCH  10  11
ENDBRANCH   1  10
TORSDOF 2
ENDMDL
MODEL 8
REMARK VINA RESULT:    -4.810      2.356      3.121
REMARK INTER + INTRA:          -5.527
REMARK INTER:                  -5.373
REMARK INTRA:                  -0.154
REMARK UNBOUND:                -0.155
REMARK  Name = 1550473
REMARK  2 active torsions:
REMARK  status: ('A' for Active; 'I' for Inactive)
REMARK    1  A    between atoms: N_1  and  C_4
REMARK    2  A    between atoms: C_4  and  C_5
REMARK                            x       y       z     vdW  Elec       q    Type
REMARK                         _______ _______ _______ _____ _____    ______ ____
ROOT
ATOM      1  N   UNL     1      -5.132  -1.024   1.422  0.00  0.00    -0.354 N 
ATOM      2  N   UNL     1      -4.886   0.197   3.374  0.00  0.00    -0.372 N 
ATOM      3  N   UNL     1      -3.047  -0.840   2.476  0.00  0.00    -0.372 N 
ATOM      4  C   UNL     1      -4.354  -0.565   2.411  0.00  0.00    +0.166 C 
ATOM      5  H   UNL     1      -6.121  -0.805   1.446  0.00  0.00    +0.163 HD
ATOM      6  H   UNL     1      -4.324   0.561   4.131  0.00  0.00    +0.159 HD
ATOM      7  H   UNL     1      -5.866   0.453   3.371  0.00  0.00    +0.159 HD
ATOM      8  H   UNL     1      -2.586  -1.414   1.783  0.00  0.00    +0.159 HD
ATOM      9  H   UNL     1      -2.470  -0.495   3.233  0.00  0.00    +0.159 HD
ENDROOT
BRANCH   1  10
ATOM     10  C   UNL     1      -4.640  -1.817   0.296  0.00  0.00    +0.151 C 
BRANCH  10  11
ATOM     11  C   UNL     1      -5.191  -3.212   0.400  0.00  0.00    -0.028 A 
ATOM     12  C   UNL     1      -4.529  -4.287  -0.212  0.00  0.00    +0.005 A 
ATOM     13  C   UNL     1      -6.373  -3.467   1.113  0.00  0.00    +0.005 A 
ATOM     14  C   UNL     1      -5.025  -5.587  -0.091  0.00  0.00    +0.000 A 
ATOM     15  C   UNL     1      -6.865  -4.767   1.231  0.00  0.00    +0.000 A 
ATOM     16  C   UNL     1      -6.189  -5.827   0.631  0.00  0.00    +0.000 A 
ENDBRANCH  10  11
ENDBRANCH   1  10
TORSDOF 2
ENDMDL
MODEL 9
REMARK VINA RESULT:    -4.810      3.495      4.369
REMARK INTER + INTRA:          -5.527
REMARK INTER:                  -5.382
REMARK INTRA:                  -0.145
REMARK UNBOUND:                -0.155
REMARK  Name = 1550473
REMARK  2 active torsions:
REMARK  status: ('A' for Active; 'I' for Inactive)
REMARK    1  A    between atoms: N_1  and  C_4
REMARK    2  A    between atoms: C_4  and  C_5
REMARK                            x       y       z     vdW  Elec       q    Type
REMARK                         _______ _______ _______ _____ _____    ______ ____
ROOT
ATOM      1  N   UNL     1      -7.252  -3.082  -1.463  0.00  0.00    -0.354 N 
ATOM      2  N   UNL     1      -9.399  -2.571  -0.761  0.00  0.00    -0.372 N 
ATOM      3  N   UNL     1      -8.530  -4.635  -0.260  0.00  0.00    -0.372 N 
ATOM      4  C   UNL     1      -8.380  -3.435  -0.832  0.00  0.00    +0.166 C 
ATOM      5  H   UNL     1      -7.211  -2.169  -1.901  0.00  0.00    +0.163 HD
ATOM      6  H   UNL     1     -10.261  -2.808  -0.288  0.00  0.00    +0.159 HD
ATOM      7  H   UNL     1      -9.339  -1.642  -1.161  0.00  0.00    +0.159 HD
ATOM      8  H   UNL     1      -7.801  -5.335  -0.283  0.00  0.00    +0.159 HD
ATOM      9  H   UNL     1      -9.390  -4.895   0.207  0.00  0.00    +0.159 HD
ENDROOT
BRANCH   1  10
ATOM     10  C   UNL     1      -6.064  -3.929  -1.549  0.00  0.00    +0.151 C 
BRANCH  10  11
ATOM     11  C   UNL     1      -4.876  -3.165  -1.032  0.00  0.00    -0.028 A 
ATOM     12  C   UNL     1      -4.827  -2.746   0.306  0.00  0.00    +0.005 A 
ATOM     13  C   UNL     1      -3.795  -2.861  -1.873  0.00  0.00    +0.005 A 
ATOM     14  C   UNL     1      -3.711  -2.063   0.794  0.00  0.00    +0.000 A 
ATOM     15  C   UNL     1      -2.683  -2.178  -1.381  0.00  0.00    +0.000 A 
ATOM     16  C   UNL     1      -2.640  -1.781  -0.047  0.00  0.00    +0.000 A 
ENDBRANCH  10  11
ENDBRANCH   1  10
TORSDOF 2
ENDMDL
