MODEL 1
REMARK VINA RESULT:    -5.457      0.000      0.000
REMARK INTER + INTRA:          -6.201
REMARK INTER:                  -6.094
REMARK INTRA:                  -0.106
REMARK UNBOUND:                -0.106
REMARK  Name = 1550473
REMARK  2 active torsions:
REMARK  status: ('A' for Active; 'I' for Inactive)
REMARK    1  A    between atoms: N_1  and  C_4
REMARK    2  A    between atoms: C_4  and  C_5
REMARK                            x       y       z     vdW  Elec       q    Type
REMARK                         _______ _______ _______ _____ _____    ______ ____
ROOT
ATOM      1  N   UNL     1       5.828  -9.199 -16.388  0.00  0.00    -0.354 N 
ATOM      2  N   UNL     1       7.355  -8.840 -14.684  0.00  0.00    -0.372 N 
ATOM      3  N   UNL     1       7.721  -7.861 -16.727  0.00  0.00    -0.372 N 
ATOM      4  C   UNL     1       6.959  -8.634 -15.946  0.00  0.00    +0.166 C 
ATOM      5  H   UNL     1       5.311  -9.800 -15.756  0.00  0.00    +0.163 HD
ATOM      6  H   UNL     1       8.202  -8.424 -14.322  0.00  0.00    +0.159 HD
ATOM      7  H   UNL     1       6.813  -9.403 -14.041  0.00  0.00    +0.159 HD
ATOM      8  H   UNL     1       7.481  -7.671 -17.691  0.00  0.00    +0.159 HD
ATOM      9  H   UNL     1       8.579  -7.445 -16.386  0.00  0.00    +0.159 HD
ENDROOT
BRANCH   1  10
ATOM     10  C   UNL     1       5.281  -8.995 -17.728  0.00  0.00    +0.151 C 
BRANCH  10  11
ATOM     11  C   UNL     1       3.952  -9.692 -17.828  0.00  0.00    -0.028 A 
ATOM     12  C   UNL     1       3.808 -11.017 -17.391  0.00  0.00    +0.005 A 
ATOM     13  C   UNL     1       2.831  -9.030 -18.352  0.00  0.00    +0.005 A 
ATOM     14  C   UNL     1       2.567 -11.655 -17.455  0.00  0.00    +0.000 A 
ATOM     15  C   UNL     1       1.593  -9.671 -18.416  0.00  0.00    +0.000 A 
ATOM     16  C   UNL     1       1.461 -10.982 -17.965  0.00  0.00    +0.000 A 
ENDBRANCH  10  11
ENDBRANCH   1  10
TORSDOF 2
ENDMDL
MODEL 2
REMARK VINA RESULT:    -5.302      1.176      2.092
REMARK INTER + INTRA:          -6.028
REMARK INTER:                  -5.901
REMARK INTRA:                  -0.127
REMARK UNBOUND:                -0.106
REMARK  Name = 1550473
REMARK  2 active torsions:
REMARK  status: ('A' for Active; 'I' for Inactive)
REMARK    1  A    between atoms: N_1  and  C_4
REMARK    2  A    between atoms: C_4  and  C_5
REMARK                            x       y       z     vdW  Elec       q    Type
REMARK                         _______ _______ _______ _____ _____    ______ ____
ROOT
ATOM      1  N   UNL     1       5.001  -8.860 -17.407  0.00  0.00    -0.354 N 
ATOM      2  N   UNL     1       7.148  -8.302 -16.742  0.00  0.00    -0.372 N 
ATOM      3  N   UNL     1       6.540  -7.960 -18.928  0.00  0.00    -0.372 N 
ATOM      4  C   UNL     1       6.216  -8.377 -17.700  0.00  0.00    +0.166 C 
ATOM      5  H   UNL     1       4.828  -9.188 -16.464  0.00  0.00    +0.163 HD
ATOM      6  H   UNL     1       8.073  -7.939 -16.932  0.00  0.00    +0.159 HD
ATOM      7  H   UNL     1       6.958  -8.589 -15.789  0.00  0.00    +0.159 HD
ATOM      8  H   UNL     1       5.884  -7.995 -19.696  0.00  0.00    +0.159 HD
ATOM      9  H   UNL     1       7.464  -7.604 -19.140  0.00  0.00    +0.159 HD
ENDROOT
BRANCH   1  10
ATOM     10  C   UNL     1       3.899  -8.934 -18.364  0.00  0.00    +0.151 C 
BRANCH  10  11
ATOM     11  C   UNL     1       3.001 -10.082 -17.993  0.00  0.00    -0.028 A 
ATOM     12  C   UNL     1       1.623 -10.020 -18.246  0.00  0.00    +0.005 A 
ATOM     13  C   UNL     1       3.524 -11.237 -17.392  0.00  0.00    +0.005 A 
ATOM     14  C   UNL     1       0.794 -11.098 -17.929  0.00  0.00    +0.000 A 
ATOM     15  C   UNL     1       2.693 -12.312 -17.075  0.00  0.00    +0.000 A 
ATOM     16  C   UNL     1       1.328 -12.243 -17.346  0.00  0.00    +0.000 A 
ENDBRANCH  10  11
ENDBRANCH   1  10
TORSDOF 2
ENDMDL
MODEL 3
REMARK VINA RESULT:    -5.297      2.674      3.480
REMARK INTER + INTRA:          -6.023
REMARK INTER:                  -5.848
REMARK INTRA:                  -0.175
REMARK UNBOUND:                -0.106
REMARK  Name = 1550473
REMARK  2 active torsions:
REMARK  status: ('A' for Active; 'I' for Inactive)
REMARK    1  A    between atoms: N_1  and  C_4
REMARK    2  A    between atoms: C_4  and  C_5
REMARK                            x       y       z     vdW  Elec       q    Type
REMARK                         _______ _______ _______ _____ _____    ______ ____
ROOT
ATOM      1  N   UNL     1       4.885  -9.141 -19.503  0.00  0.00    -0.354 N 
ATOM      2  N   UNL     1       5.280  -8.799 -21.759  0.00  0.00    -0.372 N 
ATOM      3  N   UNL     1       3.573  -7.649 -20.746  0.00  0.00    -0.372 N 
ATOM      4  C   UNL     1       4.574  -8.530 -20.654  0.00  0.00    +0.166 C 
ATOM      5  H   UNL     1       5.636  -9.822 -19.506  0.00  0.00    +0.163 HD
ATOM      6  H   UNL     1       5.072  -8.351 -22.641  0.00  0.00    +0.159 HD
ATOM      7  H   UNL     1       6.060  -9.445 -21.749  0.00  0.00    +0.159 HD
ATOM      8  H   UNL     1       2.998  -7.407 -19.950  0.00  0.00    +0.159 HD
ATOM      9  H   UNL     1       3.341  -7.199 -21.622  0.00  0.00    +0.159 HD
ENDROOT
BRANCH   1  10
ATOM     10  C   UNL     1       4.213  -8.879 -18.231  0.00  0.00    +0.151 C 
BRANCH  10  11
ATOM     11  C   UNL     1       3.191  -9.955 -17.984  0.00  0.00    -0.028 A 
ATOM     12  C   UNL     1       3.576 -11.193 -17.448  0.00  0.00    +0.005 A 
ATOM     13  C   UNL     1       1.836  -9.741 -18.279  0.00  0.00    +0.005 A 
ATOM     14  C   UNL     1       2.624 -12.181 -17.191  0.00  0.00    +0.000 A 
ATOM     15  C   UNL     1       0.888 -10.731 -18.021  0.00  0.00    +0.000 A 
ATOM     16  C   UNL     1       1.282 -11.950 -17.475  0.00  0.00    +0.000 A 
ENDBRANCH  10  11
ENDBRANCH   1  10
TORSDOF 2
ENDMDL
MODEL 4
REMARK VINA RESULT:    -5.183      4.083      5.032
REMARK INTER + INTRA:          -5.895
REMARK INTER:                  -5.722
REMARK INTRA:                  -0.173
REMARK UNBOUND:                -0.106
REMARK  Name = 1550473
REMARK  2 active torsions:
REMARK  status: ('A' for Active; 'I' for Inactive)
REMARK    1  A    between atoms: N_1  and  C_4
REMARK    2  A    between atoms: C_4  and  C_5
REMARK                            x       y       z     vdW  Elec       q    Type
REMARK                         _______ _______ _______ _____ _____    ______ ____
ROOT
ATOM      1  N   UNL     1       3.075  -9.150 -22.282  0.00  0.00    -0.354 N 
ATOM      2  N   UNL     1       2.689  -7.107 -23.302  0.00  0.00    -0.372 N 
ATOM      3  N   UNL     1       3.977  -7.174 -21.404  0.00  0.00    -0.372 N 
ATOM      4  C   UNL     1       3.251  -7.823 -22.320  0.00  0.00    +0.166 C 
ATOM      5  H   UNL     1       2.488  -9.579 -22.990  0.00  0.00    +0.163 HD
ATOM      6  H   UNL     1       2.807  -6.104 -23.358  0.00  0.00    +0.159 HD
ATOM      7  H   UNL     1       2.141  -7.543 -24.033  0.00  0.00    +0.159 HD
ATOM      8  H   UNL     1       4.422  -7.656 -20.634  0.00  0.00    +0.159 HD
ATOM      9  H   UNL     1       4.097  -6.169 -21.437  0.00  0.00    +0.159 HD
ENDROOT
BRANCH   1  10
ATOM     10  C   UNL     1       3.687 -10.029 -21.287  0.00  0.00    +0.151 C 
BRANCH  10  11
ATOM     11  C   UNL     1       2.668 -10.362 -20.233  0.00  0.00    -0.028 A 
ATOM     12  C   UNL     1       1.803 -11.453 -20.400  0.00  0.00    +0.005 A 
ATOM     13  C   UNL     1       2.568  -9.595 -19.062  0.00  0.00    +0.005 A 
ATOM     14  C   UNL     1       0.876 -11.782 -19.407  0.00  0.00    +0.000 A 
ATOM     15  C   UNL     1       1.641  -9.926 -18.074  0.00  0.00    +0.000 A 
ATOM     16  C   UNL     1       0.797 -11.021 -18.246  0.00  0.00    +0.000 A 
ENDBRANCH  10  11
ENDBRANCH   1  10
TORSDOF 2
ENDMDL
MODEL 5
REMARK VINA RESULT:    -4.987      8.889     10.208
REMARK INTER + INTRA:          -5.677
REMARK INTER:                  -5.506
REMARK INTRA:                  -0.171
REMARK UNBOUND:                -0.106
REMARK  Name = 1550473
REMARK  2 active torsions:
REMARK  status: ('A' for Active; 'I' for Inactive)
REMARK    1  A    between atoms: N_1  and  C_4
REMARK    2  A    between atoms: C_4  and  C_5
REMARK                            x       y       z     vdW  Elec       q    Type
REMARK                         _______ _______ _______ _____ _____    ______ ____
ROOT
ATOM      1  N   UNL     1      10.135  -0.341 -13.868  0.00  0.00    -0.354 N 
ATOM      2  N   UNL     1      11.259  -1.093 -11.988  0.00  0.00    -0.372 N 
ATOM      3  N   UNL     1      10.603  -2.618 -13.572  0.00  0.00    -0.372 N 
ATOM      4  C   UNL     1      10.658  -1.348 -13.156  0.00  0.00    +0.166 C 
ATOM      5  H   UNL     1      10.183   0.596 -13.483  0.00  0.00    +0.163 HD
ATOM      6  H   UNL     1      11.666  -1.833 -11.430  0.00  0.00    +0.159 HD
ATOM      7  H   UNL     1      11.346  -0.151 -11.628  0.00  0.00    +0.159 HD
ATOM      8  H   UNL     1      10.158  -2.877 -14.442  0.00  0.00    +0.159 HD
ATOM      9  H   UNL     1      10.994  -3.373 -13.023  0.00  0.00    +0.159 HD
ENDROOT
BRANCH   1  10
ATOM     10  C   UNL     1       9.507  -0.504 -15.178  0.00  0.00    +0.151 C 
BRANCH  10  11
ATOM     11  C   UNL     1       8.013  -0.468 -15.013  0.00  0.00    -0.028 A 
ATOM     12  C   UNL     1       7.204  -1.430 -15.636  0.00  0.00    +0.005 A 
ATOM     13  C   UNL     1       7.399   0.522 -14.231  0.00  0.00    +0.005 A 
ATOM     14  C   UNL     1       5.819  -1.415 -15.460  0.00  0.00    +0.000 A 
ATOM     15  C   UNL     1       6.015   0.535 -14.058  0.00  0.00    +0.000 A 
ATOM     16  C   UNL     1       5.226  -0.435 -14.670  0.00  0.00    +0.000 A 
ENDBRANCH  10  11
ENDBRANCH   1  10
TORSDOF 2
ENDMDL
MODEL 6
REMARK VINA RESULT:    -4.774      1.702      2.391
REMARK INTER + INTRA:          -5.439
REMARK INTER:                  -5.309
REMARK INTRA:                  -0.129
REMARK UNBOUND:                -0.106
REMARK  Name = 1550473
REMARK  2 active torsions:
REMARK  status: ('A' for Active; 'I' for Inactive)
REMARK    1  A    between atoms: N_1  and  C_4
REMARK    2  A    between atoms: C_4  and  C_5
REMARK                            x       y       z     vdW  Elec       q    Type
REMARK                         _______ _______ _______ _____ _____    ______ ____
ROOT
ATOM      1  N   UNL     1       6.105 -11.118 -17.285  0.00  0.00    -0.354 N 
ATOM      2  N   UNL     1       7.481 -12.583 -16.134  0.00  0.00    -0.372 N 
ATOM      3  N   UNL     1       7.024 -10.533 -15.210  0.00  0.00    -0.372 N 
ATOM      4  C   UNL     1       6.861 -11.399 -16.215  0.00  0.00    +0.166 C 
ATOM      5  H   UNL     1       6.047 -11.806 -18.027  0.00  0.00    +0.163 HD
ATOM      6  H   UNL     1       8.055 -12.825 -15.337  0.00  0.00    +0.159 HD
ATOM      7  H   UNL     1       7.384 -13.286 -16.856  0.00  0.00    +0.159 HD
ATOM      8  H   UNL     1       6.588  -9.621 -15.214  0.00  0.00    +0.159 HD
ATOM      9  H   UNL     1       7.604 -10.752 -14.410  0.00  0.00    +0.159 HD
ENDROOT
BRANCH   1  10
ATOM     10  C   UNL     1       5.345  -9.880 -17.446  0.00  0.00    +0.151 C 
BRANCH  10  11
ATOM     11  C   UNL     1       3.894 -10.218 -17.652  0.00  0.00    -0.028 A 
ATOM     12  C   UNL     1       3.011  -9.268 -18.185  0.00  0.00    +0.005 A 
ATOM     13  C   UNL     1       3.397 -11.488 -17.321  0.00  0.00    +0.005 A 
ATOM     14  C   UNL     1       1.669  -9.591 -18.405  0.00  0.00    +0.000 A 
ATOM     15  C   UNL     1       2.057 -11.806 -17.541  0.00  0.00    +0.000 A 
ATOM     16  C   UNL     1       1.194 -10.858 -18.085  0.00  0.00    +0.000 A 
ENDBRANCH  10  11
ENDBRANCH   1  10
TORSDOF 2
ENDMDL
MODEL 7
REMARK VINA RESULT:    -4.488      4.719      5.956
REMARK INTER + INTRA:          -5.119
REMARK INTER:                  -5.009
REMARK INTRA:                  -0.110
REMARK UNBOUND:                -0.106
REMARK  Name = 1550473
REMARK  2 active torsions:
REMARK  status: ('A' for Active; 'I' for Inactive)
REMARK    1  A    between atoms: N_1  and  C_4
REMARK    2  A    between atoms: C_4  and  C_5
REMARK                            x       y       z     vdW  Elec       q    Type
REMARK                         _______ _______ _______ _____ _____    ______ ____
ROOT
ATOM      1  N   UNL     1       3.860  -6.888 -22.119  0.00  0.00    -0.354 N 
ATOM      2  N   UNL     1       3.901  -5.127 -23.622  0.00  0.00    -0.372 N 
ATOM      3  N   UNL     1       2.833  -7.069 -24.218  0.00  0.00    -0.372 N 
ATOM      4  C   UNL     1       3.530  -6.375 -23.311  0.00  0.00    +0.166 C 
ATOM      5  H   UNL     1       4.415  -6.322 -21.488  0.00  0.00    +0.163 HD
ATOM      6  H   UNL     1       3.663  -4.711 -24.513  0.00  0.00    +0.159 HD
ATOM      7  H   UNL     1       4.416  -4.546 -22.971  0.00  0.00    +0.159 HD
ATOM      8  H   UNL     1       2.528  -8.017 -24.047  0.00  0.00    +0.159 HD
ATOM      9  H   UNL     1       2.596  -6.674 -25.119  0.00  0.00    +0.159 HD
ENDROOT
BRANCH   1  10
ATOM     10  C   UNL     1       3.458  -8.217 -21.661  0.00  0.00    +0.151 C 
BRANCH  10  11
ATOM     11  C   UNL     1       3.994  -8.442 -20.274  0.00  0.00    -0.028 A 
ATOM     12  C   UNL     1       5.308  -8.073 -19.950  0.00  0.00    +0.005 A 
ATOM     13  C   UNL     1       3.191  -9.018 -19.278  0.00  0.00    +0.005 A 
ATOM     14  C   UNL     1       5.796  -8.254 -18.654  0.00  0.00    +0.000 A 
ATOM     15  C   UNL     1       3.683  -9.198 -17.985  0.00  0.00    +0.000 A 
ATOM     16  C   UNL     1       4.984  -8.814 -17.673  0.00  0.00    +0.000 A 
ENDBRANCH  10  11
ENDBRANCH   1  10
TORSDOF 2
ENDMDL
MODEL 8
REMARK VINA RESULT:    -4.461      8.339      9.505
REMARK INTER + INTRA:          -5.089
REMARK INTER:                  -4.934
REMARK INTRA:                  -0.155
REMARK UNBOUND:                -0.106
REMARK  Name = 1550473
REMARK  2 active torsions:
REMARK  status: ('A' for Active; 'I' for Inactive)
REMARK    1  A    between atoms: N_1  and  C_4
REMARK    2  A    between atoms: C_4  and  C_5
REMARK                            x       y       z     vdW  Elec       q    Type
REMARK                         _______ _______ _______ _____ _____    ______ ____
ROOT
ATOM      1  N   UNL     1       9.623  -2.085 -16.022  0.00  0.00    -0.354 N 
ATOM      2  N   UNL     1      11.373  -3.250 -15.050  0.00  0.00    -0.372 N 
ATOM      3  N   UNL     1       9.420  -4.363 -15.510  0.00  0.00    -0.372 N 
ATOM      4  C   UNL     1      10.125  -3.227 -15.533  0.00  0.00    +0.166 C 
ATOM      5  H   UNL     1      10.198  -1.251 -15.983  0.00  0.00    +0.163 HD
ATOM      6  H   UNL     1      11.780  -4.097 -14.679  0.00  0.00    +0.159 HD
ATOM      7  H   UNL     1      11.962  -2.426 -15.056  0.00  0.00    +0.159 HD
ATOM      8  H   UNL     1       8.470  -4.411 -15.854  0.00  0.00    +0.159 HD
ATOM      9  H   UNL     1       9.806  -5.219 -15.131  0.00  0.00    +0.159 HD
ENDROOT
BRANCH   1  10
ATOM     10  C   UNL     1       8.294  -1.966 -16.620  0.00  0.00    +0.151 C 
BRANCH  10  11
ATOM     11  C   UNL     1       7.420  -1.143 -15.715  0.00  0.00    -0.028 A 
ATOM     12  C   UNL     1       7.952  -0.054 -15.008  0.00  0.00    +0.005 A 
ATOM     13  C   UNL     1       6.057  -1.442 -15.565  0.00  0.00    +0.005 A 
ATOM     14  C   UNL     1       7.133   0.729 -14.190  0.00  0.00    +0.000 A 
ATOM     15  C   UNL     1       5.243  -0.658 -14.747  0.00  0.00    +0.000 A 
ATOM     16  C   UNL     1       5.781   0.428 -14.062  0.00  0.00    +0.000 A 
ENDBRANCH  10  11
ENDBRANCH   1  10
TORSDOF 2
ENDMDL
MODEL 9
REMARK VINA RESULT:    -4.373     32.843     33.658
REMARK INTER + INTRA:          -4.991
REMARK INTER:                  -4.867
REMARK INTRA:                  -0.124
REMARK UNBOUND:                -0.106
REMARK  Name = 1550473
REMARK  2 active torsions:
REMARK  status: ('A' for Active; 'I' for Inactive)
REMARK    1  A    between atoms: N_1  and  C_4
REMARK    2  A    between atoms: C_4  and  C_5
REMARK                            x       y       z     vdW  Elec       q    Type
REMARK                         _______ _______ _______ _____ _____    ______ ____
ROOT
ATOM      1  N   UNL     1      -4.084  -1.214  15.551  0.00  0.00    -0.354 N 
ATOM      2  N   UNL     1      -4.354  -0.612  17.771  0.00  0.00    -0.372 N 
ATOM      3  N   UNL     1      -2.728   0.427  16.529  0.00  0.00    -0.372 N 
ATOM      4  C   UNL     1      -3.718  -0.469  16.602  0.00  0.00    +0.166 C 
ATOM      5  H   UNL     1      -4.822  -1.897  15.679  0.00  0.00    +0.163 HD
ATOM      6  H   UNL     1      -4.102  -0.061  18.580  0.00  0.00    +0.159 HD
ATOM      7  H   UNL     1      -5.122  -1.263  17.884  0.00  0.00    +0.159 HD
ATOM      8  H   UNL     1      -2.205   0.579  15.677  0.00  0.00    +0.159 HD
ATOM      9  H   UNL     1      -2.454   0.980  17.332  0.00  0.00    +0.159 HD
ENDROOT
BRANCH   1  10
ATOM     10  C   UNL     1      -3.492  -1.098  14.219  0.00  0.00    +0.151 C 
BRANCH  10  11
ATOM     11  C   UNL     1      -4.568  -1.281  13.185  0.00  0.00    -0.028 A 
ATOM     12  C   UNL     1      -4.459  -2.288  12.215  0.00  0.00    +0.005 A 
ATOM     13  C   UNL     1      -5.703  -0.455  13.174  0.00  0.00    +0.005 A 
ATOM     14  C   UNL     1      -5.473  -2.479  11.273  0.00  0.00    +0.000 A 
ATOM     15  C   UNL     1      -6.712  -0.648  12.231  0.00  0.00    +0.000 A 
ATOM     16  C   UNL     1      -6.598  -1.661  11.282  0.00  0.00    +0.000 A 
ENDBRANCH  10  11
ENDBRANCH   1  10
TORSDOF 2
ENDMDL
