MODEL 1
REMARK VINA RESULT:    -5.715      0.000      0.000
REMARK INTER + INTRA:          -6.517
REMARK INTER:                  -6.383
REMARK INTRA:                  -0.135
REMARK UNBOUND:                -0.135
REMARK  Name = 1550473
REMARK  2 active torsions:
REMARK  status: ('A' for Active; 'I' for Inactive)
REMARK    1  A    between atoms: N_1  and  C_4
REMARK    2  A    between atoms: C_4  and  C_5
REMARK                            x       y       z     vdW  Elec       q    Type
REMARK                         _______ _______ _______ _____ _____    ______ ____
ROOT
ATOM      1  N   UNL     1     -11.144  -8.409  -2.500  0.00  0.00    -0.354 N 
ATOM      2  N   UNL     1     -12.919  -8.461  -3.988  0.00  0.00    -0.372 N 
ATOM      3  N   UNL     1     -13.187  -7.387  -1.978  0.00  0.00    -0.372 N 
ATOM      4  C   UNL     1     -12.407  -8.084  -2.810  0.00  0.00    +0.166 C 
ATOM      5  H   UNL     1     -10.615  -8.965  -3.162  0.00  0.00    +0.163 HD
ATOM      6  H   UNL     1     -13.867  -8.227  -4.250  0.00  0.00    +0.159 HD
ATOM      7  H   UNL     1     -12.372  -8.977  -4.666  0.00  0.00    +0.159 HD
ATOM      8  H   UNL     1     -12.862  -7.077  -1.072  0.00  0.00    +0.159 HD
ATOM      9  H   UNL     1     -14.143  -7.153  -2.218  0.00  0.00    +0.159 HD
ENDROOT
BRANCH   1  10
ATOM     10  C   UNL     1     -10.474  -8.001  -1.267  0.00  0.00    +0.151 C 
BRANCH  10  11
ATOM     11  C   UNL     1      -9.618  -9.135  -0.775  0.00  0.00    -0.028 A 
ATOM     12  C   UNL     1     -10.018 -10.466  -0.969  0.00  0.00    +0.005 A 
ATOM     13  C   UNL     1      -8.402  -8.886  -0.120  0.00  0.00    +0.005 A 
ATOM     14  C   UNL     1      -9.208 -11.520  -0.539  0.00  0.00    +0.000 A 
ATOM     15  C   UNL     1      -7.597  -9.942   0.309  0.00  0.00    +0.000 A 
ATOM     16  C   UNL     1      -7.999 -11.258   0.097  0.00  0.00    +0.000 A 
ENDBRANCH  10  11
ENDBRANCH   1  10
TORSDOF 2
ENDMDL
MODEL 2
REMARK VINA RESULT:    -5.671     10.951     12.455
REMARK INTER + INTRA:          -6.468
REMARK INTER:                  -6.330
REMARK INTRA:                  -0.139
REMARK UNBOUND:                -0.135
REMARK  Name = 1550473
REMARK  2 active torsions:
REMARK  status: ('A' for Active; 'I' for Inactive)
REMARK    1  A    between atoms: N_1  and  C_4
REMARK    2  A    between atoms: C_4  and  C_5
REMARK                            x       y       z     vdW  Elec       q    Type
REMARK                         _______ _______ _______ _____ _____    ______ ____
ROOT
ATOM      1  N   UNL     1      -0.227  -6.330   2.581  0.00  0.00    -0.354 N 
ATOM      2  N   UNL     1       1.260  -7.614   3.808  0.00  0.00    -0.372 N 
ATOM      3  N   UNL     1       1.017  -8.037   1.566  0.00  0.00    -0.372 N 
ATOM      4  C   UNL     1       0.674  -7.320   2.641  0.00  0.00    +0.166 C 
ATOM      5  H   UNL     1      -0.465  -5.844   3.438  0.00  0.00    +0.163 HD
ATOM      6  H   UNL     1       1.946  -8.353   3.883  0.00  0.00    +0.159 HD
ATOM      7  H   UNL     1       1.054  -7.096   4.654  0.00  0.00    +0.159 HD
ATOM      8  H   UNL     1       0.606  -7.869   0.657  0.00  0.00    +0.159 HD
ATOM      9  H   UNL     1       1.692  -8.789   1.624  0.00  0.00    +0.159 HD
ENDROOT
BRANCH   1  10
ATOM     10  C   UNL     1      -0.883  -5.895   1.350  0.00  0.00    +0.151 C 
BRANCH  10  11
ATOM     11  C   UNL     1      -0.563  -4.445   1.108  0.00  0.00    -0.028 A 
ATOM     12  C   UNL     1      -1.587  -3.526   0.837  0.00  0.00    +0.005 A 
ATOM     13  C   UNL     1       0.761  -3.984   1.155  0.00  0.00    +0.005 A 
ATOM     14  C   UNL     1      -1.294  -2.174   0.642  0.00  0.00    +0.000 A 
ATOM     15  C   UNL     1       1.050  -2.634   0.959  0.00  0.00    +0.000 A 
ATOM     16  C   UNL     1       0.022  -1.729   0.705  0.00  0.00    +0.000 A 
ENDBRANCH  10  11
ENDBRANCH   1  10
TORSDOF 2
ENDMDL
MODEL 3
REMARK VINA RESULT:    -5.629     11.276     12.893
REMARK INTER + INTRA:          -6.422
REMARK INTER:                  -6.289
REMARK INTRA:                  -0.133
REMARK UNBOUND:                -0.135
REMARK  Name = 1550473
REMARK  2 active torsions:
REMARK  status: ('A' for Active; 'I' for Inactive)
REMARK    1  A    between atoms: N_1  and  C_4
REMARK    2  A    between atoms: C_4  and  C_5
REMARK                            x       y       z     vdW  Elec       q    Type
REMARK                         _______ _______ _______ _____ _____    ______ ____
ROOT
ATOM      1  N   UNL     1       0.246  -5.782   1.582  0.00  0.00    -0.354 N 
ATOM      2  N   UNL     1       0.704  -7.758   2.700  0.00  0.00    -0.372 N 
ATOM      3  N   UNL     1      -1.358  -6.786   2.963  0.00  0.00    -0.372 N 
ATOM      4  C   UNL     1      -0.142  -6.762   2.409  0.00  0.00    +0.166 C 
ATOM      5  H   UNL     1       1.192  -5.805   1.218  0.00  0.00    +0.163 HD
ATOM      6  H   UNL     1       0.438  -8.513   3.317  0.00  0.00    +0.159 HD
ATOM      7  H   UNL     1       1.632  -7.803   2.298  0.00  0.00    +0.159 HD
ATOM      8  H   UNL     1      -2.041  -6.061   2.789  0.00  0.00    +0.159 HD
ATOM      9  H   UNL     1      -1.639  -7.527   3.593  0.00  0.00    +0.159 HD
ENDROOT
BRANCH   1  10
ATOM     10  C   UNL     1      -0.616  -4.680   1.158  0.00  0.00    +0.151 C 
BRANCH  10  11
ATOM     11  C   UNL     1       0.218  -3.440   0.989  0.00  0.00    -0.028 A 
ATOM     12  C   UNL     1      -0.386  -2.212   0.681  0.00  0.00    +0.005 A 
ATOM     13  C   UNL     1       1.612  -3.486   1.140  0.00  0.00    +0.005 A 
ATOM     14  C   UNL     1       0.385  -1.055   0.553  0.00  0.00    +0.000 A 
ATOM     15  C   UNL     1       2.379  -2.328   1.010  0.00  0.00    +0.000 A 
ATOM     16  C   UNL     1       1.765  -1.112   0.719  0.00  0.00    +0.000 A 
ENDBRANCH  10  11
ENDBRANCH   1  10
TORSDOF 2
ENDMDL
MODEL 4
REMARK VINA RESULT:    -5.628     12.875     14.190
REMARK INTER + INTRA:          -6.420
REMARK INTER:                  -6.285
REMARK INTRA:                  -0.135
REMARK UNBOUND:                -0.135
REMARK  Name = 1550473
REMARK  2 active torsions:
REMARK  status: ('A' for Active; 'I' for Inactive)
REMARK    1  A    between atoms: N_1  and  C_4
REMARK    2  A    between atoms: C_4  and  C_5
REMARK                            x       y       z     vdW  Elec       q    Type
REMARK                         _______ _______ _______ _____ _____    ______ ____
ROOT
ATOM      1  N   UNL     1       2.033  -4.665   1.643  0.00  0.00    -0.354 N 
ATOM      2  N   UNL     1       2.017  -6.980   1.699  0.00  0.00    -0.372 N 
ATOM      3  N   UNL     1       3.798  -5.907   0.730  0.00  0.00    -0.372 N 
ATOM      4  C   UNL     1       2.618  -5.835   1.355  0.00  0.00    +0.166 C 
ATOM      5  H   UNL     1       1.124  -4.678   2.092  0.00  0.00    +0.163 HD
ATOM      6  H   UNL     1       2.436  -7.878   1.498  0.00  0.00    +0.159 HD
ATOM      7  H   UNL     1       1.130  -6.990   2.189  0.00  0.00    +0.159 HD
ATOM      8  H   UNL     1       4.301  -5.079   0.438  0.00  0.00    +0.159 HD
ATOM      9  H   UNL     1       4.228  -6.796   0.510  0.00  0.00    +0.159 HD
ENDROOT
BRANCH   1  10
ATOM     10  C   UNL     1       2.630  -3.360   1.360  0.00  0.00    +0.151 C 
BRANCH  10  11
ATOM     11  C   UNL     1       1.545  -2.401   0.956  0.00  0.00    -0.028 A 
ATOM     12  C   UNL     1       0.214  -2.832   0.859  0.00  0.00    +0.005 A 
ATOM     13  C   UNL     1       1.841  -1.059   0.674  0.00  0.00    +0.005 A 
ATOM     14  C   UNL     1      -0.799  -1.934   0.513  0.00  0.00    +0.000 A 
ATOM     15  C   UNL     1       0.827  -0.165   0.327  0.00  0.00    +0.000 A 
ATOM     16  C   UNL     1      -0.493  -0.603   0.249  0.00  0.00    +0.000 A 
ENDBRANCH  10  11
ENDBRANCH   1  10
TORSDOF 2
ENDMDL
MODEL 5
REMARK VINA RESULT:    -5.378     11.062     12.597
REMARK INTER + INTRA:          -6.141
REMARK INTER:                  -6.074
REMARK INTRA:                  -0.067
REMARK UNBOUND:                -0.135
REMARK  Name = 1550473
REMARK  2 active torsions:
REMARK  status: ('A' for Active; 'I' for Inactive)
REMARK    1  A    between atoms: N_1  and  C_4
REMARK    2  A    between atoms: C_4  and  C_5
REMARK                            x       y       z     vdW  Elec       q    Type
REMARK                         _______ _______ _______ _____ _____    ______ ____
ROOT
ATOM      1  N   UNL     1      -1.431  -4.223   2.206  0.00  0.00    -0.354 N 
ATOM      2  N   UNL     1      -1.026  -6.341   3.052  0.00  0.00    -0.372 N 
ATOM      3  N   UNL     1      -1.455  -6.105   0.810  0.00  0.00    -0.372 N 
ATOM      4  C   UNL     1      -1.307  -5.543   2.014  0.00  0.00    +0.166 C 
ATOM      5  H   UNL     1      -1.337  -3.863   3.149  0.00  0.00    +0.163 HD
ATOM      6  H   UNL     1      -0.924  -7.340   2.937  0.00  0.00    +0.159 HD
ATOM      7  H   UNL     1      -0.888  -5.973   3.985  0.00  0.00    +0.159 HD
ATOM      8  H   UNL     1      -1.674  -5.559  -0.013  0.00  0.00    +0.159 HD
ATOM      9  H   UNL     1      -1.368  -7.105   0.677  0.00  0.00    +0.159 HD
ENDROOT
BRANCH   1  10
ATOM     10  C   UNL     1      -1.682  -3.261   1.134  0.00  0.00    +0.151 C 
BRANCH  10  11
ATOM     11  C   UNL     1      -0.447  -2.432   0.918  0.00  0.00    -0.028 A 
ATOM     12  C   UNL     1       0.826  -2.983   1.128  0.00  0.00    +0.005 A 
ATOM     13  C   UNL     1      -0.541  -1.097   0.497  0.00  0.00    +0.005 A 
ATOM     14  C   UNL     1       1.975  -2.223   0.898  0.00  0.00    +0.000 A 
ATOM     15  C   UNL     1       0.609  -0.341   0.270  0.00  0.00    +0.000 A 
ATOM     16  C   UNL     1       1.867  -0.905   0.468  0.00  0.00    +0.000 A 
ENDBRANCH  10  11
ENDBRANCH   1  10
TORSDOF 2
ENDMDL
MODEL 6
REMARK VINA RESULT:    -5.215     11.398     12.954
REMARK INTER + INTRA:          -5.959
REMARK INTER:                  -5.835
REMARK INTRA:                  -0.124
REMARK UNBOUND:                -0.135
REMARK  Name = 1550473
REMARK  2 active torsions:
REMARK  status: ('A' for Active; 'I' for Inactive)
REMARK    1  A    between atoms: N_1  and  C_4
REMARK    2  A    between atoms: C_4  and  C_5
REMARK                            x       y       z     vdW  Elec       q    Type
REMARK                         _______ _______ _______ _____ _____    ______ ____
ROOT
ATOM      1  N   UNL     1      -0.494  -4.381   1.590  0.00  0.00    -0.354 N 
ATOM      2  N   UNL     1      -2.599  -3.602   2.162  0.00  0.00    -0.372 N 
ATOM      3  N   UNL     1      -2.238  -5.867   2.083  0.00  0.00    -0.372 N 
ATOM      4  C   UNL     1      -1.764  -4.625   1.941  0.00  0.00    +0.166 C 
ATOM      5  H   UNL     1      -0.204  -3.417   1.470  0.00  0.00    +0.163 HD
ATOM      6  H   UNL     1      -3.562  -3.755   2.431  0.00  0.00    +0.159 HD
ATOM      7  H   UNL     1      -2.294  -2.639   2.086  0.00  0.00    +0.159 HD
ATOM      8  H   UNL     1      -1.661  -6.682   1.925  0.00  0.00    +0.159 HD
ATOM      9  H   UNL     1      -3.202  -6.040   2.340  0.00  0.00    +0.159 HD
ENDROOT
BRANCH   1  10
ATOM     10  C   UNL     1       0.510  -5.422   1.379  0.00  0.00    +0.151 C 
BRANCH  10  11
ATOM     11  C   UNL     1       1.862  -4.779   1.236  0.00  0.00    -0.028 A 
ATOM     12  C   UNL     1       1.987  -3.383   1.214  0.00  0.00    +0.005 A 
ATOM     13  C   UNL     1       3.022  -5.561   1.127  0.00  0.00    +0.005 A 
ATOM     14  C   UNL     1       3.245  -2.785   1.111  0.00  0.00    +0.000 A 
ATOM     15  C   UNL     1       4.276  -4.961   1.024  0.00  0.00    +0.000 A 
ATOM     16  C   UNL     1       4.388  -3.572   1.019  0.00  0.00    +0.000 A 
ENDBRANCH  10  11
ENDBRANCH   1  10
TORSDOF 2
ENDMDL
MODEL 7
REMARK VINA RESULT:    -5.093      9.232     11.021
REMARK INTER + INTRA:          -5.823
REMARK INTER:                  -5.693
REMARK INTRA:                  -0.130
REMARK UNBOUND:                -0.135
REMARK  Name = 1550473
REMARK  2 active torsions:
REMARK  status: ('A' for Active; 'I' for Inactive)
REMARK    1  A    between atoms: N_1  and  C_4
REMARK    2  A    between atoms: C_4  and  C_5
REMARK                            x       y       z     vdW  Elec       q    Type
REMARK                         _______ _______ _______ _____ _____    ______ ____
ROOT
ATOM      1  N   UNL     1      -0.524  -6.314   2.352  0.00  0.00    -0.354 N 
ATOM      2  N   UNL     1       0.297  -8.192   3.429  0.00  0.00    -0.372 N 
ATOM      3  N   UNL     1       1.440  -7.362   1.620  0.00  0.00    -0.372 N 
ATOM      4  C   UNL     1       0.401  -7.277   2.458  0.00  0.00    +0.166 C 
ATOM      5  H   UNL     1      -1.304  -6.322   2.999  0.00  0.00    +0.163 HD
ATOM      6  H   UNL     1       0.982  -8.929   3.536  0.00  0.00    +0.159 HD
ATOM      7  H   UNL     1      -0.458  -8.171   4.103  0.00  0.00    +0.159 HD
ATOM      8  H   UNL     1       1.572  -6.706   0.863  0.00  0.00    +0.159 HD
ATOM      9  H   UNL     1       2.129  -8.099   1.704  0.00  0.00    +0.159 HD
ENDROOT
BRANCH   1  10
ATOM     10  C   UNL     1      -0.475  -5.238   1.363  0.00  0.00    +0.151 C 
BRANCH  10  11
ATOM     11  C   UNL     1      -1.879  -4.850   0.989  0.00  0.00    -0.028 A 
ATOM     12  C   UNL     1      -2.157  -3.562   0.506  0.00  0.00    +0.005 A 
ATOM     13  C   UNL     1      -2.934  -5.766   1.110  0.00  0.00    +0.005 A 
ATOM     14  C   UNL     1      -3.455  -3.211   0.130  0.00  0.00    +0.000 A 
ATOM     15  C   UNL     1      -4.230  -5.411   0.734  0.00  0.00    +0.000 A 
ATOM     16  C   UNL     1      -4.489  -4.134   0.242  0.00  0.00    +0.000 A 
ENDBRANCH  10  11
ENDBRANCH   1  10
TORSDOF 2
ENDMDL
MODEL 8
REMARK VINA RESULT:    -5.042     12.246     13.844
REMARK INTER + INTRA:          -5.766
REMARK INTER:                  -5.642
REMARK INTRA:                  -0.125
REMARK UNBOUND:                -0.135
REMARK  Name = 1550473
REMARK  2 active torsions:
REMARK  status: ('A' for Active; 'I' for Inactive)
REMARK    1  A    between atoms: N_1  and  C_4
REMARK    2  A    between atoms: C_4  and  C_5
REMARK                            x       y       z     vdW  Elec       q    Type
REMARK                         _______ _______ _______ _____ _____    ______ ____
ROOT
ATOM      1  N   UNL     1       2.114  -2.537   2.296  0.00  0.00    -0.354 N 
ATOM      2  N   UNL     1       3.822  -3.077   3.764  0.00  0.00    -0.372 N 
ATOM      3  N   UNL     1       4.307  -2.851   1.533  0.00  0.00    -0.372 N 
ATOM      4  C   UNL     1       3.405  -2.818   2.519  0.00  0.00    +0.166 C 
ATOM      5  H   UNL     1       1.474  -2.558   3.081  0.00  0.00    +0.163 HD
ATOM      6  H   UNL     1       4.790  -3.288   3.963  0.00  0.00    +0.159 HD
ATOM      7  H   UNL     1       3.189  -3.052   4.554  0.00  0.00    +0.159 HD
ATOM      8  H   UNL     1       4.056  -2.670   0.570  0.00  0.00    +0.159 HD
ATOM      9  H   UNL     1       5.279  -3.072   1.711  0.00  0.00    +0.159 HD
ENDROOT
BRANCH   1  10
ATOM     10  C   UNL     1       1.567  -2.189   0.985  0.00  0.00    +0.151 C 
BRANCH  10  11
ATOM     11  C   UNL     1       0.186  -2.769   0.859  0.00  0.00    -0.028 A 
ATOM     12  C   UNL     1      -0.899  -1.954   0.503  0.00  0.00    +0.005 A 
ATOM     13  C   UNL     1      -0.044  -4.134   1.089  0.00  0.00    +0.005 A 
ATOM     14  C   UNL     1      -2.177  -2.499   0.356  0.00  0.00    +0.000 A 
ATOM     15  C   UNL     1      -1.322  -4.674   0.943  0.00  0.00    +0.000 A 
ATOM     16  C   UNL     1      -2.388  -3.856   0.574  0.00  0.00    +0.000 A 
ENDBRANCH  10  11
ENDBRANCH   1  10
TORSDOF 2
ENDMDL
MODEL 9
REMARK VINA RESULT:    -4.968     12.150     13.533
REMARK INTER + INTRA:          -5.684
REMARK INTER:                  -5.539
REMARK INTRA:                  -0.145
REMARK UNBOUND:                -0.135
REMARK  Name = 1550473
REMARK  2 active torsions:
REMARK  status: ('A' for Active; 'I' for Inactive)
REMARK    1  A    between atoms: N_1  and  C_4
REMARK    2  A    between atoms: C_4  and  C_5
REMARK                            x       y       z     vdW  Elec       q    Type
REMARK                         _______ _______ _______ _____ _____    ______ ____
ROOT
ATOM      1  N   UNL     1      -0.251  -2.849   1.916  0.00  0.00    -0.354 N 
ATOM      2  N   UNL     1      -2.084  -4.043   2.675  0.00  0.00    -0.372 N 
ATOM      3  N   UNL     1      -1.826  -3.725   0.417  0.00  0.00    -0.372 N 
ATOM      4  C   UNL     1      -1.375  -3.531   1.662  0.00  0.00    +0.166 C 
ATOM      5  H   UNL     1       0.021  -2.711   2.882  0.00  0.00    +0.163 HD
ATOM      6  H   UNL     1      -2.935  -4.565   2.514  0.00  0.00    +0.159 HD
ATOM      7  H   UNL     1      -1.786  -3.943   3.638  0.00  0.00    +0.159 HD
ATOM      8  H   UNL     1      -1.340  -3.359  -0.391  0.00  0.00    +0.159 HD
ATOM      9  H   UNL     1      -2.681  -4.235   0.237  0.00  0.00    +0.159 HD
ENDROOT
BRANCH   1  10
ATOM     10  C   UNL     1       0.622  -2.297   0.881  0.00  0.00    +0.151 C 
BRANCH  10  11
ATOM     11  C   UNL     1       2.023  -2.796   1.102  0.00  0.00    -0.028 A 
ATOM     12  C   UNL     1       2.296  -4.172   1.111  0.00  0.00    +0.005 A 
ATOM     13  C   UNL     1       3.083  -1.898   1.299  0.00  0.00    +0.005 A 
ATOM     14  C   UNL     1       3.602  -4.635   1.287  0.00  0.00    +0.000 A 
ATOM     15  C   UNL     1       4.386  -2.364   1.475  0.00  0.00    +0.000 A 
ATOM     16  C   UNL     1       4.645  -3.733   1.466  0.00  0.00    +0.000 A 
ENDBRANCH  10  11
ENDBRANCH   1  10
TORSDOF 2
ENDMDL
