MODEL 1
REMARK VINA RESULT:    -5.357      0.000      0.000
REMARK INTER + INTRA:          -6.125
REMARK INTER:                  -5.983
REMARK INTRA:                  -0.142
REMARK UNBOUND:                -0.142
REMARK  Name = 1550473
REMARK  2 active torsions:
REMARK  status: ('A' for Active; 'I' for Inactive)
REMARK    1  A    between atoms: N_1  and  C_4
REMARK    2  A    between atoms: C_4  and  C_5
REMARK                            x       y       z     vdW  Elec       q    Type
REMARK                         _______ _______ _______ _____ _____    ______ ____
ROOT
ATOM      1  N   UNL     1      -5.235 -22.603 -26.346  0.00  0.00    -0.354 N 
ATOM      2  N   UNL     1      -3.301 -22.854 -27.595  0.00  0.00    -0.372 N 
ATOM      3  N   UNL     1      -4.539 -20.938 -27.840  0.00  0.00    -0.372 N 
ATOM      4  C   UNL     1      -4.372 -22.127 -27.253  0.00  0.00    +0.166 C 
ATOM      5  H   UNL     1      -5.068 -23.525 -25.960  0.00  0.00    +0.163 HD
ATOM      6  H   UNL     1      -2.631 -22.520 -28.275  0.00  0.00    +0.159 HD
ATOM      7  H   UNL     1      -3.112 -23.755 -27.174  0.00  0.00    +0.159 HD
ATOM      8  H   UNL     1      -5.330 -20.343 -27.630  0.00  0.00    +0.159 HD
ATOM      9  H   UNL     1      -3.886 -20.591 -28.531  0.00  0.00    +0.159 HD
ENDROOT
BRANCH   1  10
ATOM     10  C   UNL     1      -6.403 -21.868 -25.864  0.00  0.00    +0.151 C 
BRANCH  10  11
ATOM     11  C   UNL     1      -7.649 -22.528 -26.387  0.00  0.00    -0.028 A 
ATOM     12  C   UNL     1      -8.561 -23.127 -25.505  0.00  0.00    +0.005 A 
ATOM     13  C   UNL     1      -7.926 -22.554 -27.762  0.00  0.00    +0.005 A 
ATOM     14  C   UNL     1      -9.733 -23.714 -25.988  0.00  0.00    +0.000 A 
ATOM     15  C   UNL     1      -9.097 -23.142 -28.240  0.00  0.00    +0.000 A 
ATOM     16  C   UNL     1     -10.001 -23.720 -27.353  0.00  0.00    +0.000 A 
ENDBRANCH  10  11
ENDBRANCH   1  10
TORSDOF 2
ENDMDL
MODEL 2
REMARK VINA RESULT:    -5.300      1.127      2.058
REMARK INTER + INTRA:          -6.062
REMARK INTER:                  -5.930
REMARK INTRA:                  -0.131
REMARK UNBOUND:                -0.142
REMARK  Name = 1550473
REMARK  2 active torsions:
REMARK  status: ('A' for Active; 'I' for Inactive)
REMARK    1  A    between atoms: N_1  and  C_4
REMARK    2  A    between atoms: C_4  and  C_5
REMARK                            x       y       z     vdW  Elec       q    Type
REMARK                         _______ _______ _______ _____ _____    ______ ____
ROOT
ATOM      1  N   UNL     1      -5.618 -22.575 -27.292  0.00  0.00    -0.354 N 
ATOM      2  N   UNL     1      -3.339 -22.228 -27.511  0.00  0.00    -0.372 N 
ATOM      3  N   UNL     1      -4.783 -20.600 -28.237  0.00  0.00    -0.372 N 
ATOM      4  C   UNL     1      -4.596 -21.801 -27.680  0.00  0.00    +0.166 C 
ATOM      5  H   UNL     1      -5.411 -23.488 -26.904  0.00  0.00    +0.163 HD
ATOM      6  H   UNL     1      -2.547 -21.665 -27.791  0.00  0.00    +0.159 HD
ATOM      7  H   UNL     1      -3.133 -23.121 -27.081  0.00  0.00    +0.159 HD
ATOM      8  H   UNL     1      -5.707 -20.222 -28.398  0.00  0.00    +0.159 HD
ATOM      9  H   UNL     1      -4.003 -20.026 -28.535  0.00  0.00    +0.159 HD
ENDROOT
BRANCH   1  10
ATOM     10  C   UNL     1      -7.023 -22.180 -27.383  0.00  0.00    +0.151 C 
BRANCH  10  11
ATOM     11  C   UNL     1      -7.733 -22.600 -26.126  0.00  0.00    -0.028 A 
ATOM     12  C   UNL     1      -7.198 -22.289 -24.867  0.00  0.00    +0.005 A 
ATOM     13  C   UNL     1      -8.945 -23.305 -26.186  0.00  0.00    +0.005 A 
ATOM     14  C   UNL     1      -7.872 -22.653 -23.700  0.00  0.00    +0.000 A 
ATOM     15  C   UNL     1      -9.616 -23.667 -25.018  0.00  0.00    +0.000 A 
ATOM     16  C   UNL     1      -9.080 -23.339 -23.775  0.00  0.00    +0.000 A 
ENDBRANCH  10  11
ENDBRANCH   1  10
TORSDOF 2
ENDMDL
MODEL 3
REMARK VINA RESULT:    -5.134     12.509     14.345
REMARK INTER + INTRA:          -5.876
REMARK INTER:                  -5.725
REMARK INTRA:                  -0.152
REMARK UNBOUND:                -0.142
REMARK  Name = 1550473
REMARK  2 active torsions:
REMARK  status: ('A' for Active; 'I' for Inactive)
REMARK    1  A    between atoms: N_1  and  C_4
REMARK    2  A    between atoms: C_4  and  C_5
REMARK                            x       y       z     vdW  Elec       q    Type
REMARK                         _______ _______ _______ _____ _____    ______ ____
ROOT
ATOM      1  N   UNL     1       0.321 -11.577 -26.010  0.00  0.00    -0.354 N 
ATOM      2  N   UNL     1      -0.595 -11.466 -23.886  0.00  0.00    -0.372 N 
ATOM      3  N   UNL     1      -0.914 -13.365 -25.134  0.00  0.00    -0.372 N 
ATOM      4  C   UNL     1      -0.391 -12.139 -25.025  0.00  0.00    +0.166 C 
ATOM      5  H   UNL     1       0.665 -10.633 -25.877  0.00  0.00    +0.163 HD
ATOM      6  H   UNL     1      -1.126 -11.866 -23.124  0.00  0.00    +0.159 HD
ATOM      7  H   UNL     1      -0.211 -10.541 -23.738  0.00  0.00    +0.159 HD
ATOM      8  H   UNL     1      -0.801 -13.923 -25.970  0.00  0.00    +0.159 HD
ATOM      9  H   UNL     1      -1.458 -13.778 -24.387  0.00  0.00    +0.159 HD
ENDROOT
BRANCH   1  10
ATOM     10  C   UNL     1       0.646 -12.246 -27.269  0.00  0.00    +0.151 C 
BRANCH  10  11
ATOM     11  C   UNL     1       2.132 -12.470 -27.336  0.00  0.00    -0.028 A 
ATOM     12  C   UNL     1       2.910 -11.803 -28.294  0.00  0.00    +0.005 A 
ATOM     13  C   UNL     1       2.769 -13.344 -26.441  0.00  0.00    +0.005 A 
ATOM     14  C   UNL     1       4.294 -11.988 -28.338  0.00  0.00    +0.000 A 
ATOM     15  C   UNL     1       4.151 -13.526 -26.489  0.00  0.00    +0.000 A 
ATOM     16  C   UNL     1       4.913 -12.846 -27.436  0.00  0.00    +0.000 A 
ENDBRANCH  10  11
ENDBRANCH   1  10
TORSDOF 2
ENDMDL
MODEL 4
REMARK VINA RESULT:    -5.121     20.285     20.920
REMARK INTER + INTRA:          -5.862
REMARK INTER:                  -5.683
REMARK INTRA:                  -0.179
REMARK UNBOUND:                -0.142
REMARK  Name = 1550473
REMARK  2 active torsions:
REMARK  status: ('A' for Active; 'I' for Inactive)
REMARK    1  A    between atoms: N_1  and  C_4
REMARK    2  A    between atoms: C_4  and  C_5
REMARK                            x       y       z     vdW  Elec       q    Type
REMARK                         _______ _______ _______ _____ _____    ______ ____
ROOT
ATOM      1  N   UNL     1       2.612  -7.570 -15.584  0.00  0.00    -0.354 N 
ATOM      2  N   UNL     1       3.320  -6.495 -13.658  0.00  0.00    -0.372 N 
ATOM      3  N   UNL     1       1.073  -6.829 -13.980  0.00  0.00    -0.372 N 
ATOM      4  C   UNL     1       2.327  -6.972 -14.420  0.00  0.00    +0.166 C 
ATOM      5  H   UNL     1       3.581  -7.620 -15.875  0.00  0.00    +0.163 HD
ATOM      6  H   UNL     1       3.136  -6.042 -12.773  0.00  0.00    +0.159 HD
ATOM      7  H   UNL     1       4.291  -6.587 -13.930  0.00  0.00    +0.159 HD
ATOM      8  H   UNL     1       0.278  -7.162 -14.510  0.00  0.00    +0.159 HD
ATOM      9  H   UNL     1       0.868  -6.368 -13.102  0.00  0.00    +0.159 HD
ENDROOT
BRANCH   1  10
ATOM     10  C   UNL     1       1.609  -8.170 -16.461  0.00  0.00    +0.151 C 
BRANCH  10  11
ATOM     11  C   UNL     1       1.312  -7.221 -17.590  0.00  0.00    -0.028 A 
ATOM     12  C   UNL     1       0.185  -6.387 -17.541  0.00  0.00    +0.005 A 
ATOM     13  C   UNL     1       2.157  -7.147 -18.708  0.00  0.00    +0.005 A 
ATOM     14  C   UNL     1      -0.074  -5.484 -18.575  0.00  0.00    +0.000 A 
ATOM     15  C   UNL     1       1.894  -6.245 -19.738  0.00  0.00    +0.000 A 
ATOM     16  C   UNL     1       0.780  -5.412 -19.670  0.00  0.00    +0.000 A 
ENDBRANCH  10  11
ENDBRANCH   1  10
TORSDOF 2
ENDMDL
MODEL 5
REMARK VINA RESULT:    -4.932      1.219      2.051
REMARK INTER + INTRA:          -5.650
REMARK INTER:                  -5.486
REMARK INTRA:                  -0.165
REMARK UNBOUND:                -0.142
REMARK  Name = 1550473
REMARK  2 active torsions:
REMARK  status: ('A' for Active; 'I' for Inactive)
REMARK    1  A    between atoms: N_1  and  C_4
REMARK    2  A    between atoms: C_4  and  C_5
REMARK                            x       y       z     vdW  Elec       q    Type
REMARK                         _______ _______ _______ _____ _____    ______ ____
ROOT
ATOM      1  N   UNL     1      -4.091 -22.692 -27.550  0.00  0.00    -0.354 N 
ATOM      2  N   UNL     1      -2.534 -24.371 -27.205  0.00  0.00    -0.372 N 
ATOM      3  N   UNL     1      -2.969 -22.896 -25.502  0.00  0.00    -0.372 N 
ATOM      4  C   UNL     1      -3.208 -23.307 -26.752  0.00  0.00    +0.166 C 
ATOM      5  H   UNL     1      -4.204 -23.034 -28.497  0.00  0.00    +0.163 HD
ATOM      6  H   UNL     1      -1.864 -24.858 -26.625  0.00  0.00    +0.159 HD
ATOM      7  H   UNL     1      -2.683 -24.740 -28.136  0.00  0.00    +0.159 HD
ATOM      8  H   UNL     1      -3.440 -22.095 -25.103  0.00  0.00    +0.159 HD
ATOM      9  H   UNL     1      -2.293 -23.363 -24.910  0.00  0.00    +0.159 HD
ENDROOT
BRANCH   1  10
ATOM     10  C   UNL     1      -4.915 -21.558 -27.135  0.00  0.00    +0.151 C 
BRANCH  10  11
ATOM     11  C   UNL     1      -6.236 -22.070 -26.629  0.00  0.00    -0.028 A 
ATOM     12  C   UNL     1      -6.504 -22.111 -25.253  0.00  0.00    +0.005 A 
ATOM     13  C   UNL     1      -7.226 -22.510 -27.522  0.00  0.00    +0.005 A 
ATOM     14  C   UNL     1      -7.741 -22.558 -24.784  0.00  0.00    +0.000 A 
ATOM     15  C   UNL     1      -8.460 -22.956 -27.049  0.00  0.00    +0.000 A 
ATOM     16  C   UNL     1      -8.718 -22.978 -25.681  0.00  0.00    +0.000 A 
ENDBRANCH  10  11
ENDBRANCH   1  10
TORSDOF 2
ENDMDL
MODEL 6
REMARK VINA RESULT:    -4.927     20.259     21.013
REMARK INTER + INTRA:          -5.645
REMARK INTER:                  -5.527
REMARK INTRA:                  -0.118
REMARK UNBOUND:                -0.142
REMARK  Name = 1550473
REMARK  2 active torsions:
REMARK  status: ('A' for Active; 'I' for Inactive)
REMARK    1  A    between atoms: N_1  and  C_4
REMARK    2  A    between atoms: C_4  and  C_5
REMARK                            x       y       z     vdW  Elec       q    Type
REMARK                         _______ _______ _______ _____ _____    ______ ____
ROOT
ATOM      1  N   UNL     1       0.990  -5.796 -16.841  0.00  0.00    -0.354 N 
ATOM      2  N   UNL     1       1.657  -6.209 -14.662  0.00  0.00    -0.372 N 
ATOM      3  N   UNL     1       0.162  -7.639 -15.654  0.00  0.00    -0.372 N 
ATOM      4  C   UNL     1       0.930  -6.547 -15.734  0.00  0.00    +0.166 C 
ATOM      5  H   UNL     1       1.568  -4.964 -16.828  0.00  0.00    +0.163 HD
ATOM      6  H   UNL     1       1.635  -6.759 -13.814  0.00  0.00    +0.159 HD
ATOM      7  H   UNL     1       2.269  -5.402 -14.667  0.00  0.00    +0.159 HD
ATOM      8  H   UNL     1      -0.416  -7.945 -16.426  0.00  0.00    +0.159 HD
ATOM      9  H   UNL     1       0.117  -8.195 -14.810  0.00  0.00    +0.159 HD
ENDROOT
BRANCH   1  10
ATOM     10  C   UNL     1       0.279  -6.107 -18.080  0.00  0.00    +0.151 C 
BRANCH  10  11
ATOM     11  C   UNL     1       1.155  -5.755 -19.251  0.00  0.00    -0.028 A 
ATOM     12  C   UNL     1       0.822  -4.683 -20.092  0.00  0.00    +0.005 A 
ATOM     13  C   UNL     1       2.322  -6.486 -19.521  0.00  0.00    +0.005 A 
ATOM     14  C   UNL     1       1.651  -4.337 -21.162  0.00  0.00    +0.000 A 
ATOM     15  C   UNL     1       3.146  -6.138 -20.591  0.00  0.00    +0.000 A 
ATOM     16  C   UNL     1       2.812  -5.062 -21.409  0.00  0.00    +0.000 A 
ENDBRANCH  10  11
ENDBRANCH   1  10
TORSDOF 2
ENDMDL
MODEL 7
REMARK VINA RESULT:    -4.915     13.522     15.204
REMARK INTER + INTRA:          -5.631
REMARK INTER:                  -5.450
REMARK INTRA:                  -0.181
REMARK UNBOUND:                -0.142
REMARK  Name = 1550473
REMARK  2 active torsions:
REMARK  status: ('A' for Active; 'I' for Inactive)
REMARK    1  A    between atoms: N_1  and  C_4
REMARK    2  A    between atoms: C_4  and  C_5
REMARK                            x       y       z     vdW  Elec       q    Type
REMARK                         _______ _______ _______ _____ _____    ______ ____
ROOT
ATOM      1  N   UNL     1       2.084 -11.721 -26.695  0.00  0.00    -0.354 N 
ATOM      2  N   UNL     1       0.271 -10.603 -25.786  0.00  0.00    -0.372 N 
ATOM      3  N   UNL     1      -0.110 -12.324 -27.255  0.00  0.00    -0.372 N 
ATOM      4  C   UNL     1       0.759 -11.559 -26.586  0.00  0.00    +0.166 C 
ATOM      5  H   UNL     1       2.690 -11.088 -26.185  0.00  0.00    +0.163 HD
ATOM      6  H   UNL     1      -0.724 -10.460 -25.681  0.00  0.00    +0.159 HD
ATOM      7  H   UNL     1       0.878 -10.002 -25.242  0.00  0.00    +0.159 HD
ATOM      8  H   UNL     1       0.195 -13.059 -27.880  0.00  0.00    +0.159 HD
ATOM      9  H   UNL     1      -1.109 -12.188 -27.172  0.00  0.00    +0.159 HD
ENDROOT
BRANCH   1  10
ATOM     10  C   UNL     1       2.717 -12.766 -27.498  0.00  0.00    +0.151 C 
BRANCH  10  11
ATOM     11  C   UNL     1       3.161 -12.177 -28.809  0.00  0.00    -0.028 A 
ATOM     12  C   UNL     1       2.480 -12.489 -29.995  0.00  0.00    +0.005 A 
ATOM     13  C   UNL     1       4.256 -11.303 -28.871  0.00  0.00    +0.005 A 
ATOM     14  C   UNL     1       2.873 -11.919 -31.209  0.00  0.00    +0.000 A 
ATOM     15  C   UNL     1       4.646 -10.737 -30.084  0.00  0.00    +0.000 A 
ATOM     16  C   UNL     1       3.952 -11.043 -31.253  0.00  0.00    +0.000 A 
ENDBRANCH  10  11
ENDBRANCH   1  10
TORSDOF 2
ENDMDL
MODEL 8
REMARK VINA RESULT:    -4.906     20.337     20.808
REMARK INTER + INTRA:          -5.622
REMARK INTER:                  -5.473
REMARK INTRA:                  -0.149
REMARK UNBOUND:                -0.142
REMARK  Name = 1550473
REMARK  2 active torsions:
REMARK  status: ('A' for Active; 'I' for Inactive)
REMARK    1  A    between atoms: N_1  and  C_4
REMARK    2  A    between atoms: C_4  and  C_5
REMARK                            x       y       z     vdW  Elec       q    Type
REMARK                         _______ _______ _______ _____ _____    ______ ____
ROOT
ATOM      1  N   UNL     1       3.405  -4.779 -20.539  0.00  0.00    -0.354 N 
ATOM      2  N   UNL     1       3.835  -2.699 -21.463  0.00  0.00    -0.372 N 
ATOM      3  N   UNL     1       2.831  -4.303 -22.761  0.00  0.00    -0.372 N 
ATOM      4  C   UNL     1       3.353  -3.942 -21.584  0.00  0.00    +0.166 C 
ATOM      5  H   UNL     1       3.841  -4.455 -19.684  0.00  0.00    +0.163 HD
ATOM      6  H   UNL     1       3.806  -2.044 -22.232  0.00  0.00    +0.159 HD
ATOM      7  H   UNL     1       4.228  -2.363 -20.592  0.00  0.00    +0.159 HD
ATOM      8  H   UNL     1       2.457  -5.229 -22.920  0.00  0.00    +0.159 HD
ATOM      9  H   UNL     1       2.805  -3.665 -23.547  0.00  0.00    +0.159 HD
ENDROOT
BRANCH   1  10
ATOM     10  C   UNL     1       2.860  -6.136 -20.551  0.00  0.00    +0.151 C 
BRANCH  10  11
ATOM     11  C   UNL     1       1.859  -6.272 -19.437  0.00  0.00    -0.028 A 
ATOM     12  C   UNL     1       2.117  -7.116 -18.347  0.00  0.00    +0.005 A 
ATOM     13  C   UNL     1       0.652  -5.556 -19.463  0.00  0.00    +0.005 A 
ATOM     14  C   UNL     1       1.201  -7.220 -17.297  0.00  0.00    +0.000 A 
ATOM     15  C   UNL     1      -0.260  -5.663 -18.414  0.00  0.00    +0.000 A 
ATOM     16  C   UNL     1       0.016  -6.493 -17.330  0.00  0.00    +0.000 A 
ENDBRANCH  10  11
ENDBRANCH   1  10
TORSDOF 2
ENDMDL
MODEL 9
REMARK VINA RESULT:    -4.805     20.009     21.608
REMARK INTER + INTRA:          -5.509
REMARK INTER:                  -5.352
REMARK INTRA:                  -0.156
REMARK UNBOUND:                -0.142
REMARK  Name = 1550473
REMARK  2 active torsions:
REMARK  status: ('A' for Active; 'I' for Inactive)
REMARK    1  A    between atoms: N_1  and  C_4
REMARK    2  A    between atoms: C_4  and  C_5
REMARK                            x       y       z     vdW  Elec       q    Type
REMARK                         _______ _______ _______ _____ _____    ______ ____
ROOT
ATOM      1  N   UNL     1       1.754  -8.630 -16.166  0.00  0.00    -0.354 N 
ATOM      2  N   UNL     1       2.506  -7.670 -18.135  0.00  0.00    -0.372 N 
ATOM      3  N   UNL     1       0.893  -6.584 -16.917  0.00  0.00    -0.372 N 
ATOM      4  C   UNL     1       1.711  -7.633 -17.059  0.00  0.00    +0.166 C 
ATOM      5  H   UNL     1       2.374  -9.412 -16.347  0.00  0.00    +0.163 HD
ATOM      6  H   UNL     1       2.498  -6.930 -18.824  0.00  0.00    +0.159 HD
ATOM      7  H   UNL     1       3.158  -8.430 -18.290  0.00  0.00    +0.159 HD
ATOM      8  H   UNL     1       0.264  -6.499 -16.130  0.00  0.00    +0.159 HD
ATOM      9  H   UNL     1       0.862  -5.839 -17.602  0.00  0.00    +0.159 HD
ENDROOT
BRANCH   1  10
ATOM     10  C   UNL     1       0.968  -8.659 -14.934  0.00  0.00    +0.151 C 
BRANCH  10  11
ATOM     11  C   UNL     1       1.888  -8.465 -13.760  0.00  0.00    -0.028 A 
ATOM     12  C   UNL     1       3.169  -9.037 -13.757  0.00  0.00    +0.005 A 
ATOM     13  C   UNL     1       1.487  -7.705 -12.650  0.00  0.00    +0.005 A 
ATOM     14  C   UNL     1       4.035  -8.832 -12.680  0.00  0.00    +0.000 A 
ATOM     15  C   UNL     1       2.354  -7.504 -11.577  0.00  0.00    +0.000 A 
ATOM     16  C   UNL     1       3.629  -8.065 -11.593  0.00  0.00    +0.000 A 
ENDBRANCH  10  11
ENDBRANCH   1  10
TORSDOF 2
ENDMDL
