MODEL 1
REMARK VINA RESULT:    -5.945      0.000      0.000
REMARK INTER + INTRA:          -6.771
REMARK INTER:                  -6.641
REMARK INTRA:                  -0.130
REMARK UNBOUND:                -0.130
REMARK  Name = 1550473
REMARK  2 active torsions:
REMARK  status: ('A' for Active; 'I' for Inactive)
REMARK    1  A    between atoms: N_1  and  C_4
REMARK    2  A    between atoms: C_4  and  C_5
REMARK                            x       y       z     vdW  Elec       q    Type
REMARK                         _______ _______ _______ _____ _____    ______ ____
ROOT
ATOM      1  N   UNL     1      14.816  -0.575  -5.635  0.00  0.00    -0.354 N 
ATOM      2  N   UNL     1      16.056  -1.371  -7.422  0.00  0.00    -0.372 N 
ATOM      3  N   UNL     1      14.629  -2.803  -6.336  0.00  0.00    -0.372 N 
ATOM      4  C   UNL     1      15.158  -1.580  -6.452  0.00  0.00    +0.166 C 
ATOM      5  H   UNL     1      15.276   0.320  -5.755  0.00  0.00    +0.163 HD
ATOM      6  H   UNL     1      16.330  -2.109  -8.056  0.00  0.00    +0.159 HD
ATOM      7  H   UNL     1      16.479  -0.463  -7.569  0.00  0.00    +0.159 HD
ATOM      8  H   UNL     1      13.950  -3.028  -5.621  0.00  0.00    +0.159 HD
ATOM      9  H   UNL     1      14.900  -3.558  -6.954  0.00  0.00    +0.159 HD
ENDROOT
BRANCH   1  10
ATOM     10  C   UNL     1      13.809  -0.684  -4.581  0.00  0.00    +0.151 C 
BRANCH  10  11
ATOM     11  C   UNL     1      14.166   0.254  -3.461  0.00  0.00    -0.028 A 
ATOM     12  C   UNL     1      13.409   0.274  -2.281  0.00  0.00    +0.005 A 
ATOM     13  C   UNL     1      15.265   1.120  -3.572  0.00  0.00    +0.005 A 
ATOM     14  C   UNL     1      13.759   1.124  -1.228  0.00  0.00    +0.000 A 
ATOM     15  C   UNL     1      15.610   1.968  -2.519  0.00  0.00    +0.000 A 
ATOM     16  C   UNL     1      14.858   1.967  -1.346  0.00  0.00    +0.000 A 
ENDBRANCH  10  11
ENDBRANCH   1  10
TORSDOF 2
ENDMDL
MODEL 2
REMARK VINA RESULT:    -5.790     24.649     25.840
REMARK INTER + INTRA:          -6.597
REMARK INTER:                  -6.502
REMARK INTRA:                  -0.095
REMARK UNBOUND:                -0.130
REMARK  Name = 1550473
REMARK  2 active torsions:
REMARK  status: ('A' for Active; 'I' for Inactive)
REMARK    1  A    between atoms: N_1  and  C_4
REMARK    2  A    between atoms: C_4  and  C_5
REMARK                            x       y       z     vdW  Elec       q    Type
REMARK                         _______ _______ _______ _____ _____    ______ ____
ROOT
ATOM      1  N   UNL     1      -6.532  -0.813 -14.823  0.00  0.00    -0.354 N 
ATOM      2  N   UNL     1      -5.953  -1.837 -12.828  0.00  0.00    -0.372 N 
ATOM      3  N   UNL     1      -6.166   0.448 -12.882  0.00  0.00    -0.372 N 
ATOM      4  C   UNL     1      -6.221  -0.725 -13.523  0.00  0.00    +0.166 C 
ATOM      5  H   UNL     1      -6.527  -1.729 -15.258  0.00  0.00    +0.163 HD
ATOM      6  H   UNL     1      -5.719  -1.801 -11.845  0.00  0.00    +0.159 HD
ATOM      7  H   UNL     1      -5.994  -2.754 -13.254  0.00  0.00    +0.159 HD
ATOM      8  H   UNL     1      -6.351   1.324 -13.352  0.00  0.00    +0.159 HD
ATOM      9  H   UNL     1      -5.921   0.504 -11.901  0.00  0.00    +0.159 HD
ENDROOT
BRANCH   1  10
ATOM     10  C   UNL     1      -6.892   0.332 -15.658  0.00  0.00    +0.151 C 
BRANCH  10  11
ATOM     11  C   UNL     1      -8.330   0.200 -16.078  0.00  0.00    -0.028 A 
ATOM     12  C   UNL     1      -8.762   0.712 -17.311  0.00  0.00    +0.005 A 
ATOM     13  C   UNL     1      -9.265  -0.440 -15.251  0.00  0.00    +0.005 A 
ATOM     14  C   UNL     1     -10.091   0.564 -17.715  0.00  0.00    +0.000 A 
ATOM     15  C   UNL     1     -10.592  -0.586 -15.657  0.00  0.00    +0.000 A 
ATOM     16  C   UNL     1     -11.003  -0.086 -16.890  0.00  0.00    +0.000 A 
ENDBRANCH  10  11
ENDBRANCH   1  10
TORSDOF 2
ENDMDL
MODEL 3
REMARK VINA RESULT:    -5.364     22.754     23.927
REMARK INTER + INTRA:          -6.122
REMARK INTER:                  -5.981
REMARK INTRA:                  -0.140
REMARK UNBOUND:                -0.130
REMARK  Name = 1550473
REMARK  2 active torsions:
REMARK  status: ('A' for Active; 'I' for Inactive)
REMARK    1  A    between atoms: N_1  and  C_4
REMARK    2  A    between atoms: C_4  and  C_5
REMARK                            x       y       z     vdW  Elec       q    Type
REMARK                         _______ _______ _______ _____ _____    ______ ____
ROOT
ATOM      1  N   UNL     1      -4.523  -2.213 -15.349  0.00  0.00    -0.354 N 
ATOM      2  N   UNL     1      -2.535  -3.338 -15.731  0.00  0.00    -0.372 N 
ATOM      3  N   UNL     1      -3.761  -2.612 -17.529  0.00  0.00    -0.372 N 
ATOM      4  C   UNL     1      -3.620  -2.713 -16.203  0.00  0.00    +0.166 C 
ATOM      5  H   UNL     1      -4.373  -2.350 -14.356  0.00  0.00    +0.163 HD
ATOM      6  H   UNL     1      -1.835  -3.723 -16.351  0.00  0.00    +0.159 HD
ATOM      7  H   UNL     1      -2.364  -3.433 -14.737  0.00  0.00    +0.159 HD
ATOM      8  H   UNL     1      -4.561  -2.157 -17.949  0.00  0.00    +0.159 HD
ATOM      9  H   UNL     1      -3.078  -3.001 -18.166  0.00  0.00    +0.159 HD
ENDROOT
BRANCH   1  10
ATOM     10  C   UNL     1      -5.712  -1.468 -15.759  0.00  0.00    +0.151 C 
BRANCH  10  11
ATOM     11  C   UNL     1      -6.902  -1.987 -15.001  0.00  0.00    -0.028 A 
ATOM     12  C   UNL     1      -6.947  -3.322 -14.572  0.00  0.00    +0.005 A 
ATOM     13  C   UNL     1      -7.987  -1.148 -14.703  0.00  0.00    +0.005 A 
ATOM     14  C   UNL     1      -8.039  -3.796 -13.841  0.00  0.00    +0.000 A 
ATOM     15  C   UNL     1      -9.076  -1.625 -13.974  0.00  0.00    +0.000 A 
ATOM     16  C   UNL     1      -9.100  -2.949 -13.541  0.00  0.00    +0.000 A 
ENDBRANCH  10  11
ENDBRANCH   1  10
TORSDOF 2
ENDMDL
MODEL 4
REMARK VINA RESULT:    -5.354     22.306     23.840
REMARK INTER + INTRA:          -6.110
REMARK INTER:                  -5.962
REMARK INTRA:                  -0.148
REMARK UNBOUND:                -0.130
REMARK  Name = 1550473
REMARK  2 active torsions:
REMARK  status: ('A' for Active; 'I' for Inactive)
REMARK    1  A    between atoms: N_1  and  C_4
REMARK    2  A    between atoms: C_4  and  C_5
REMARK                            x       y       z     vdW  Elec       q    Type
REMARK                         _______ _______ _______ _____ _____    ______ ____
ROOT
ATOM      1  N   UNL     1       0.401  -4.110  12.692  0.00  0.00    -0.354 N 
ATOM      2  N   UNL     1       2.231  -3.770  11.314  0.00  0.00    -0.372 N 
ATOM      3  N   UNL     1       2.584  -4.413  13.488  0.00  0.00    -0.372 N 
ATOM      4  C   UNL     1       1.728  -4.101  12.509  0.00  0.00    +0.166 C 
ATOM      5  H   UNL     1      -0.193  -3.834  11.919  0.00  0.00    +0.163 HD
ATOM      6  H   UNL     1       3.228  -3.758  11.145  0.00  0.00    +0.159 HD
ATOM      7  H   UNL     1       1.633  -3.539  10.530  0.00  0.00    +0.159 HD
ATOM      8  H   UNL     1       2.269  -4.666  14.415  0.00  0.00    +0.159 HD
ATOM      9  H   UNL     1       3.586  -4.395  13.342  0.00  0.00    +0.159 HD
ENDROOT
BRANCH   1  10
ATOM     10  C   UNL     1      -0.250  -4.507  13.940  0.00  0.00    +0.151 C 
BRANCH  10  11
ATOM     11  C   UNL     1      -1.087  -3.363  14.442  0.00  0.00    -0.028 A 
ATOM     12  C   UNL     1      -1.338  -2.252  13.625  0.00  0.00    +0.005 A 
ATOM     13  C   UNL     1      -1.637  -3.388  15.733  0.00  0.00    +0.005 A 
ATOM     14  C   UNL     1      -2.141  -1.203  14.080  0.00  0.00    +0.000 A 
ATOM     15  C   UNL     1      -2.437  -2.338  16.184  0.00  0.00    +0.000 A 
ATOM     16  C   UNL     1      -2.691  -1.247  15.357  0.00  0.00    +0.000 A 
ENDBRANCH  10  11
ENDBRANCH   1  10
TORSDOF 2
ENDMDL
MODEL 5
REMARK VINA RESULT:    -5.304     24.900     26.028
REMARK INTER + INTRA:          -6.054
REMARK INTER:                  -5.968
REMARK INTRA:                  -0.087
REMARK UNBOUND:                -0.130
REMARK  Name = 1550473
REMARK  2 active torsions:
REMARK  status: ('A' for Active; 'I' for Inactive)
REMARK    1  A    between atoms: N_1  and  C_4
REMARK    2  A    between atoms: C_4  and  C_5
REMARK                            x       y       z     vdW  Elec       q    Type
REMARK                         _______ _______ _______ _____ _____    ______ ____
ROOT
ATOM      1  N   UNL     1      -7.908  -0.128 -13.442  0.00  0.00    -0.354 N 
ATOM      2  N   UNL     1      -5.923   0.797 -12.686  0.00  0.00    -0.372 N 
ATOM      3  N   UNL     1      -5.850  -1.154 -13.893  0.00  0.00    -0.372 N 
ATOM      4  C   UNL     1      -6.572  -0.170 -13.347  0.00  0.00    +0.166 C 
ATOM      5  H   UNL     1      -8.399   0.628 -12.980  0.00  0.00    +0.163 HD
ATOM      6  H   UNL     1      -4.915   0.793 -12.601  0.00  0.00    +0.159 HD
ATOM      7  H   UNL     1      -6.413   1.576 -12.265  0.00  0.00    +0.159 HD
ATOM      8  H   UNL     1      -6.280  -1.916 -14.400  0.00  0.00    +0.159 HD
ATOM      9  H   UNL     1      -4.841  -1.181 -13.809  0.00  0.00    +0.159 HD
ENDROOT
BRANCH   1  10
ATOM     10  C   UNL     1      -8.706  -1.102 -14.184  0.00  0.00    +0.151 C 
BRANCH  10  11
ATOM     11  C   UNL     1      -9.233  -0.454 -15.435  0.00  0.00    -0.028 A 
ATOM     12  C   UNL     1     -10.595  -0.537 -15.760  0.00  0.00    +0.005 A 
ATOM     13  C   UNL     1      -8.377   0.250 -16.296  0.00  0.00    +0.005 A 
ATOM     14  C   UNL     1     -11.090   0.090 -16.906  0.00  0.00    +0.000 A 
ATOM     15  C   UNL     1      -8.876   0.874 -17.439  0.00  0.00    +0.000 A 
ATOM     16  C   UNL     1     -10.233   0.796 -17.742  0.00  0.00    +0.000 A 
ENDBRANCH  10  11
ENDBRANCH   1  10
TORSDOF 2
ENDMDL
MODEL 6
REMARK VINA RESULT:    -5.180      2.130      2.680
REMARK INTER + INTRA:          -5.915
REMARK INTER:                  -5.747
REMARK INTRA:                  -0.169
REMARK UNBOUND:                -0.130
REMARK  Name = 1550473
REMARK  2 active torsions:
REMARK  status: ('A' for Active; 'I' for Inactive)
REMARK    1  A    between atoms: N_1  and  C_4
REMARK    2  A    between atoms: C_4  and  C_5
REMARK                            x       y       z     vdW  Elec       q    Type
REMARK                         _______ _______ _______ _____ _____    ______ ____
ROOT
ATOM      1  N   UNL     1      14.709   1.358  -6.060  0.00  0.00    -0.354 N 
ATOM      2  N   UNL     1      14.969   3.096  -7.569  0.00  0.00    -0.372 N 
ATOM      3  N   UNL     1      16.815   2.304  -6.461  0.00  0.00    -0.372 N 
ATOM      4  C   UNL     1      15.499   2.241  -6.686  0.00  0.00    +0.166 C 
ATOM      5  H   UNL     1      13.714   1.382  -6.253  0.00  0.00    +0.163 HD
ATOM      6  H   UNL     1      15.540   3.771  -8.059  0.00  0.00    +0.159 HD
ATOM      7  H   UNL     1      13.981   3.086  -7.794  0.00  0.00    +0.159 HD
ATOM      8  H   UNL     1      17.276   1.691  -5.801  0.00  0.00    +0.159 HD
ATOM      9  H   UNL     1      17.402   2.981  -6.933  0.00  0.00    +0.159 HD
ENDROOT
BRANCH   1  10
ATOM     10  C   UNL     1      15.194   0.349  -5.121  0.00  0.00    +0.151 C 
BRANCH  10  11
ATOM     11  C   UNL     1      14.789   0.740  -3.727  0.00  0.00    -0.028 A 
ATOM     12  C   UNL     1      13.671   0.152  -3.119  0.00  0.00    +0.005 A 
ATOM     13  C   UNL     1      15.523   1.695  -3.006  0.00  0.00    +0.005 A 
ATOM     14  C   UNL     1      13.312   0.493  -1.812  0.00  0.00    +0.000 A 
ATOM     15  C   UNL     1      15.161   2.034  -1.702  0.00  0.00    +0.000 A 
ATOM     16  C   UNL     1      14.057   1.431  -1.105  0.00  0.00    +0.000 A 
ENDBRANCH  10  11
ENDBRANCH   1  10
TORSDOF 2
ENDMDL
MODEL 7
REMARK VINA RESULT:    -5.068     24.066     25.270
REMARK INTER + INTRA:          -5.791
REMARK INTER:                  -5.668
REMARK INTRA:                  -0.123
REMARK UNBOUND:                -0.130
REMARK  Name = 1550473
REMARK  2 active torsions:
REMARK  status: ('A' for Active; 'I' for Inactive)
REMARK    1  A    between atoms: N_1  and  C_4
REMARK    2  A    between atoms: C_4  and  C_5
REMARK                            x       y       z     vdW  Elec       q    Type
REMARK                         _______ _______ _______ _____ _____    ______ ____
ROOT
ATOM      1  N   UNL     1      -4.672   9.660  10.031  0.00  0.00    -0.354 N 
ATOM      2  N   UNL     1      -6.699   8.584  10.342  0.00  0.00    -0.372 N 
ATOM      3  N   UNL     1      -5.347   8.952  12.160  0.00  0.00    -0.372 N 
ATOM      4  C   UNL     1      -5.558   9.072  10.845  0.00  0.00    +0.166 C 
ATOM      5  H   UNL     1      -4.877   9.693   9.039  0.00  0.00    +0.163 HD
ATOM      6  H   UNL     1      -7.388   8.139  10.933  0.00  0.00    +0.159 HD
ATOM      7  H   UNL     1      -6.922   8.659   9.357  0.00  0.00    +0.159 HD
ATOM      8  H   UNL     1      -4.504   9.294  12.600  0.00  0.00    +0.159 HD
ATOM      9  H   UNL     1      -6.020   8.499  12.765  0.00  0.00    +0.159 HD
ENDROOT
BRANCH   1  10
ATOM     10  C   UNL     1      -3.424  10.271  10.485  0.00  0.00    +0.151 C 
BRANCH  10  11
ATOM     11  C   UNL     1      -2.726  10.897   9.309  0.00  0.00    -0.028 A 
ATOM     12  C   UNL     1      -3.166  10.640   8.002  0.00  0.00    +0.005 A 
ATOM     13  C   UNL     1      -1.629  11.752   9.495  0.00  0.00    +0.005 A 
ATOM     14  C   UNL     1      -2.537  11.245   6.911  0.00  0.00    +0.000 A 
ATOM     15  C   UNL     1      -1.003  12.353   8.403  0.00  0.00    +0.000 A 
ATOM     16  C   UNL     1      -1.459  12.101   7.111  0.00  0.00    +0.000 A 
ENDBRANCH  10  11
ENDBRANCH   1  10
TORSDOF 2
ENDMDL
MODEL 8
REMARK VINA RESULT:    -5.037     23.016     24.133
REMARK INTER + INTRA:          -5.756
REMARK INTER:                  -5.635
REMARK INTRA:                  -0.122
REMARK UNBOUND:                -0.130
REMARK  Name = 1550473
REMARK  2 active torsions:
REMARK  status: ('A' for Active; 'I' for Inactive)
REMARK    1  A    between atoms: N_1  and  C_4
REMARK    2  A    between atoms: C_4  and  C_5
REMARK                            x       y       z     vdW  Elec       q    Type
REMARK                         _______ _______ _______ _____ _____    ______ ____
ROOT
ATOM      1  N   UNL     1      -4.809  -2.064 -16.260  0.00  0.00    -0.354 N 
ATOM      2  N   UNL     1      -2.833  -2.277 -17.450  0.00  0.00    -0.372 N 
ATOM      3  N   UNL     1      -2.892  -2.972 -15.264  0.00  0.00    -0.372 N 
ATOM      4  C   UNL     1      -3.523  -2.437 -16.314  0.00  0.00    +0.166 C 
ATOM      5  H   UNL     1      -5.221  -1.637 -17.081  0.00  0.00    +0.163 HD
ATOM      6  H   UNL     1      -1.863  -2.553 -17.522  0.00  0.00    +0.159 HD
ATOM      7  H   UNL     1      -3.261  -1.892 -18.284  0.00  0.00    +0.159 HD
ATOM      8  H   UNL     1      -3.354  -3.114 -14.376  0.00  0.00    +0.159 HD
ATOM      9  H   UNL     1      -1.917  -3.243 -15.313  0.00  0.00    +0.159 HD
ENDROOT
BRANCH   1  10
ATOM     10  C   UNL     1      -5.664  -2.244 -15.088  0.00  0.00    +0.151 C 
BRANCH  10  11
ATOM     11  C   UNL     1      -6.929  -1.454 -15.277  0.00  0.00    -0.028 A 
ATOM     12  C   UNL     1      -8.088  -1.783 -14.558  0.00  0.00    +0.005 A 
ATOM     13  C   UNL     1      -6.974  -0.371 -16.168  0.00  0.00    +0.005 A 
ATOM     14  C   UNL     1      -9.255  -1.031 -14.711  0.00  0.00    +0.000 A 
ATOM     15  C   UNL     1      -8.142   0.377 -16.319  0.00  0.00    +0.000 A 
ATOM     16  C   UNL     1      -9.281   0.048 -15.588  0.00  0.00    +0.000 A 
ENDBRANCH  10  11
ENDBRANCH   1  10
TORSDOF 2
ENDMDL
MODEL 9
REMARK VINA RESULT:    -5.034     25.550     26.634
REMARK INTER + INTRA:          -5.752
REMARK INTER:                  -5.652
REMARK INTRA:                  -0.100
REMARK UNBOUND:                -0.130
REMARK  Name = 1550473
REMARK  2 active torsions:
REMARK  status: ('A' for Active; 'I' for Inactive)
REMARK    1  A    between atoms: N_1  and  C_4
REMARK    2  A    between atoms: C_4  and  C_5
REMARK                            x       y       z     vdW  Elec       q    Type
REMARK                         _______ _______ _______ _____ _____    ______ ____
ROOT
ATOM      1  N   UNL     1      -8.059  -8.732   6.459  0.00  0.00    -0.354 N 
ATOM      2  N   UNL     1      -8.640  -6.491   6.468  0.00  0.00    -0.372 N 
ATOM      3  N   UNL     1      -9.997  -7.992   7.549  0.00  0.00    -0.372 N 
ATOM      4  C   UNL     1      -8.897  -7.754   6.827  0.00  0.00    +0.166 C 
ATOM      5  H   UNL     1      -7.259  -8.491   5.886  0.00  0.00    +0.163 HD
ATOM      6  H   UNL     1      -9.253  -5.731   6.733  0.00  0.00    +0.159 HD
ATOM      7  H   UNL     1      -7.815  -6.246   5.934  0.00  0.00    +0.159 HD
ATOM      8  H   UNL     1     -10.250  -8.925   7.847  0.00  0.00    +0.159 HD
ATOM      9  H   UNL     1     -10.628  -7.247   7.815  0.00  0.00    +0.159 HD
ENDROOT
BRANCH   1  10
ATOM     10  C   UNL     1      -8.219 -10.134   6.844  0.00  0.00    +0.151 C 
BRANCH  10  11
ATOM     11  C   UNL     1      -6.995 -10.901   6.425  0.00  0.00    -0.028 A 
ATOM     12  C   UNL     1      -6.261 -11.639   7.364  0.00  0.00    +0.005 A 
ATOM     13  C   UNL     1      -6.567 -10.898   5.088  0.00  0.00    +0.005 A 
ATOM     14  C   UNL     1      -5.142 -12.376   6.970  0.00  0.00    +0.000 A 
ATOM     15  C   UNL     1      -5.449 -11.634   4.698  0.00  0.00    +0.000 A 
ATOM     16  C   UNL     1      -4.738 -12.375   5.639  0.00  0.00    +0.000 A 
ENDBRANCH  10  11
ENDBRANCH   1  10
TORSDOF 2
ENDMDL
