MODEL 1
REMARK VINA RESULT:    -4.757      0.000      0.000
REMARK INTER + INTRA:          -5.472
REMARK INTER:                  -5.313
REMARK INTRA:                  -0.158
REMARK UNBOUND:                -0.158
REMARK  Name = 1550473
REMARK  2 active torsions:
REMARK  status: ('A' for Active; 'I' for Inactive)
REMARK    1  A    between atoms: N_1  and  C_4
REMARK    2  A    between atoms: C_4  and  C_5
REMARK                            x       y       z     vdW  Elec       q    Type
REMARK                         _______ _______ _______ _____ _____    ______ ____
ROOT
ATOM      1  N   UNL     1      -0.182  -1.773  14.439  0.00  0.00    -0.354 N 
ATOM      2  N   UNL     1      -2.066  -2.401  13.246  0.00  0.00    -0.372 N 
ATOM      3  N   UNL     1      -0.017  -2.501  12.218  0.00  0.00    -0.372 N 
ATOM      4  C   UNL     1      -0.741  -2.221  13.307  0.00  0.00    +0.166 C 
ATOM      5  H   UNL     1      -0.789  -1.550  15.220  0.00  0.00    +0.163 HD
ATOM      6  H   UNL     1      -2.515  -2.741  12.407  0.00  0.00    +0.159 HD
ATOM      7  H   UNL     1      -2.665  -2.221  14.043  0.00  0.00    +0.159 HD
ATOM      8  H   UNL     1       0.987  -2.381  12.197  0.00  0.00    +0.159 HD
ATOM      9  H   UNL     1      -0.449  -2.832  11.365  0.00  0.00    +0.159 HD
ENDROOT
BRANCH   1  10
ATOM     10  C   UNL     1       1.256  -1.594  14.627  0.00  0.00    +0.151 C 
BRANCH  10  11
ATOM     11  C   UNL     1       1.563  -0.124  14.700  0.00  0.00    -0.028 A 
ATOM     12  C   UNL     1       0.910   0.694  15.633  0.00  0.00    +0.005 A 
ATOM     13  C   UNL     1       2.510   0.456  13.842  0.00  0.00    +0.005 A 
ATOM     14  C   UNL     1       1.217   2.055  15.721  0.00  0.00    +0.000 A 
ATOM     15  C   UNL     1       2.813   1.815  13.933  0.00  0.00    +0.000 A 
ATOM     16  C   UNL     1       2.168   2.613  14.874  0.00  0.00    +0.000 A 
ENDBRANCH  10  11
ENDBRANCH   1  10
TORSDOF 2
ENDMDL
MODEL 2
REMARK VINA RESULT:    -4.639     14.541     15.670
REMARK INTER + INTRA:          -5.340
REMARK INTER:                  -5.227
REMARK INTRA:                  -0.113
REMARK UNBOUND:                -0.158
REMARK  Name = 1550473
REMARK  2 active torsions:
REMARK  status: ('A' for Active; 'I' for Inactive)
REMARK    1  A    between atoms: N_1  and  C_4
REMARK    2  A    between atoms: C_4  and  C_5
REMARK                            x       y       z     vdW  Elec       q    Type
REMARK                         _______ _______ _______ _____ _____    ______ ____
ROOT
ATOM      1  N   UNL     1      10.778   4.253  25.874  0.00  0.00    -0.354 N 
ATOM      2  N   UNL     1       9.159   3.424  27.308  0.00  0.00    -0.372 N 
ATOM      3  N   UNL     1       8.975   5.585  26.559  0.00  0.00    -0.372 N 
ATOM      4  C   UNL     1       9.647   4.429  26.571  0.00  0.00    +0.166 C 
ATOM      5  H   UNL     1      11.256   3.363  25.949  0.00  0.00    +0.163 HD
ATOM      6  H   UNL     1       8.306   3.526  27.841  0.00  0.00    +0.159 HD
ATOM      7  H   UNL     1       9.614   2.520  27.345  0.00  0.00    +0.159 HD
ATOM      8  H   UNL     1       9.294   6.384  26.027  0.00  0.00    +0.159 HD
ATOM      9  H   UNL     1       8.126   5.710  27.095  0.00  0.00    +0.159 HD
ENDROOT
BRANCH   1  10
ATOM     10  C   UNL     1      11.364   5.266  24.998  0.00  0.00    +0.151 C 
BRANCH  10  11
ATOM     11  C   UNL     1      11.954   4.590  23.792  0.00  0.00    -0.028 A 
ATOM     12  C   UNL     1      11.126   4.132  22.756  0.00  0.00    +0.005 A 
ATOM     13  C   UNL     1      13.341   4.409  23.675  0.00  0.00    +0.005 A 
ATOM     14  C   UNL     1      11.676   3.531  21.621  0.00  0.00    +0.000 A 
ATOM     15  C   UNL     1      13.886   3.808  22.540  0.00  0.00    +0.000 A 
ATOM     16  C   UNL     1      13.053   3.371  21.513  0.00  0.00    +0.000 A 
ENDBRANCH  10  11
ENDBRANCH   1  10
TORSDOF 2
ENDMDL
MODEL 3
REMARK VINA RESULT:    -4.634     42.669     44.390
REMARK INTER + INTRA:          -5.335
REMARK INTER:                  -5.218
REMARK INTRA:                  -0.117
REMARK UNBOUND:                -0.158
REMARK  Name = 1550473
REMARK  2 active torsions:
REMARK  status: ('A' for Active; 'I' for Inactive)
REMARK    1  A    between atoms: N_1  and  C_4
REMARK    2  A    between atoms: C_4  and  C_5
REMARK                            x       y       z     vdW  Elec       q    Type
REMARK                         _______ _______ _______ _____ _____    ______ ____
ROOT
ATOM      1  N   UNL     1      -1.219 -14.019 -28.960  0.00  0.00    -0.354 N 
ATOM      2  N   UNL     1      -0.141 -16.053 -29.216  0.00  0.00    -0.372 N 
ATOM      3  N   UNL     1      -1.904 -15.550 -30.597  0.00  0.00    -0.372 N 
ATOM      4  C   UNL     1      -1.097 -15.195 -29.591  0.00  0.00    +0.166 C 
ATOM      5  H   UNL     1      -0.595 -13.822 -28.186  0.00  0.00    +0.163 HD
ATOM      6  H   UNL     1      -0.023 -16.946 -29.676  0.00  0.00    +0.159 HD
ATOM      7  H   UNL     1       0.510 -15.834 -28.472  0.00  0.00    +0.159 HD
ATOM      8  H   UNL     1      -2.649 -14.950 -30.924  0.00  0.00    +0.159 HD
ATOM      9  H   UNL     1      -1.808 -16.445 -31.062  0.00  0.00    +0.159 HD
ENDROOT
BRANCH   1  10
ATOM     10  C   UNL     1      -2.192 -12.991 -29.326  0.00  0.00    +0.151 C 
BRANCH  10  11
ATOM     11  C   UNL     1      -2.456 -12.117 -28.131  0.00  0.00    -0.028 A 
ATOM     12  C   UNL     1      -2.783 -12.686 -26.892  0.00  0.00    +0.005 A 
ATOM     13  C   UNL     1      -2.376 -10.720 -28.231  0.00  0.00    +0.005 A 
ATOM     14  C   UNL     1      -3.000 -11.876 -25.774  0.00  0.00    +0.000 A 
ATOM     15  C   UNL     1      -2.594  -9.915 -27.113  0.00  0.00    +0.000 A 
ATOM     16  C   UNL     1      -2.903 -10.493 -25.885  0.00  0.00    +0.000 A 
ENDBRANCH  10  11
ENDBRANCH   1  10
TORSDOF 2
ENDMDL
MODEL 4
REMARK VINA RESULT:    -4.468     22.162     23.546
REMARK INTER + INTRA:          -5.149
REMARK INTER:                  -5.014
REMARK INTRA:                  -0.136
REMARK UNBOUND:                -0.158
REMARK  Name = 1550473
REMARK  2 active torsions:
REMARK  status: ('A' for Active; 'I' for Inactive)
REMARK    1  A    between atoms: N_1  and  C_4
REMARK    2  A    between atoms: C_4  and  C_5
REMARK                            x       y       z     vdW  Elec       q    Type
REMARK                         _______ _______ _______ _____ _____    ______ ____
ROOT
ATOM      1  N   UNL     1     -12.874  -9.025  -4.007  0.00  0.00    -0.354 N 
ATOM      2  N   UNL     1     -10.986  -9.712  -5.159  0.00  0.00    -0.372 N 
ATOM      3  N   UNL     1     -12.369  -8.155  -6.124  0.00  0.00    -0.372 N 
ATOM      4  C   UNL     1     -12.090  -8.958  -5.091  0.00  0.00    +0.166 C 
ATOM      5  H   UNL     1     -12.624  -9.676  -3.272  0.00  0.00    +0.163 HD
ATOM      6  H   UNL     1     -10.373  -9.680  -5.963  0.00  0.00    +0.159 HD
ATOM      7  H   UNL     1     -10.714 -10.328  -4.403  0.00  0.00    +0.159 HD
ATOM      8  H   UNL     1     -13.190  -7.565  -6.137  0.00  0.00    +0.159 HD
ATOM      9  H   UNL     1     -11.774  -8.118  -6.942  0.00  0.00    +0.159 HD
ENDROOT
BRANCH   1  10
ATOM     10  C   UNL     1     -14.070  -8.206  -3.811  0.00  0.00    +0.151 C 
BRANCH  10  11
ATOM     11  C   UNL     1     -13.925  -7.425  -2.534  0.00  0.00    -0.028 A 
ATOM     12  C   UNL     1     -13.476  -8.052  -1.363  0.00  0.00    +0.005 A 
ATOM     13  C   UNL     1     -14.231  -6.056  -2.491  0.00  0.00    +0.005 A 
ATOM     14  C   UNL     1     -13.313  -7.320  -0.184  0.00  0.00    +0.000 A 
ATOM     15  C   UNL     1     -14.068  -5.329  -1.312  0.00  0.00    +0.000 A 
ATOM     16  C   UNL     1     -13.607  -5.961  -0.159  0.00  0.00    +0.000 A 
ENDBRANCH  10  11
ENDBRANCH   1  10
TORSDOF 2
ENDMDL
MODEL 5
REMARK VINA RESULT:    -4.444     34.478     35.454
REMARK INTER + INTRA:          -5.122
REMARK INTER:                  -5.006
REMARK INTRA:                  -0.117
REMARK UNBOUND:                -0.158
REMARK  Name = 1550473
REMARK  2 active torsions:
REMARK  status: ('A' for Active; 'I' for Inactive)
REMARK    1  A    between atoms: N_1  and  C_4
REMARK    2  A    between atoms: C_4  and  C_5
REMARK                            x       y       z     vdW  Elec       q    Type
REMARK                         _______ _______ _______ _____ _____    ______ ____
ROOT
ATOM      1  N   UNL     1     -16.348  -2.384 -15.488  0.00  0.00    -0.354 N 
ATOM      2  N   UNL     1     -15.692  -0.169 -15.649  0.00  0.00    -0.372 N 
ATOM      3  N   UNL     1     -17.873  -0.644 -15.117  0.00  0.00    -0.372 N 
ATOM      4  C   UNL     1     -16.644  -1.080 -15.416  0.00  0.00    +0.166 C 
ATOM      5  H   UNL     1     -15.405  -2.650 -15.749  0.00  0.00    +0.163 HD
ATOM      6  H   UNL     1     -15.885   0.822 -15.599  0.00  0.00    +0.159 HD
ATOM      7  H   UNL     1     -14.739  -0.437 -15.864  0.00  0.00    +0.159 HD
ATOM      8  H   UNL     1     -18.638  -1.280 -14.937  0.00  0.00    +0.159 HD
ATOM      9  H   UNL     1     -18.088   0.344 -15.074  0.00  0.00    +0.159 HD
ENDROOT
BRANCH   1  10
ATOM     10  C   UNL     1     -17.299  -3.456 -15.200  0.00  0.00    +0.151 C 
BRANCH  10  11
ATOM     11  C   UNL     1     -16.866  -4.704 -15.920  0.00  0.00    -0.028 A 
ATOM     12  C   UNL     1     -16.782  -5.926 -15.238  0.00  0.00    +0.005 A 
ATOM     13  C   UNL     1     -16.544  -4.670 -17.285  0.00  0.00    +0.005 A 
ATOM     14  C   UNL     1     -16.409  -7.091 -15.913  0.00  0.00    +0.000 A 
ATOM     15  C   UNL     1     -16.171  -5.835 -17.956  0.00  0.00    +0.000 A 
ATOM     16  C   UNL     1     -16.106  -7.046 -17.270  0.00  0.00    +0.000 A 
ENDBRANCH  10  11
ENDBRANCH   1  10
TORSDOF 2
ENDMDL
MODEL 6
REMARK VINA RESULT:    -4.373     28.465     29.890
REMARK INTER + INTRA:          -5.043
REMARK INTER:                  -4.901
REMARK INTRA:                  -0.142
REMARK UNBOUND:                -0.158
REMARK  Name = 1550473
REMARK  2 active torsions:
REMARK  status: ('A' for Active; 'I' for Inactive)
REMARK    1  A    between atoms: N_1  and  C_4
REMARK    2  A    between atoms: C_4  and  C_5
REMARK                            x       y       z     vdW  Elec       q    Type
REMARK                         _______ _______ _______ _____ _____    ______ ____
ROOT
ATOM      1  N   UNL     1      -0.873   0.121 -15.176  0.00  0.00    -0.354 N 
ATOM      2  N   UNL     1       0.487  -1.500 -14.234  0.00  0.00    -0.372 N 
ATOM      3  N   UNL     1       0.039   0.405 -13.036  0.00  0.00    -0.372 N 
ATOM      4  C   UNL     1      -0.125  -0.312 -14.153  0.00  0.00    +0.166 C 
ATOM      5  H   UNL     1      -0.933  -0.457 -16.007  0.00  0.00    +0.163 HD
ATOM      6  H   UNL     1       1.055  -1.854 -13.476  0.00  0.00    +0.159 HD
ATOM      7  H   UNL     1       0.389  -2.096 -15.047  0.00  0.00    +0.159 HD
ATOM      8  H   UNL     1      -0.391   1.313 -12.915  0.00  0.00    +0.159 HD
ATOM      9  H   UNL     1       0.613   0.073 -12.272  0.00  0.00    +0.159 HD
ENDROOT
BRANCH   1  10
ATOM     10  C   UNL     1      -1.624   1.375 -15.167  0.00  0.00    +0.151 C 
BRANCH  10  11
ATOM     11  C   UNL     1      -3.064   1.088 -15.495  0.00  0.00    -0.028 A 
ATOM     12  C   UNL     1      -3.493  -0.228 -15.723  0.00  0.00    +0.005 A 
ATOM     13  C   UNL     1      -4.004   2.126 -15.573  0.00  0.00    +0.005 A 
ATOM     14  C   UNL     1      -4.836  -0.498 -15.997  0.00  0.00    +0.000 A 
ATOM     15  C   UNL     1      -5.344   1.852 -15.848  0.00  0.00    +0.000 A 
ATOM     16  C   UNL     1      -5.760   0.540 -16.058  0.00  0.00    +0.000 A 
ENDBRANCH  10  11
ENDBRANCH   1  10
TORSDOF 2
ENDMDL
MODEL 7
REMARK VINA RESULT:    -4.341     28.509     29.544
REMARK INTER + INTRA:          -5.007
REMARK INTER:                  -4.869
REMARK INTRA:                  -0.138
REMARK UNBOUND:                -0.158
REMARK  Name = 1550473
REMARK  2 active torsions:
REMARK  status: ('A' for Active; 'I' for Inactive)
REMARK    1  A    between atoms: N_1  and  C_4
REMARK    2  A    between atoms: C_4  and  C_5
REMARK                            x       y       z     vdW  Elec       q    Type
REMARK                         _______ _______ _______ _____ _____    ______ ____
ROOT
ATOM      1  N   UNL     1      -4.402   1.016 -15.929  0.00  0.00    -0.354 N 
ATOM      2  N   UNL     1      -6.581   1.717 -15.570  0.00  0.00    -0.372 N 
ATOM      3  N   UNL     1      -6.010  -0.443 -15.047  0.00  0.00    -0.372 N 
ATOM      4  C   UNL     1      -5.650   0.756 -15.517  0.00  0.00    +0.166 C 
ATOM      5  H   UNL     1      -4.201   1.937 -16.303  0.00  0.00    +0.163 HD
ATOM      6  H   UNL     1      -7.530   1.551 -15.263  0.00  0.00    +0.159 HD
ATOM      7  H   UNL     1      -6.365   2.649 -15.902  0.00  0.00    +0.159 HD
ATOM      8  H   UNL     1      -5.356  -1.213 -14.987  0.00  0.00    +0.159 HD
ATOM      9  H   UNL     1      -6.958  -0.632 -14.746  0.00  0.00    +0.159 HD
ENDROOT
BRANCH   1  10
ATOM     10  C   UNL     1      -3.302   0.056 -15.863  0.00  0.00    +0.151 C 
BRANCH  10  11
ATOM     11  C   UNL     1      -2.149   0.680 -15.126  0.00  0.00    -0.028 A 
ATOM     12  C   UNL     1      -1.927   2.063 -15.193  0.00  0.00    +0.005 A 
ATOM     13  C   UNL     1      -1.279  -0.106 -14.355  0.00  0.00    +0.005 A 
ATOM     14  C   UNL     1      -0.874   2.647 -14.485  0.00  0.00    +0.000 A 
ATOM     15  C   UNL     1      -0.228   0.481 -13.650  0.00  0.00    +0.000 A 
ATOM     16  C   UNL     1      -0.027   1.858 -13.713  0.00  0.00    +0.000 A 
ENDBRANCH  10  11
ENDBRANCH   1  10
TORSDOF 2
ENDMDL
MODEL 8
REMARK VINA RESULT:    -4.126     33.738     34.904
REMARK INTER + INTRA:          -4.767
REMARK INTER:                  -4.647
REMARK INTRA:                  -0.120
REMARK UNBOUND:                -0.158
REMARK  Name = 1550473
REMARK  2 active torsions:
REMARK  status: ('A' for Active; 'I' for Inactive)
REMARK    1  A    between atoms: N_1  and  C_4
REMARK    2  A    between atoms: C_4  and  C_5
REMARK                            x       y       z     vdW  Elec       q    Type
REMARK                         _______ _______ _______ _____ _____    ______ ____
ROOT
ATOM      1  N   UNL     1     -18.670  -2.063 -15.300  0.00  0.00    -0.354 N 
ATOM      2  N   UNL     1     -18.086  -2.006 -17.541  0.00  0.00    -0.372 N 
ATOM      3  N   UNL     1     -16.568  -1.280 -15.981  0.00  0.00    -0.372 N 
ATOM      4  C   UNL     1     -17.776  -1.782 -16.258  0.00  0.00    +0.166 C 
ATOM      5  H   UNL     1     -19.579  -2.414 -15.579  0.00  0.00    +0.163 HD
ATOM      6  H   UNL     1     -17.431  -1.807 -18.285  0.00  0.00    +0.159 HD
ATOM      7  H   UNL     1     -18.979  -2.400 -17.813  0.00  0.00    +0.159 HD
ATOM      8  H   UNL     1     -16.276  -1.082 -15.033  0.00  0.00    +0.159 HD
ATOM      9  H   UNL     1     -15.903  -1.063 -16.713  0.00  0.00    +0.159 HD
ENDROOT
BRANCH   1  10
ATOM     10  C   UNL     1     -18.412  -1.907 -13.870  0.00  0.00    +0.151 C 
BRANCH  10  11
ATOM     11  C   UNL     1     -19.376  -0.901 -13.304  0.00  0.00    -0.028 A 
ATOM     12  C   UNL     1     -20.138  -0.088 -14.156  0.00  0.00    +0.005 A 
ATOM     13  C   UNL     1     -19.536  -0.759 -11.917  0.00  0.00    +0.005 A 
ATOM     14  C   UNL     1     -21.056   0.825 -13.632  0.00  0.00    +0.000 A 
ATOM     15  C   UNL     1     -20.452   0.155 -11.398  0.00  0.00    +0.000 A 
ATOM     16  C   UNL     1     -21.214   0.945 -12.255  0.00  0.00    +0.000 A 
ENDBRANCH  10  11
ENDBRANCH   1  10
TORSDOF 2
ENDMDL
MODEL 9
REMARK VINA RESULT:    -4.025     27.183     28.036
REMARK INTER + INTRA:          -4.654
REMARK INTER:                  -4.530
REMARK INTRA:                  -0.124
REMARK UNBOUND:                -0.158
REMARK  Name = 1550473
REMARK  2 active torsions:
REMARK  status: ('A' for Active; 'I' for Inactive)
REMARK    1  A    between atoms: N_1  and  C_4
REMARK    2  A    between atoms: C_4  and  C_5
REMARK                            x       y       z     vdW  Elec       q    Type
REMARK                         _______ _______ _______ _____ _____    ______ ____
ROOT
ATOM      1  N   UNL     1      -2.471   9.297 -13.541  0.00  0.00    -0.354 N 
ATOM      2  N   UNL     1      -3.919   8.262 -15.023  0.00  0.00    -0.372 N 
ATOM      3  N   UNL     1      -4.609  10.167 -13.946  0.00  0.00    -0.372 N 
ATOM      4  C   UNL     1      -3.659   9.251 -14.159  0.00  0.00    +0.166 C 
ATOM      5  H   UNL     1      -1.805   8.556 -13.722  0.00  0.00    +0.163 HD
ATOM      6  H   UNL     1      -4.805   8.203 -15.507  0.00  0.00    +0.159 HD
ATOM      7  H   UNL     1      -3.234   7.548 -15.237  0.00  0.00    +0.159 HD
ATOM      8  H   UNL     1      -4.478  10.936 -13.302  0.00  0.00    +0.159 HD
ATOM      9  H   UNL     1      -5.507  10.118 -14.413  0.00  0.00    +0.159 HD
ENDROOT
BRANCH   1  10
ATOM     10  C   UNL     1      -2.068  10.362 -12.623  0.00  0.00    +0.151 C 
BRANCH  10  11
ATOM     11  C   UNL     1      -1.759   9.761 -11.280  0.00  0.00    -0.028 A 
ATOM     12  C   UNL     1      -2.413   8.597 -10.853  0.00  0.00    +0.005 A 
ATOM     13  C   UNL     1      -0.808  10.349 -10.431  0.00  0.00    +0.005 A 
ATOM     14  C   UNL     1      -2.104   8.021  -9.618  0.00  0.00    +0.000 A 
ATOM     15  C   UNL     1      -0.503   9.772  -9.199  0.00  0.00    +0.000 A 
ATOM     16  C   UNL     1      -1.149   8.607  -8.793  0.00  0.00    +0.000 A 
ENDBRANCH  10  11
ENDBRANCH   1  10
TORSDOF 2
ENDMDL
