MODEL 1
REMARK VINA RESULT:    -5.423      0.000      0.000
REMARK INTER + INTRA:          -6.196
REMARK INTER:                  -6.057
REMARK INTRA:                  -0.139
REMARK UNBOUND:                -0.139
REMARK  Name = 1550473
REMARK  2 active torsions:
REMARK  status: ('A' for Active; 'I' for Inactive)
REMARK    1  A    between atoms: N_1  and  C_4
REMARK    2  A    between atoms: C_4  and  C_5
REMARK                            x       y       z     vdW  Elec       q    Type
REMARK                         _______ _______ _______ _____ _____    ______ ____
ROOT
ATOM      1  N   UNL     1       0.846  11.220  18.418  0.00  0.00    -0.354 N 
ATOM      2  N   UNL     1       0.016  11.602  16.290  0.00  0.00    -0.372 N 
ATOM      3  N   UNL     1      -1.407  10.821  17.912  0.00  0.00    -0.372 N 
ATOM      4  C   UNL     1      -0.179  11.211  17.555  0.00  0.00    +0.166 C 
ATOM      5  H   UNL     1       1.759  11.497  18.078  0.00  0.00    +0.163 HD
ATOM      6  H   UNL     1      -0.739  11.610  15.617  0.00  0.00    +0.159 HD
ATOM      7  H   UNL     1       0.920  11.923  15.965  0.00  0.00    +0.159 HD
ATOM      8  H   UNL     1      -1.619  10.508  18.850  0.00  0.00    +0.159 HD
ATOM      9  H   UNL     1      -2.173  10.810  17.250  0.00  0.00    +0.159 HD
ENDROOT
BRANCH   1  10
ATOM     10  C   UNL     1       0.728  10.863  19.831  0.00  0.00    +0.151 C 
BRANCH  10  11
ATOM     11  C   UNL     1       1.799   9.867  20.178  0.00  0.00    -0.028 A 
ATOM     12  C   UNL     1       1.649   9.014  21.281  0.00  0.00    +0.005 A 
ATOM     13  C   UNL     1       2.965   9.767  19.403  0.00  0.00    +0.005 A 
ATOM     14  C   UNL     1       2.630   8.068  21.586  0.00  0.00    +0.000 A 
ATOM     15  C   UNL     1       3.943   8.821  19.711  0.00  0.00    +0.000 A 
ATOM     16  C   UNL     1       3.774   7.970  20.801  0.00  0.00    +0.000 A 
ENDBRANCH  10  11
ENDBRANCH   1  10
TORSDOF 2
ENDMDL
MODEL 2
REMARK VINA RESULT:    -5.182     14.114     15.505
REMARK INTER + INTRA:          -5.927
REMARK INTER:                  -5.818
REMARK INTRA:                  -0.109
REMARK UNBOUND:                -0.139
REMARK  Name = 1550473
REMARK  2 active torsions:
REMARK  status: ('A' for Active; 'I' for Inactive)
REMARK    1  A    between atoms: N_1  and  C_4
REMARK    2  A    between atoms: C_4  and  C_5
REMARK                            x       y       z     vdW  Elec       q    Type
REMARK                         _______ _______ _______ _____ _____    ______ ____
ROOT
ATOM      1  N   UNL     1      -2.844   9.016   4.083  0.00  0.00    -0.354 N 
ATOM      2  N   UNL     1      -1.603  10.225   2.546  0.00  0.00    -0.372 N 
ATOM      3  N   UNL     1      -3.882  10.129   2.301  0.00  0.00    -0.372 N 
ATOM      4  C   UNL     1      -2.787   9.782   2.985  0.00  0.00    +0.166 C 
ATOM      5  H   UNL     1      -1.975   8.764   4.540  0.00  0.00    +0.163 HD
ATOM      6  H   UNL     1      -1.529  10.807   1.723  0.00  0.00    +0.159 HD
ATOM      7  H   UNL     1      -0.740  10.009   3.030  0.00  0.00    +0.159 HD
ATOM      8  H   UNL     1      -4.806   9.823   2.577  0.00  0.00    +0.159 HD
ATOM      9  H   UNL     1      -3.827  10.702   1.468  0.00  0.00    +0.159 HD
ENDROOT
BRANCH   1  10
ATOM     10  C   UNL     1      -4.088   8.528   4.675  0.00  0.00    +0.151 C 
BRANCH  10  11
ATOM     11  C   UNL     1      -3.783   7.343   5.550  0.00  0.00    -0.028 A 
ATOM     12  C   UNL     1      -3.211   6.184   5.005  0.00  0.00    +0.005 A 
ATOM     13  C   UNL     1      -4.059   7.375   6.925  0.00  0.00    +0.005 A 
ATOM     14  C   UNL     1      -2.900   5.095   5.822  0.00  0.00    +0.000 A 
ATOM     15  C   UNL     1      -3.748   6.285   7.738  0.00  0.00    +0.000 A 
ATOM     16  C   UNL     1      -3.167   5.146   7.187  0.00  0.00    +0.000 A 
ENDBRANCH  10  11
ENDBRANCH   1  10
TORSDOF 2
ENDMDL
MODEL 3
REMARK VINA RESULT:    -5.045      8.073     10.641
REMARK INTER + INTRA:          -5.774
REMARK INTER:                  -5.680
REMARK INTRA:                  -0.094
REMARK UNBOUND:                -0.139
REMARK  Name = 1550473
REMARK  2 active torsions:
REMARK  status: ('A' for Active; 'I' for Inactive)
REMARK    1  A    between atoms: N_1  and  C_4
REMARK    2  A    between atoms: C_4  and  C_5
REMARK                            x       y       z     vdW  Elec       q    Type
REMARK                         _______ _______ _______ _____ _____    ______ ____
ROOT
ATOM      1  N   UNL     1      -1.492  10.037  11.493  0.00  0.00    -0.354 N 
ATOM      2  N   UNL     1      -1.965  10.990  13.550  0.00  0.00    -0.372 N 
ATOM      3  N   UNL     1       0.213  10.479  13.039  0.00  0.00    -0.372 N 
ATOM      4  C   UNL     1      -1.075  10.495  12.681  0.00  0.00    +0.166 C 
ATOM      5  H   UNL     1      -2.485  10.050  11.293  0.00  0.00    +0.163 HD
ATOM      6  H   UNL     1      -1.680  11.346  14.452  0.00  0.00    +0.159 HD
ATOM      7  H   UNL     1      -2.952  11.044  13.330  0.00  0.00    +0.159 HD
ATOM      8  H   UNL     1       0.933  10.113  12.431  0.00  0.00    +0.159 HD
ATOM      9  H   UNL     1       0.516  10.820  13.943  0.00  0.00    +0.159 HD
ENDROOT
BRANCH   1  10
ATOM     10  C   UNL     1      -0.598   9.528  10.454  0.00  0.00    +0.151 C 
BRANCH  10  11
ATOM     11  C   UNL     1      -1.406   8.761   9.444  0.00  0.00    -0.028 A 
ATOM     12  C   UNL     1      -1.363   7.359   9.414  0.00  0.00    +0.005 A 
ATOM     13  C   UNL     1      -2.221   9.430   8.518  0.00  0.00    +0.005 A 
ATOM     14  C   UNL     1      -2.136   6.645   8.495  0.00  0.00    +0.000 A 
ATOM     15  C   UNL     1      -2.991   8.713   7.602  0.00  0.00    +0.000 A 
ATOM     16  C   UNL     1      -2.950   7.321   7.592  0.00  0.00    +0.000 A 
ENDBRANCH  10  11
ENDBRANCH   1  10
TORSDOF 2
ENDMDL
MODEL 4
REMARK VINA RESULT:    -4.778      5.739      7.663
REMARK INTER + INTRA:          -5.475
REMARK INTER:                  -5.352
REMARK INTRA:                  -0.124
REMARK UNBOUND:                -0.139
REMARK  Name = 1550473
REMARK  2 active torsions:
REMARK  status: ('A' for Active; 'I' for Inactive)
REMARK    1  A    between atoms: N_1  and  C_4
REMARK    2  A    between atoms: C_4  and  C_5
REMARK                            x       y       z     vdW  Elec       q    Type
REMARK                         _______ _______ _______ _____ _____    ______ ____
ROOT
ATOM      1  N   UNL     1      -1.353  11.071  11.128  0.00  0.00    -0.354 N 
ATOM      2  N   UNL     1      -2.414  11.657   9.154  0.00  0.00    -0.372 N 
ATOM      3  N   UNL     1      -0.882   9.949   9.125  0.00  0.00    -0.372 N 
ATOM      4  C   UNL     1      -1.541  10.887   9.814  0.00  0.00    +0.166 C 
ATOM      5  H   UNL     1      -1.861  11.818  11.586  0.00  0.00    +0.163 HD
ATOM      6  H   UNL     1      -2.580  11.539   8.163  0.00  0.00    +0.159 HD
ATOM      7  H   UNL     1      -2.955  12.373   9.624  0.00  0.00    +0.159 HD
ATOM      8  H   UNL     1      -0.205   9.339   9.563  0.00  0.00    +0.159 HD
ATOM      9  H   UNL     1      -1.025   9.824   8.130  0.00  0.00    +0.159 HD
ENDROOT
BRANCH   1  10
ATOM     10  C   UNL     1      -0.466  10.251  11.950  0.00  0.00    +0.151 C 
BRANCH  10  11
ATOM     11  C   UNL     1      -0.697  10.577  13.399  0.00  0.00    -0.028 A 
ATOM     12  C   UNL     1       0.113  10.012  14.395  0.00  0.00    +0.005 A 
ATOM     13  C   UNL     1      -1.721  11.457  13.783  0.00  0.00    +0.005 A 
ATOM     14  C   UNL     1      -0.083  10.338  15.739  0.00  0.00    +0.000 A 
ATOM     15  C   UNL     1      -1.913  11.780  15.126  0.00  0.00    +0.000 A 
ATOM     16  C   UNL     1      -1.092  11.222  16.104  0.00  0.00    +0.000 A 
ENDBRANCH  10  11
ENDBRANCH   1  10
TORSDOF 2
ENDMDL
MODEL 5
REMARK VINA RESULT:    -4.453      9.999     11.342
REMARK INTER + INTRA:          -5.112
REMARK INTER:                  -4.973
REMARK INTRA:                  -0.139
REMARK UNBOUND:                -0.139
REMARK  Name = 1550473
REMARK  2 active torsions:
REMARK  status: ('A' for Active; 'I' for Inactive)
REMARK    1  A    between atoms: N_1  and  C_4
REMARK    2  A    between atoms: C_4  and  C_5
REMARK                            x       y       z     vdW  Elec       q    Type
REMARK                         _______ _______ _______ _____ _____    ______ ____
ROOT
ATOM      1  N   UNL     1      -2.068  11.655   7.985  0.00  0.00    -0.354 N 
ATOM      2  N   UNL     1      -1.947  12.640   5.892  0.00  0.00    -0.372 N 
ATOM      3  N   UNL     1      -0.289  13.072   7.418  0.00  0.00    -0.372 N 
ATOM      4  C   UNL     1      -1.433  12.450   7.113  0.00  0.00    +0.166 C 
ATOM      5  H   UNL     1      -2.947  11.237   7.703  0.00  0.00    +0.163 HD
ATOM      6  H   UNL     1      -1.489  13.231   5.212  0.00  0.00    +0.159 HD
ATOM      7  H   UNL     1      -2.802  12.184   5.597  0.00  0.00    +0.159 HD
ATOM      8  H   UNL     1       0.148  12.975   8.325  0.00  0.00    +0.159 HD
ATOM      9  H   UNL     1       0.178  13.677   6.755  0.00  0.00    +0.159 HD
ENDROOT
BRANCH   1  10
ATOM     10  C   UNL     1      -1.564  11.340   9.320  0.00  0.00    +0.151 C 
BRANCH  10  11
ATOM     11  C   UNL     1      -1.671   9.857   9.549  0.00  0.00    -0.028 A 
ATOM     12  C   UNL     1      -1.880   8.984   8.471  0.00  0.00    +0.005 A 
ATOM     13  C   UNL     1      -1.558   9.319  10.840  0.00  0.00    +0.005 A 
ATOM     14  C   UNL     1      -1.949   7.605   8.679  0.00  0.00    +0.000 A 
ATOM     15  C   UNL     1      -1.628   7.941  11.043  0.00  0.00    +0.000 A 
ATOM     16  C   UNL     1      -1.822   7.084   9.962  0.00  0.00    +0.000 A 
ENDBRANCH  10  11
ENDBRANCH   1  10
TORSDOF 2
ENDMDL
MODEL 6
REMARK VINA RESULT:    -4.293     41.784     42.954
REMARK INTER + INTRA:          -4.934
REMARK INTER:                  -4.817
REMARK INTRA:                  -0.117
REMARK UNBOUND:                -0.139
REMARK  Name = 1550473
REMARK  2 active torsions:
REMARK  status: ('A' for Active; 'I' for Inactive)
REMARK    1  A    between atoms: N_1  and  C_4
REMARK    2  A    between atoms: C_4  and  C_5
REMARK                            x       y       z     vdW  Elec       q    Type
REMARK                         _______ _______ _______ _____ _____    ______ ____
ROOT
ATOM      1  N   UNL     1     -10.869  -9.806 -16.133  0.00  0.00    -0.354 N 
ATOM      2  N   UNL     1      -8.638 -10.171 -15.631  0.00  0.00    -0.372 N 
ATOM      3  N   UNL     1      -9.362 -10.519 -17.780  0.00  0.00    -0.372 N 
ATOM      4  C   UNL     1      -9.638 -10.164 -16.521  0.00  0.00    +0.166 C 
ATOM      5  H   UNL     1     -11.019  -9.576 -15.157  0.00  0.00    +0.163 HD
ATOM      6  H   UNL     1      -7.697 -10.433 -15.895  0.00  0.00    +0.159 HD
ATOM      7  H   UNL     1      -8.781  -9.896 -14.666  0.00  0.00    +0.159 HD
ATOM      8  H   UNL     1     -10.074 -10.541 -18.498  0.00  0.00    +0.159 HD
ATOM      9  H   UNL     1      -8.430 -10.796 -18.061  0.00  0.00    +0.159 HD
ENDROOT
BRANCH   1  10
ATOM     10  C   UNL     1     -12.016  -9.714 -17.035  0.00  0.00    +0.151 C 
BRANCH  10  11
ATOM     11  C   UNL     1     -12.522  -8.297 -17.042  0.00  0.00    -0.028 A 
ATOM     12  C   UNL     1     -11.721  -7.253 -16.558  0.00  0.00    +0.005 A 
ATOM     13  C   UNL     1     -13.799  -7.993 -17.538  0.00  0.00    +0.005 A 
ATOM     14  C   UNL     1     -12.179  -5.933 -16.592  0.00  0.00    +0.000 A 
ATOM     15  C   UNL     1     -14.253  -6.675 -17.570  0.00  0.00    +0.000 A 
ATOM     16  C   UNL     1     -13.442  -5.645 -17.099  0.00  0.00    +0.000 A 
ENDBRANCH  10  11
ENDBRANCH   1  10
TORSDOF 2
ENDMDL
MODEL 7
REMARK VINA RESULT:    -4.220     23.986     24.703
REMARK INTER + INTRA:          -4.853
REMARK INTER:                  -4.690
REMARK INTRA:                  -0.162
REMARK UNBOUND:                -0.139
REMARK  Name = 1550473
REMARK  2 active torsions:
REMARK  status: ('A' for Active; 'I' for Inactive)
REMARK    1  A    between atoms: N_1  and  C_4
REMARK    2  A    between atoms: C_4  and  C_5
REMARK                            x       y       z     vdW  Elec       q    Type
REMARK                         _______ _______ _______ _____ _____    ______ ____
ROOT
ATOM      1  N   UNL     1       3.595  -9.187   3.815  0.00  0.00    -0.354 N 
ATOM      2  N   UNL     1       4.347  -9.684   5.948  0.00  0.00    -0.372 N 
ATOM      3  N   UNL     1       4.862  -7.641   5.039  0.00  0.00    -0.372 N 
ATOM      4  C   UNL     1       4.264  -8.832   4.919  0.00  0.00    +0.166 C 
ATOM      5  H   UNL     1       3.190 -10.115   3.775  0.00  0.00    +0.163 HD
ATOM      6  H   UNL     1       4.842  -9.442   6.796  0.00  0.00    +0.159 HD
ATOM      7  H   UNL     1       3.902 -10.593   5.924  0.00  0.00    +0.159 HD
ATOM      8  H   UNL     1       4.841  -6.955   4.296  0.00  0.00    +0.159 HD
ATOM      9  H   UNL     1       5.372  -7.386   5.875  0.00  0.00    +0.159 HD
ENDROOT
BRANCH   1  10
ATOM     10  C   UNL     1       3.400  -8.312   2.660  0.00  0.00    +0.151 C 
BRANCH  10  11
ATOM     11  C   UNL     1       1.934  -8.012   2.513  0.00  0.00    -0.028 A 
ATOM     12  C   UNL     1       1.152  -8.716   1.586  0.00  0.00    +0.005 A 
ATOM     13  C   UNL     1       1.319  -7.027   3.302  0.00  0.00    +0.005 A 
ATOM     14  C   UNL     1      -0.216  -8.458   1.471  0.00  0.00    +0.000 A 
ATOM     15  C   UNL     1      -0.047  -6.772   3.183  0.00  0.00    +0.000 A 
ATOM     16  C   UNL     1      -0.814  -7.490   2.269  0.00  0.00    +0.000 A 
ENDBRANCH  10  11
ENDBRANCH   1  10
TORSDOF 2
ENDMDL
MODEL 8
REMARK VINA RESULT:    -4.103      5.165      7.004
REMARK INTER + INTRA:          -4.721
REMARK INTER:                  -4.599
REMARK INTRA:                  -0.122
REMARK UNBOUND:                -0.139
REMARK  Name = 1550473
REMARK  2 active torsions:
REMARK  status: ('A' for Active; 'I' for Inactive)
REMARK    1  A    between atoms: N_1  and  C_4
REMARK    2  A    between atoms: C_4  and  C_5
REMARK                            x       y       z     vdW  Elec       q    Type
REMARK                         _______ _______ _______ _____ _____    ______ ____
ROOT
ATOM      1  N   UNL     1      -1.948  13.133  12.623  0.00  0.00    -0.354 N 
ATOM      2  N   UNL     1      -2.998  14.974  11.689  0.00  0.00    -0.372 N 
ATOM      3  N   UNL     1      -2.559  13.155  10.361  0.00  0.00    -0.372 N 
ATOM      4  C   UNL     1      -2.494  13.740  11.561  0.00  0.00    +0.166 C 
ATOM      5  H   UNL     1      -1.903  13.642  13.498  0.00  0.00    +0.163 HD
ATOM      6  H   UNL     1      -3.420  15.456  10.907  0.00  0.00    +0.159 HD
ATOM      7  H   UNL     1      -2.993  15.462  12.576  0.00  0.00    +0.159 HD
ATOM      8  H   UNL     1      -2.192  12.227  10.197  0.00  0.00    +0.159 HD
ATOM      9  H   UNL     1      -2.967  13.626   9.563  0.00  0.00    +0.159 HD
ENDROOT
BRANCH   1  10
ATOM     10  C   UNL     1      -1.420  11.770  12.603  0.00  0.00    +0.151 C 
BRANCH  10  11
ATOM     11  C   UNL     1      -1.112  11.342  14.012  0.00  0.00    -0.028 A 
ATOM     12  C   UNL     1      -0.231  10.279  14.256  0.00  0.00    +0.005 A 
ATOM     13  C   UNL     1      -1.695  11.999  15.106  0.00  0.00    +0.005 A 
ATOM     14  C   UNL     1       0.079   9.900  15.565  0.00  0.00    +0.000 A 
ATOM     15  C   UNL     1      -1.384  11.617  16.411  0.00  0.00    +0.000 A 
ATOM     16  C   UNL     1      -0.495  10.570  16.640  0.00  0.00    +0.000 A 
ENDBRANCH  10  11
ENDBRANCH   1  10
TORSDOF 2
ENDMDL
MODEL 9
REMARK VINA RESULT:    -3.964     25.800     26.441
REMARK INTER + INTRA:          -4.566
REMARK INTER:                  -4.429
REMARK INTRA:                  -0.138
REMARK UNBOUND:                -0.139
REMARK  Name = 1550473
REMARK  2 active torsions:
REMARK  status: ('A' for Active; 'I' for Inactive)
REMARK    1  A    between atoms: N_1  and  C_4
REMARK    2  A    between atoms: C_4  and  C_5
REMARK                            x       y       z     vdW  Elec       q    Type
REMARK                         _______ _______ _______ _____ _____    ______ ____
ROOT
ATOM      1  N   UNL     1       1.870 -10.208   0.347  0.00  0.00    -0.354 N 
ATOM      2  N   UNL     1       1.366 -11.685  -1.364  0.00  0.00    -0.372 N 
ATOM      3  N   UNL     1       2.561  -9.788  -1.853  0.00  0.00    -0.372 N 
ATOM      4  C   UNL     1       1.937 -10.548  -0.947  0.00  0.00    +0.166 C 
ATOM      5  H   UNL     1       1.357 -10.813   0.978  0.00  0.00    +0.163 HD
ATOM      6  H   UNL     1       1.403 -11.969  -2.334  0.00  0.00    +0.159 HD
ATOM      7  H   UNL     1       0.893 -12.310  -0.724  0.00  0.00    +0.159 HD
ATOM      8  H   UNL     1       3.007  -8.915  -1.603  0.00  0.00    +0.159 HD
ATOM      9  H   UNL     1       2.599 -10.050  -2.830  0.00  0.00    +0.159 HD
ENDROOT
BRANCH   1  10
ATOM     10  C   UNL     1       2.505  -9.019   0.914  0.00  0.00    +0.151 C 
BRANCH  10  11
ATOM     11  C   UNL     1       1.482  -8.243   1.698  0.00  0.00    -0.028 A 
ATOM     12  C   UNL     1       0.118  -8.348   1.389  0.00  0.00    +0.005 A 
ATOM     13  C   UNL     1       1.871  -7.406   2.754  0.00  0.00    +0.005 A 
ATOM     14  C   UNL     1      -0.834  -7.651   2.136  0.00  0.00    +0.000 A 
ATOM     15  C   UNL     1       0.917  -6.711   3.498  0.00  0.00    +0.000 A 
ATOM     16  C   UNL     1      -0.436  -6.836   3.190  0.00  0.00    +0.000 A 
ENDBRANCH  10  11
ENDBRANCH   1  10
TORSDOF 2
ENDMDL
