MODEL 1
REMARK VINA RESULT:    -5.694      0.000      0.000
REMARK INTER + INTRA:          -6.501
REMARK INTER:                  -6.359
REMARK INTRA:                  -0.141
REMARK UNBOUND:                -0.141
REMARK  Name = 1550473
REMARK  2 active torsions:
REMARK  status: ('A' for Active; 'I' for Inactive)
REMARK    1  A    between atoms: N_1  and  C_4
REMARK    2  A    between atoms: C_4  and  C_5
REMARK                            x       y       z     vdW  Elec       q    Type
REMARK                         _______ _______ _______ _____ _____    ______ ____
ROOT
ATOM      1  N   UNL     1      -1.755   0.459   4.428  0.00  0.00    -0.354 N 
ATOM      2  N   UNL     1      -2.517  -0.187   2.339  0.00  0.00    -0.372 N 
ATOM      3  N   UNL     1      -0.643  -1.195   3.196  0.00  0.00    -0.372 N 
ATOM      4  C   UNL     1      -1.631  -0.305   3.335  0.00  0.00    +0.166 C 
ATOM      5  H   UNL     1      -2.509   1.136   4.459  0.00  0.00    +0.163 HD
ATOM      6  H   UNL     1      -2.451  -0.753   1.503  0.00  0.00    +0.159 HD
ATOM      7  H   UNL     1      -3.296   0.458   2.392  0.00  0.00    +0.159 HD
ATOM      8  H   UNL     1       0.062  -1.328   3.909  0.00  0.00    +0.159 HD
ATOM      9  H   UNL     1      -0.553  -1.762   2.362  0.00  0.00    +0.159 HD
ENDROOT
BRANCH   1  10
ATOM     10  C   UNL     1      -0.875   0.371   5.592  0.00  0.00    +0.151 C 
BRANCH  10  11
ATOM     11  C   UNL     1      -0.412   1.753   5.963  0.00  0.00    -0.028 A 
ATOM     12  C   UNL     1      -0.148   2.707   4.970  0.00  0.00    +0.005 A 
ATOM     13  C   UNL     1      -0.240   2.116   7.308  0.00  0.00    +0.005 A 
ATOM     14  C   UNL     1       0.253   3.999   5.316  0.00  0.00    +0.000 A 
ATOM     15  C   UNL     1       0.161   3.407   7.649  0.00  0.00    +0.000 A 
ATOM     16  C   UNL     1       0.405   4.349   6.653  0.00  0.00    +0.000 A 
ENDBRANCH  10  11
ENDBRANCH   1  10
TORSDOF 2
ENDMDL
MODEL 2
REMARK VINA RESULT:    -5.596      1.921      2.595
REMARK INTER + INTRA:          -6.391
REMARK INTER:                  -6.239
REMARK INTRA:                  -0.152
REMARK UNBOUND:                -0.141
REMARK  Name = 1550473
REMARK  2 active torsions:
REMARK  status: ('A' for Active; 'I' for Inactive)
REMARK    1  A    between atoms: N_1  and  C_4
REMARK    2  A    between atoms: C_4  and  C_5
REMARK                            x       y       z     vdW  Elec       q    Type
REMARK                         _______ _______ _______ _____ _____    ______ ____
ROOT
ATOM      1  N   UNL     1      -2.894   2.007   4.652  0.00  0.00    -0.354 N 
ATOM      2  N   UNL     1      -4.160   3.174   3.104  0.00  0.00    -0.372 N 
ATOM      3  N   UNL     1      -2.107   2.366   2.474  0.00  0.00    -0.372 N 
ATOM      4  C   UNL     1      -3.043   2.508   3.418  0.00  0.00    +0.166 C 
ATOM      5  H   UNL     1      -3.627   2.175   5.331  0.00  0.00    +0.163 HD
ATOM      6  H   UNL     1      -4.302   3.561   2.180  0.00  0.00    +0.159 HD
ATOM      7  H   UNL     1      -4.911   3.301   3.771  0.00  0.00    +0.159 HD
ATOM      8  H   UNL     1      -1.239   1.878   2.649  0.00  0.00    +0.159 HD
ATOM      9  H   UNL     1      -2.226   2.755   1.547  0.00  0.00    +0.159 HD
ENDROOT
BRANCH   1  10
ATOM     10  C   UNL     1      -1.739   1.219   5.080  0.00  0.00    +0.151 C 
BRANCH  10  11
ATOM     11  C   UNL     1      -0.980   1.989   6.125  0.00  0.00    -0.028 A 
ATOM     12  C   UNL     1      -0.869   1.495   7.433  0.00  0.00    +0.005 A 
ATOM     13  C   UNL     1      -0.363   3.210   5.812  0.00  0.00    +0.005 A 
ATOM     14  C   UNL     1      -0.138   2.195   8.396  0.00  0.00    +0.000 A 
ATOM     15  C   UNL     1       0.365   3.906   6.777  0.00  0.00    +0.000 A 
ATOM     16  C   UNL     1       0.479   3.397   8.068  0.00  0.00    +0.000 A 
ENDBRANCH  10  11
ENDBRANCH   1  10
TORSDOF 2
ENDMDL
MODEL 3
REMARK VINA RESULT:    -5.390      2.886      3.747
REMARK INTER + INTRA:          -6.162
REMARK INTER:                  -5.998
REMARK INTRA:                  -0.163
REMARK UNBOUND:                -0.141
REMARK  Name = 1550473
REMARK  2 active torsions:
REMARK  status: ('A' for Active; 'I' for Inactive)
REMARK    1  A    between atoms: N_1  and  C_4
REMARK    2  A    between atoms: C_4  and  C_5
REMARK                            x       y       z     vdW  Elec       q    Type
REMARK                         _______ _______ _______ _____ _____    ______ ____
ROOT
ATOM      1  N   UNL     1       0.446  -1.692   5.077  0.00  0.00    -0.354 N 
ATOM      2  N   UNL     1       2.180  -2.594   3.834  0.00  0.00    -0.372 N 
ATOM      3  N   UNL     1       0.114  -3.588   3.741  0.00  0.00    -0.372 N 
ATOM      4  C   UNL     1       0.900  -2.621   4.225  0.00  0.00    +0.166 C 
ATOM      5  H   UNL     1       1.100  -1.004   5.432  0.00  0.00    +0.163 HD
ATOM      6  H   UNL     1       2.550  -3.279   3.190  0.00  0.00    +0.159 HD
ATOM      7  H   UNL     1       2.820  -1.877   4.154  0.00  0.00    +0.159 HD
ATOM      8  H   UNL     1      -0.860  -3.668   4.001  0.00  0.00    +0.159 HD
ATOM      9  H   UNL     1       0.469  -4.290   3.104  0.00  0.00    +0.159 HD
ENDROOT
BRANCH   1  10
ATOM     10  C   UNL     1      -0.943  -1.601   5.523  0.00  0.00    +0.151 C 
BRANCH  10  11
ATOM     11  C   UNL     1      -1.572  -0.374   4.923  0.00  0.00    -0.028 A 
ATOM     12  C   UNL     1      -1.976  -0.365   3.580  0.00  0.00    +0.005 A 
ATOM     13  C   UNL     1      -1.772   0.781   5.695  0.00  0.00    +0.005 A 
ATOM     14  C   UNL     1      -2.587   0.765   3.031  0.00  0.00    +0.000 A 
ATOM     15  C   UNL     1      -2.382   1.907   5.142  0.00  0.00    +0.000 A 
ATOM     16  C   UNL     1      -2.792   1.898   3.811  0.00  0.00    +0.000 A 
ENDBRANCH  10  11
ENDBRANCH   1  10
TORSDOF 2
ENDMDL
MODEL 4
REMARK VINA RESULT:    -5.104      1.290      2.233
REMARK INTER + INTRA:          -5.842
REMARK INTER:                  -5.708
REMARK INTRA:                  -0.134
REMARK UNBOUND:                -0.141
REMARK  Name = 1550473
REMARK  2 active torsions:
REMARK  status: ('A' for Active; 'I' for Inactive)
REMARK    1  A    between atoms: N_1  and  C_4
REMARK    2  A    between atoms: C_4  and  C_5
REMARK                            x       y       z     vdW  Elec       q    Type
REMARK                         _______ _______ _______ _____ _____    ______ ____
ROOT
ATOM      1  N   UNL     1      -1.658   1.315   4.239  0.00  0.00    -0.354 N 
ATOM      2  N   UNL     1      -2.036  -0.127   2.466  0.00  0.00    -0.372 N 
ATOM      3  N   UNL     1      -1.317   2.008   2.027  0.00  0.00    -0.372 N 
ATOM      4  C   UNL     1      -1.667   1.077   2.921  0.00  0.00    +0.166 C 
ATOM      5  H   UNL     1      -1.963   0.577   4.863  0.00  0.00    +0.163 HD
ATOM      6  H   UNL     1      -2.050  -0.336   1.477  0.00  0.00    +0.159 HD
ATOM      7  H   UNL     1      -2.297  -0.877   3.095  0.00  0.00    +0.159 HD
ATOM      8  H   UNL     1      -1.035   2.938   2.305  0.00  0.00    +0.159 HD
ATOM      9  H   UNL     1      -1.336   1.821   1.032  0.00  0.00    +0.159 HD
ENDROOT
BRANCH   1  10
ATOM     10  C   UNL     1      -1.221   2.574   4.840  0.00  0.00    +0.151 C 
BRANCH  10  11
ATOM     11  C   UNL     1      -0.537   2.283   6.147  0.00  0.00    -0.028 A 
ATOM     12  C   UNL     1      -0.128   3.331   6.985  0.00  0.00    +0.005 A 
ATOM     13  C   UNL     1      -0.299   0.962   6.556  0.00  0.00    +0.005 A 
ATOM     14  C   UNL     1       0.481   3.061   8.213  0.00  0.00    +0.000 A 
ATOM     15  C   UNL     1       0.310   0.696   7.782  0.00  0.00    +0.000 A 
ATOM     16  C   UNL     1       0.697   1.746   8.612  0.00  0.00    +0.000 A 
ENDBRANCH  10  11
ENDBRANCH   1  10
TORSDOF 2
ENDMDL
MODEL 5
REMARK VINA RESULT:    -5.074      2.957      4.470
REMARK INTER + INTRA:          -5.808
REMARK INTER:                  -5.687
REMARK INTRA:                  -0.121
REMARK UNBOUND:                -0.141
REMARK  Name = 1550473
REMARK  2 active torsions:
REMARK  status: ('A' for Active; 'I' for Inactive)
REMARK    1  A    between atoms: N_1  and  C_4
REMARK    2  A    between atoms: C_4  and  C_5
REMARK                            x       y       z     vdW  Elec       q    Type
REMARK                         _______ _______ _______ _____ _____    ______ ____
ROOT
ATOM      1  N   UNL     1      -2.571   0.652   3.369  0.00  0.00    -0.354 N 
ATOM      2  N   UNL     1      -2.845   2.900   2.883  0.00  0.00    -0.372 N 
ATOM      3  N   UNL     1      -0.734   2.105   3.300  0.00  0.00    -0.372 N 
ATOM      4  C   UNL     1      -2.045   1.871   3.188  0.00  0.00    +0.166 C 
ATOM      5  H   UNL     1      -3.577   0.547   3.299  0.00  0.00    +0.163 HD
ATOM      6  H   UNL     1      -2.477   3.831   2.737  0.00  0.00    +0.159 HD
ATOM      7  H   UNL     1      -3.845   2.783   2.769  0.00  0.00    +0.159 HD
ATOM      8  H   UNL     1      -0.077   1.373   3.534  0.00  0.00    +0.159 HD
ATOM      9  H   UNL     1      -0.347   3.032   3.170  0.00  0.00    +0.159 HD
ENDROOT
BRANCH   1  10
ATOM     10  C   UNL     1      -1.781  -0.545   3.650  0.00  0.00    +0.151 C 
BRANCH  10  11
ATOM     11  C   UNL     1      -2.115  -1.040   5.031  0.00  0.00    -0.028 A 
ATOM     12  C   UNL     1      -2.137  -0.154   6.118  0.00  0.00    +0.005 A 
ATOM     13  C   UNL     1      -2.414  -2.392   5.257  0.00  0.00    +0.005 A 
ATOM     14  C   UNL     1      -2.476  -0.608   7.395  0.00  0.00    +0.000 A 
ATOM     15  C   UNL     1      -2.751  -2.841   6.534  0.00  0.00    +0.000 A 
ATOM     16  C   UNL     1      -2.785  -1.948   7.602  0.00  0.00    +0.000 A 
ENDBRANCH  10  11
ENDBRANCH   1  10
TORSDOF 2
ENDMDL
MODEL 6
REMARK VINA RESULT:    -4.902      2.517      3.413
REMARK INTER + INTRA:          -5.616
REMARK INTER:                  -5.482
REMARK INTRA:                  -0.134
REMARK UNBOUND:                -0.141
REMARK  Name = 1550473
REMARK  2 active torsions:
REMARK  status: ('A' for Active; 'I' for Inactive)
REMARK    1  A    between atoms: N_1  and  C_4
REMARK    2  A    between atoms: C_4  and  C_5
REMARK                            x       y       z     vdW  Elec       q    Type
REMARK                         _______ _______ _______ _____ _____    ______ ____
ROOT
ATOM      1  N   UNL     1      -2.526   0.566   7.369  0.00  0.00    -0.354 N 
ATOM      2  N   UNL     1      -3.586  -0.531   9.112  0.00  0.00    -0.372 N 
ATOM      3  N   UNL     1      -2.199  -1.727   7.730  0.00  0.00    -0.372 N 
ATOM      4  C   UNL     1      -2.762  -0.559   8.058  0.00  0.00    +0.166 C 
ATOM      5  H   UNL     1      -3.007   1.412   7.650  0.00  0.00    +0.163 HD
ATOM      6  H   UNL     1      -3.781  -1.363   9.653  0.00  0.00    +0.159 HD
ATOM      7  H   UNL     1      -4.029   0.326   9.419  0.00  0.00    +0.159 HD
ATOM      8  H   UNL     1      -1.573  -1.817   6.941  0.00  0.00    +0.159 HD
ATOM      9  H   UNL     1      -2.391  -2.573   8.251  0.00  0.00    +0.159 HD
ENDROOT
BRANCH   1  10
ATOM     10  C   UNL     1      -1.603   0.653   6.238  0.00  0.00    +0.151 C 
BRANCH  10  11
ATOM     11  C   UNL     1      -0.829   1.939   6.335  0.00  0.00    -0.028 A 
ATOM     12  C   UNL     1      -0.421   2.432   7.582  0.00  0.00    +0.005 A 
ATOM     13  C   UNL     1      -0.496   2.666   5.181  0.00  0.00    +0.005 A 
ATOM     14  C   UNL     1       0.324   3.611   7.670  0.00  0.00    +0.000 A 
ATOM     15  C   UNL     1       0.247   3.843   5.273  0.00  0.00    +0.000 A 
ATOM     16  C   UNL     1       0.659   4.313   6.517  0.00  0.00    +0.000 A 
ENDBRANCH  10  11
ENDBRANCH   1  10
TORSDOF 2
ENDMDL
MODEL 7
REMARK VINA RESULT:    -4.872      3.860      5.397
REMARK INTER + INTRA:          -5.582
REMARK INTER:                  -5.417
REMARK INTRA:                  -0.166
REMARK UNBOUND:                -0.141
REMARK  Name = 1550473
REMARK  2 active torsions:
REMARK  status: ('A' for Active; 'I' for Inactive)
REMARK    1  A    between atoms: N_1  and  C_4
REMARK    2  A    between atoms: C_4  and  C_5
REMARK                            x       y       z     vdW  Elec       q    Type
REMARK                         _______ _______ _______ _____ _____    ______ ____
ROOT
ATOM      1  N   UNL     1      -1.662   2.061   9.746  0.00  0.00    -0.354 N 
ATOM      2  N   UNL     1      -2.968   3.310  11.195  0.00  0.00    -0.372 N 
ATOM      3  N   UNL     1      -0.825   4.001  10.759  0.00  0.00    -0.372 N 
ATOM      4  C   UNL     1      -1.807   3.117  10.558  0.00  0.00    +0.166 C 
ATOM      5  H   UNL     1      -2.435   1.411   9.660  0.00  0.00    +0.163 HD
ATOM      6  H   UNL     1      -3.109   4.099  11.811  0.00  0.00    +0.159 HD
ATOM      7  H   UNL     1      -3.755   2.684  11.071  0.00  0.00    +0.159 HD
ATOM      8  H   UNL     1       0.078   3.910  10.312  0.00  0.00    +0.159 HD
ATOM      9  H   UNL     1      -0.942   4.792  11.380  0.00  0.00    +0.159 HD
ENDROOT
BRANCH   1  10
ATOM     10  C   UNL     1      -0.458   1.790   8.964  0.00  0.00    +0.151 C 
BRANCH  10  11
ATOM     11  C   UNL     1      -0.744   2.058   7.512  0.00  0.00    -0.028 A 
ATOM     12  C   UNL     1      -1.681   1.279   6.816  0.00  0.00    +0.005 A 
ATOM     13  C   UNL     1      -0.087   3.092   6.828  0.00  0.00    +0.005 A 
ATOM     14  C   UNL     1      -1.970   1.547   5.476  0.00  0.00    +0.000 A 
ATOM     15  C   UNL     1      -0.377   3.355   5.490  0.00  0.00    +0.000 A 
ATOM     16  C   UNL     1      -1.320   2.584   4.815  0.00  0.00    +0.000 A 
ENDBRANCH  10  11
ENDBRANCH   1  10
TORSDOF 2
ENDMDL
MODEL 8
REMARK VINA RESULT:    -4.861     11.242     12.206
REMARK INTER + INTRA:          -5.570
REMARK INTER:                  -5.423
REMARK INTRA:                  -0.147
REMARK UNBOUND:                -0.141
REMARK  Name = 1550473
REMARK  2 active torsions:
REMARK  status: ('A' for Active; 'I' for Inactive)
REMARK    1  A    between atoms: N_1  and  C_4
REMARK    2  A    between atoms: C_4  and  C_5
REMARK                            x       y       z     vdW  Elec       q    Type
REMARK                         _______ _______ _______ _____ _____    ______ ____
ROOT
ATOM      1  N   UNL     1      -7.828   0.086  14.119  0.00  0.00    -0.354 N 
ATOM      2  N   UNL     1      -5.727  -0.827  13.783  0.00  0.00    -0.372 N 
ATOM      3  N   UNL     1      -7.512  -2.236  14.084  0.00  0.00    -0.372 N 
ATOM      4  C   UNL     1      -7.038  -0.988  13.998  0.00  0.00    +0.166 C 
ATOM      5  H   UNL     1      -7.402   1.005  14.074  0.00  0.00    +0.163 HD
ATOM      6  H   UNL     1      -5.106  -1.618  13.684  0.00  0.00    +0.159 HD
ATOM      7  H   UNL     1      -5.311   0.093  13.693  0.00  0.00    +0.159 HD
ATOM      8  H   UNL     1      -8.491  -2.426  14.251  0.00  0.00    +0.159 HD
ATOM      9  H   UNL     1      -6.905  -3.041  13.999  0.00  0.00    +0.159 HD
ENDROOT
BRANCH   1  10
ATOM     10  C   UNL     1      -9.277   0.019  14.301  0.00  0.00    +0.151 C 
BRANCH  10  11
ATOM     11  C   UNL     1      -9.953   0.467  13.035  0.00  0.00    -0.028 A 
ATOM     12  C   UNL     1     -10.643   1.688  12.990  0.00  0.00    +0.005 A 
ATOM     13  C   UNL     1      -9.902  -0.321  11.875  0.00  0.00    +0.005 A 
ATOM     14  C   UNL     1     -11.245   2.119  11.805  0.00  0.00    +0.000 A 
ATOM     15  C   UNL     1     -10.505   0.113  10.694  0.00  0.00    +0.000 A 
ATOM     16  C   UNL     1     -11.175   1.334  10.659  0.00  0.00    +0.000 A 
ENDBRANCH  10  11
ENDBRANCH   1  10
TORSDOF 2
ENDMDL
MODEL 9
REMARK VINA RESULT:    -4.859      2.257      3.314
REMARK INTER + INTRA:          -5.568
REMARK INTER:                  -5.446
REMARK INTRA:                  -0.122
REMARK UNBOUND:                -0.141
REMARK  Name = 1550473
REMARK  2 active torsions:
REMARK  status: ('A' for Active; 'I' for Inactive)
REMARK    1  A    between atoms: N_1  and  C_4
REMARK    2  A    between atoms: C_4  and  C_5
REMARK                            x       y       z     vdW  Elec       q    Type
REMARK                         _______ _______ _______ _____ _____    ______ ____
ROOT
ATOM      1  N   UNL     1      -1.014   0.508   3.764  0.00  0.00    -0.354 N 
ATOM      2  N   UNL     1      -1.141   2.124   2.110  0.00  0.00    -0.372 N 
ATOM      3  N   UNL     1      -3.000   1.693   3.383  0.00  0.00    -0.372 N 
ATOM      4  C   UNL     1      -1.720   1.431   3.097  0.00  0.00    +0.166 C 
ATOM      5  H   UNL     1      -0.057   0.336   3.479  0.00  0.00    +0.163 HD
ATOM      6  H   UNL     1      -1.647   2.830   1.592  0.00  0.00    +0.159 HD
ATOM      7  H   UNL     1      -0.170   1.982   1.858  0.00  0.00    +0.159 HD
ATOM      8  H   UNL     1      -3.497   1.200   4.113  0.00  0.00    +0.159 HD
ATOM      9  H   UNL     1      -3.527   2.387   2.868  0.00  0.00    +0.159 HD
ENDROOT
BRANCH   1  10
ATOM     10  C   UNL     1      -1.536  -0.263   4.891  0.00  0.00    +0.151 C 
BRANCH  10  11
ATOM     11  C   UNL     1      -0.493  -0.317   5.974  0.00  0.00    -0.028 A 
ATOM     12  C   UNL     1      -0.253   0.800   6.787  0.00  0.00    +0.005 A 
ATOM     13  C   UNL     1       0.254  -1.485   6.194  0.00  0.00    +0.005 A 
ATOM     14  C   UNL     1       0.694   0.740   7.812  0.00  0.00    +0.000 A 
ATOM     15  C   UNL     1       1.200  -1.540   7.218  0.00  0.00    +0.000 A 
ATOM     16  C   UNL     1       1.418  -0.428   8.029  0.00  0.00    +0.000 A 
ENDBRANCH  10  11
ENDBRANCH   1  10
TORSDOF 2
ENDMDL
