MODEL 1
REMARK VINA RESULT:    -5.975      0.000      0.000
REMARK INTER + INTRA:          -6.784
REMARK INTER:                  -6.673
REMARK INTRA:                  -0.110
REMARK UNBOUND:                -0.110
REMARK  Name = 1550473
REMARK  2 active torsions:
REMARK  status: ('A' for Active; 'I' for Inactive)
REMARK    1  A    between atoms: N_1  and  C_4
REMARK    2  A    between atoms: C_4  and  C_5
REMARK                            x       y       z     vdW  Elec       q    Type
REMARK                         _______ _______ _______ _____ _____    ______ ____
ROOT
ATOM      1  N   UNL     1      -9.733   7.469   1.760  0.00  0.00    -0.354 N 
ATOM      2  N   UNL     1     -12.003   7.714   2.153  0.00  0.00    -0.372 N 
ATOM      3  N   UNL     1     -10.788   6.310   3.502  0.00  0.00    -0.372 N 
ATOM      4  C   UNL     1     -10.826   7.161   2.471  0.00  0.00    +0.166 C 
ATOM      5  H   UNL     1      -9.834   8.098   0.971  0.00  0.00    +0.163 HD
ATOM      6  H   UNL     1     -12.843   7.503   2.674  0.00  0.00    +0.159 HD
ATOM      7  H   UNL     1     -12.092   8.377   1.393  0.00  0.00    +0.159 HD
ATOM      8  H   UNL     1      -9.932   5.854   3.789  0.00  0.00    +0.159 HD
ATOM      9  H   UNL     1     -11.621   6.077   4.028  0.00  0.00    +0.159 HD
ENDROOT
BRANCH   1  10
ATOM     10  C   UNL     1      -8.394   6.964   2.057  0.00  0.00    +0.151 C 
BRANCH  10  11
ATOM     11  C   UNL     1      -7.436   7.470   1.015  0.00  0.00    -0.028 A 
ATOM     12  C   UNL     1      -7.784   7.448  -0.344  0.00  0.00    +0.005 A 
ATOM     13  C   UNL     1      -6.180   7.979   1.380  0.00  0.00    +0.005 A 
ATOM     14  C   UNL     1      -6.905   7.946  -1.309  0.00  0.00    +0.000 A 
ATOM     15  C   UNL     1      -5.306   8.475   0.413  0.00  0.00    +0.000 A 
ATOM     16  C   UNL     1      -5.670   8.460  -0.931  0.00  0.00    +0.000 A 
ENDBRANCH  10  11
ENDBRANCH   1  10
TORSDOF 2
ENDMDL
MODEL 2
REMARK VINA RESULT:    -5.603      2.907      4.937
REMARK INTER + INTRA:          -6.369
REMARK INTER:                  -6.226
REMARK INTRA:                  -0.143
REMARK UNBOUND:                -0.110
REMARK  Name = 1550473
REMARK  2 active torsions:
REMARK  status: ('A' for Active; 'I' for Inactive)
REMARK    1  A    between atoms: N_1  and  C_4
REMARK    2  A    between atoms: C_4  and  C_5
REMARK                            x       y       z     vdW  Elec       q    Type
REMARK                         _______ _______ _______ _____ _____    ______ ____
ROOT
ATOM      1  N   UNL     1      -6.096   7.459   0.781  0.00  0.00    -0.354 N 
ATOM      2  N   UNL     1      -4.522   9.135   0.502  0.00  0.00    -0.372 N 
ATOM      3  N   UNL     1      -5.603   8.310  -1.346  0.00  0.00    -0.372 N 
ATOM      4  C   UNL     1      -5.418   8.289  -0.022  0.00  0.00    +0.166 C 
ATOM      5  H   UNL     1      -5.888   7.471   1.773  0.00  0.00    +0.163 HD
ATOM      6  H   UNL     1      -3.998   9.776  -0.078  0.00  0.00    +0.159 HD
ATOM      7  H   UNL     1      -4.349   9.177   1.499  0.00  0.00    +0.159 HD
ATOM      8  H   UNL     1      -6.260   7.693  -1.804  0.00  0.00    +0.159 HD
ATOM      9  H   UNL     1      -5.080   8.936  -1.945  0.00  0.00    +0.159 HD
ENDROOT
BRANCH   1  10
ATOM     10  C   UNL     1      -7.132   6.537   0.317  0.00  0.00    +0.151 C 
BRANCH  10  11
ATOM     11  C   UNL     1      -8.439   6.901   0.965  0.00  0.00    -0.028 A 
ATOM     12  C   UNL     1      -9.625   6.917   0.217  0.00  0.00    +0.005 A 
ATOM     13  C   UNL     1      -8.499   7.226   2.329  0.00  0.00    +0.005 A 
ATOM     14  C   UNL     1     -10.844   7.225   0.825  0.00  0.00    +0.000 A 
ATOM     15  C   UNL     1      -9.719   7.534   2.933  0.00  0.00    +0.000 A 
ATOM     16  C   UNL     1     -10.891   7.531   2.181  0.00  0.00    +0.000 A 
ENDBRANCH  10  11
ENDBRANCH   1  10
TORSDOF 2
ENDMDL
MODEL 3
REMARK VINA RESULT:    -5.511      1.267      2.042
REMARK INTER + INTRA:          -6.265
REMARK INTER:                  -6.098
REMARK INTRA:                  -0.168
REMARK UNBOUND:                -0.110
REMARK  Name = 1550473
REMARK  2 active torsions:
REMARK  status: ('A' for Active; 'I' for Inactive)
REMARK    1  A    between atoms: N_1  and  C_4
REMARK    2  A    between atoms: C_4  and  C_5
REMARK                            x       y       z     vdW  Elec       q    Type
REMARK                         _______ _______ _______ _____ _____    ______ ____
ROOT
ATOM      1  N   UNL     1      -8.940   5.709   2.321  0.00  0.00    -0.354 N 
ATOM      2  N   UNL     1     -10.827   6.326   3.514  0.00  0.00    -0.372 N 
ATOM      3  N   UNL     1     -11.026   5.898   1.269  0.00  0.00    -0.372 N 
ATOM      4  C   UNL     1     -10.253   5.974   2.358  0.00  0.00    +0.166 C 
ATOM      5  H   UNL     1      -8.404   5.814   3.174  0.00  0.00    +0.163 HD
ATOM      6  H   UNL     1     -11.816   6.528   3.574  0.00  0.00    +0.159 HD
ATOM      7  H   UNL     1     -10.297   6.385   4.376  0.00  0.00    +0.159 HD
ATOM      8  H   UNL     1     -10.653   5.644   0.364  0.00  0.00    +0.159 HD
ATOM      9  H   UNL     1     -12.016   6.108   1.306  0.00  0.00    +0.159 HD
ENDROOT
BRANCH   1  10
ATOM     10  C   UNL     1      -8.229   5.265   1.123  0.00  0.00    +0.151 C 
BRANCH  10  11
ATOM     11  C   UNL     1      -7.397   6.402   0.597  0.00  0.00    -0.028 A 
ATOM     12  C   UNL     1      -6.445   7.027   1.416  0.00  0.00    +0.005 A 
ATOM     13  C   UNL     1      -7.551   6.855  -0.723  0.00  0.00    +0.005 A 
ATOM     14  C   UNL     1      -5.651   8.062   0.918  0.00  0.00    +0.000 A 
ATOM     15  C   UNL     1      -6.757   7.890  -1.216  0.00  0.00    +0.000 A 
ATOM     16  C   UNL     1      -5.805   8.492  -0.396  0.00  0.00    +0.000 A 
ENDBRANCH  10  11
ENDBRANCH   1  10
TORSDOF 2
ENDMDL
MODEL 4
REMARK VINA RESULT:    -5.471     24.237     25.627
REMARK INTER + INTRA:          -6.221
REMARK INTER:                  -6.083
REMARK INTRA:                  -0.138
REMARK UNBOUND:                -0.110
REMARK  Name = 1550473
REMARK  2 active torsions:
REMARK  status: ('A' for Active; 'I' for Inactive)
REMARK    1  A    between atoms: N_1  and  C_4
REMARK    2  A    between atoms: C_4  and  C_5
REMARK                            x       y       z     vdW  Elec       q    Type
REMARK                         _______ _______ _______ _____ _____    ______ ____
ROOT
ATOM      1  N   UNL     1      15.754   0.206   0.110  0.00  0.00    -0.354 N 
ATOM      2  N   UNL     1      14.197   1.681   0.983  0.00  0.00    -0.372 N 
ATOM      3  N   UNL     1      14.789  -0.163   2.213  0.00  0.00    -0.372 N 
ATOM      4  C   UNL     1      14.923   0.563   1.099  0.00  0.00    +0.166 C 
ATOM      5  H   UNL     1      15.787   0.783  -0.723  0.00  0.00    +0.163 HD
ATOM      6  H   UNL     1      13.564   1.978   1.715  0.00  0.00    +0.159 HD
ATOM      7  H   UNL     1      14.266   2.280   0.170  0.00  0.00    +0.159 HD
ATOM      8  H   UNL     1      15.305  -1.021   2.359  0.00  0.00    +0.159 HD
ATOM      9  H   UNL     1      14.153   0.111   2.951  0.00  0.00    +0.159 HD
ENDROOT
BRANCH   1  10
ATOM     10  C   UNL     1      16.629  -0.964   0.159  0.00  0.00    +0.151 C 
BRANCH  10  11
ATOM     11  C   UNL     1      16.084  -2.024  -0.758  0.00  0.00    -0.028 A 
ATOM     12  C   UNL     1      15.133  -1.699  -1.736  0.00  0.00    +0.005 A 
ATOM     13  C   UNL     1      16.520  -3.354  -0.657  0.00  0.00    +0.005 A 
ATOM     14  C   UNL     1      14.649  -2.678  -2.607  0.00  0.00    +0.000 A 
ATOM     15  C   UNL     1      16.033  -4.329  -1.529  0.00  0.00    +0.000 A 
ATOM     16  C   UNL     1      15.100  -3.990  -2.505  0.00  0.00    +0.000 A 
ENDBRANCH  10  11
ENDBRANCH   1  10
TORSDOF 2
ENDMDL
MODEL 5
REMARK VINA RESULT:    -5.326      2.727      4.933
REMARK INTER + INTRA:          -6.059
REMARK INTER:                  -5.926
REMARK INTRA:                  -0.133
REMARK UNBOUND:                -0.110
REMARK  Name = 1550473
REMARK  2 active torsions:
REMARK  status: ('A' for Active; 'I' for Inactive)
REMARK    1  A    between atoms: N_1  and  C_4
REMARK    2  A    between atoms: C_4  and  C_5
REMARK                            x       y       z     vdW  Elec       q    Type
REMARK                         _______ _______ _______ _____ _____    ______ ____
ROOT
ATOM      1  N   UNL     1      -7.249   7.263   0.090  0.00  0.00    -0.354 N 
ATOM      2  N   UNL     1      -5.565   8.294  -1.120  0.00  0.00    -0.372 N 
ATOM      3  N   UNL     1      -5.957   8.974   1.036  0.00  0.00    -0.372 N 
ATOM      4  C   UNL     1      -6.268   8.172   0.012  0.00  0.00    +0.166 C 
ATOM      5  H   UNL     1      -7.456   6.706  -0.732  0.00  0.00    +0.163 HD
ATOM      6  H   UNL     1      -4.816   8.968  -1.207  0.00  0.00    +0.159 HD
ATOM      7  H   UNL     1      -5.743   7.705  -1.924  0.00  0.00    +0.159 HD
ATOM      8  H   UNL     1      -6.453   8.936   1.916  0.00  0.00    +0.159 HD
ATOM      9  H   UNL     1      -5.219   9.663   0.965  0.00  0.00    +0.159 HD
ENDROOT
BRANCH   1  10
ATOM     10  C   UNL     1      -8.039   7.013   1.295  0.00  0.00    +0.151 C 
BRANCH  10  11
ATOM     11  C   UNL     1      -9.500   7.041   0.939  0.00  0.00    -0.028 A 
ATOM     12  C   UNL     1      -9.941   6.544  -0.297  0.00  0.00    +0.005 A 
ATOM     13  C   UNL     1     -10.448   7.556   1.835  0.00  0.00    +0.005 A 
ATOM     14  C   UNL     1     -11.301   6.542  -0.615  0.00  0.00    +0.000 A 
ATOM     15  C   UNL     1     -11.805   7.553   1.513  0.00  0.00    +0.000 A 
ATOM     16  C   UNL     1     -12.232   7.043   0.289  0.00  0.00    +0.000 A 
ENDBRANCH  10  11
ENDBRANCH   1  10
TORSDOF 2
ENDMDL
MODEL 6
REMARK VINA RESULT:    -5.273      2.560      4.736
REMARK INTER + INTRA:          -6.000
REMARK INTER:                  -5.849
REMARK INTRA:                  -0.151
REMARK UNBOUND:                -0.110
REMARK  Name = 1550473
REMARK  2 active torsions:
REMARK  status: ('A' for Active; 'I' for Inactive)
REMARK    1  A    between atoms: N_1  and  C_4
REMARK    2  A    between atoms: C_4  and  C_5
REMARK                            x       y       z     vdW  Elec       q    Type
REMARK                         _______ _______ _______ _____ _____    ______ ____
ROOT
ATOM      1  N   UNL     1      -8.152   7.846   1.937  0.00  0.00    -0.354 N 
ATOM      2  N   UNL     1      -6.052   8.610   1.331  0.00  0.00    -0.372 N 
ATOM      3  N   UNL     1      -6.344   6.370   1.733  0.00  0.00    -0.372 N 
ATOM      4  C   UNL     1      -6.862   7.601   1.671  0.00  0.00    +0.166 C 
ATOM      5  H   UNL     1      -8.477   8.806   1.903  0.00  0.00    +0.163 HD
ATOM      6  H   UNL     1      -5.075   8.455   1.121  0.00  0.00    +0.159 HD
ATOM      7  H   UNL     1      -6.389   9.561   1.252  0.00  0.00    +0.159 HD
ATOM      8  H   UNL     1      -6.901   5.566   1.989  0.00  0.00    +0.159 HD
ATOM      9  H   UNL     1      -5.366   6.196   1.538  0.00  0.00    +0.159 HD
ENDROOT
BRANCH   1  10
ATOM     10  C   UNL     1      -9.131   6.811   2.265  0.00  0.00    +0.151 C 
BRANCH  10  11
ATOM     11  C   UNL     1     -10.244   6.850   1.255  0.00  0.00    -0.028 A 
ATOM     12  C   UNL     1     -11.486   7.413   1.585  0.00  0.00    +0.005 A 
ATOM     13  C   UNL     1     -10.062   6.331  -0.036  0.00  0.00    +0.005 A 
ATOM     14  C   UNL     1     -12.510   7.476   0.638  0.00  0.00    +0.000 A 
ATOM     15  C   UNL     1     -11.088   6.395  -0.979  0.00  0.00    +0.000 A 
ATOM     16  C   UNL     1     -12.311   6.970  -0.642  0.00  0.00    +0.000 A 
ENDBRANCH  10  11
ENDBRANCH   1  10
TORSDOF 2
ENDMDL
MODEL 7
REMARK VINA RESULT:    -5.263      9.969     10.896
REMARK INTER + INTRA:          -5.989
REMARK INTER:                  -5.816
REMARK INTRA:                  -0.172
REMARK UNBOUND:                -0.110
REMARK  Name = 1550473
REMARK  2 active torsions:
REMARK  status: ('A' for Active; 'I' for Inactive)
REMARK    1  A    between atoms: N_1  and  C_4
REMARK    2  A    between atoms: C_4  and  C_5
REMARK                            x       y       z     vdW  Elec       q    Type
REMARK                         _______ _______ _______ _____ _____    ______ ____
ROOT
ATOM      1  N   UNL     1     -12.572   5.649  10.974  0.00  0.00    -0.354 N 
ATOM      2  N   UNL     1     -13.840   4.488   9.423  0.00  0.00    -0.372 N 
ATOM      3  N   UNL     1     -12.901   3.338  11.172  0.00  0.00    -0.372 N 
ATOM      4  C   UNL     1     -13.095   4.497  10.535  0.00  0.00    +0.166 C 
ATOM      5  H   UNL     1     -12.731   6.489  10.429  0.00  0.00    +0.163 HD
ATOM      6  H   UNL     1     -14.250   3.635   9.069  0.00  0.00    +0.159 HD
ATOM      7  H   UNL     1     -14.035   5.337   8.905  0.00  0.00    +0.159 HD
ATOM      8  H   UNL     1     -12.343   3.276  12.013  0.00  0.00    +0.159 HD
ATOM      9  H   UNL     1     -13.293   2.471  10.827  0.00  0.00    +0.159 HD
ENDROOT
BRANCH   1  10
ATOM     10  C   UNL     1     -11.791   5.777  12.204  0.00  0.00    +0.151 C 
BRANCH  10  11
ATOM     11  C   UNL     1     -10.328   5.695  11.867  0.00  0.00    -0.028 A 
ATOM     12  C   UNL     1      -9.573   4.573  12.240  0.00  0.00    +0.005 A 
ATOM     13  C   UNL     1      -9.691   6.733  11.170  0.00  0.00    +0.005 A 
ATOM     14  C   UNL     1      -8.220   4.483  11.901  0.00  0.00    +0.000 A 
ATOM     15  C   UNL     1      -8.341   6.640  10.834  0.00  0.00    +0.000 A 
ATOM     16  C   UNL     1      -7.606   5.514  11.197  0.00  0.00    +0.000 A 
ENDBRANCH  10  11
ENDBRANCH   1  10
TORSDOF 2
ENDMDL
MODEL 8
REMARK VINA RESULT:    -5.153      3.474      5.224
REMARK INTER + INTRA:          -5.865
REMARK INTER:                  -5.732
REMARK INTRA:                  -0.133
REMARK UNBOUND:                -0.110
REMARK  Name = 1550473
REMARK  2 active torsions:
REMARK  status: ('A' for Active; 'I' for Inactive)
REMARK    1  A    between atoms: N_1  and  C_4
REMARK    2  A    between atoms: C_4  and  C_5
REMARK                            x       y       z     vdW  Elec       q    Type
REMARK                         _______ _______ _______ _____ _____    ______ ____
ROOT
ATOM      1  N   UNL     1      -6.965   6.229   1.736  0.00  0.00    -0.354 N 
ATOM      2  N   UNL     1      -6.665   8.455   2.301  0.00  0.00    -0.372 N 
ATOM      3  N   UNL     1      -5.995   7.737   0.227  0.00  0.00    -0.372 N 
ATOM      4  C   UNL     1      -6.542   7.459   1.415  0.00  0.00    +0.166 C 
ATOM      5  H   UNL     1      -7.343   6.077   2.664  0.00  0.00    +0.163 HD
ATOM      6  H   UNL     1      -6.358   9.394   2.086  0.00  0.00    +0.159 HD
ATOM      7  H   UNL     1      -7.085   8.310   3.211  0.00  0.00    +0.159 HD
ATOM      8  H   UNL     1      -5.869   7.029  -0.484  0.00  0.00    +0.159 HD
ATOM      9  H   UNL     1      -5.672   8.669  -0.003  0.00  0.00    +0.159 HD
ENDROOT
BRANCH   1  10
ATOM     10  C   UNL     1      -6.926   5.087   0.824  0.00  0.00    +0.151 C 
BRANCH  10  11
ATOM     11  C   UNL     1      -8.188   4.286   0.986  0.00  0.00    -0.028 A 
ATOM     12  C   UNL     1      -8.539   3.311   0.041  0.00  0.00    +0.005 A 
ATOM     13  C   UNL     1      -9.035   4.493   2.086  0.00  0.00    +0.005 A 
ATOM     14  C   UNL     1      -9.696   2.545   0.206  0.00  0.00    +0.000 A 
ATOM     15  C   UNL     1     -10.189   3.727   2.247  0.00  0.00    +0.000 A 
ATOM     16  C   UNL     1     -10.518   2.752   1.309  0.00  0.00    +0.000 A 
ENDBRANCH  10  11
ENDBRANCH   1  10
TORSDOF 2
ENDMDL
MODEL 9
REMARK VINA RESULT:    -5.054      2.508      3.214
REMARK INTER + INTRA:          -5.755
REMARK INTER:                  -5.601
REMARK INTRA:                  -0.155
REMARK UNBOUND:                -0.110
REMARK  Name = 1550473
REMARK  2 active torsions:
REMARK  status: ('A' for Active; 'I' for Inactive)
REMARK    1  A    between atoms: N_1  and  C_4
REMARK    2  A    between atoms: C_4  and  C_5
REMARK                            x       y       z     vdW  Elec       q    Type
REMARK                         _______ _______ _______ _____ _____    ______ ____
ROOT
ATOM      1  N   UNL     1      -8.253   4.529   1.078  0.00  0.00    -0.354 N 
ATOM      2  N   UNL     1      -8.807   2.576  -0.038  0.00  0.00    -0.372 N 
ATOM      3  N   UNL     1     -10.306   4.314  -0.032  0.00  0.00    -0.372 N 
ATOM      4  C   UNL     1      -9.121   3.821   0.343  0.00  0.00    +0.166 C 
ATOM      5  H   UNL     1      -7.384   4.087   1.355  0.00  0.00    +0.163 HD
ATOM      6  H   UNL     1      -9.441   2.019  -0.595  0.00  0.00    +0.159 HD
ATOM      7  H   UNL     1      -7.919   2.153   0.202  0.00  0.00    +0.159 HD
ATOM      8  H   UNL     1     -10.604   5.245   0.228  0.00  0.00    +0.159 HD
ATOM      9  H   UNL     1     -10.958   3.768  -0.580  0.00  0.00    +0.159 HD
ENDROOT
BRANCH   1  10
ATOM     10  C   UNL     1      -8.474   5.911   1.499  0.00  0.00    +0.151 C 
BRANCH  10  11
ATOM     11  C   UNL     1      -7.508   6.806   0.773  0.00  0.00    -0.028 A 
ATOM     12  C   UNL     1      -6.450   7.418   1.462  0.00  0.00    +0.005 A 
ATOM     13  C   UNL     1      -7.641   7.042  -0.603  0.00  0.00    +0.005 A 
ATOM     14  C   UNL     1      -5.535   8.226   0.783  0.00  0.00    +0.000 A 
ATOM     15  C   UNL     1      -6.726   7.850  -1.277  0.00  0.00    +0.000 A 
ATOM     16  C   UNL     1      -5.671   8.440  -0.584  0.00  0.00    +0.000 A 
ENDBRANCH  10  11
ENDBRANCH   1  10
TORSDOF 2
ENDMDL
