MODEL 1
REMARK VINA RESULT:    -5.098      0.000      0.000
REMARK INTER + INTRA:          -5.800
REMARK INTER:                  -5.694
REMARK INTRA:                  -0.106
REMARK UNBOUND:                -0.106
REMARK  Name = 1550473
REMARK  2 active torsions:
REMARK  status: ('A' for Active; 'I' for Inactive)
REMARK    1  A    between atoms: N_1  and  C_4
REMARK    2  A    between atoms: C_4  and  C_5
REMARK                            x       y       z     vdW  Elec       q    Type
REMARK                         _______ _______ _______ _____ _____    ______ ____
ROOT
ATOM      1  N   UNL     1       6.787   7.583  -9.783  0.00  0.00    -0.354 N 
ATOM      2  N   UNL     1       8.688   7.384 -11.091  0.00  0.00    -0.372 N 
ATOM      3  N   UNL     1       8.843   6.972  -8.839  0.00  0.00    -0.372 N 
ATOM      4  C   UNL     1       8.094   7.314  -9.893  0.00  0.00    +0.166 C 
ATOM      5  H   UNL     1       6.282   7.866 -10.615  0.00  0.00    +0.163 HD
ATOM      6  H   UNL     1       9.672   7.183 -11.205  0.00  0.00    +0.159 HD
ATOM      7  H   UNL     1       8.171   7.622 -11.928  0.00  0.00    +0.159 HD
ATOM      8  H   UNL     1       8.456   6.907  -7.907  0.00  0.00    +0.159 HD
ATOM      9  H   UNL     1       9.832   6.778  -8.931  0.00  0.00    +0.159 HD
ENDROOT
BRANCH   1  10
ATOM     10  C   UNL     1       6.034   7.484  -8.534  0.00  0.00    +0.151 C 
BRANCH  10  11
ATOM     11  C   UNL     1       4.635   7.987  -8.762  0.00  0.00    -0.028 A 
ATOM     12  C   UNL     1       4.418   9.252  -9.328  0.00  0.00    +0.005 A 
ATOM     13  C   UNL     1       3.524   7.203  -8.419  0.00  0.00    +0.005 A 
ATOM     14  C   UNL     1       3.119   9.708  -9.568  0.00  0.00    +0.000 A 
ATOM     15  C   UNL     1       2.229   7.662  -8.659  0.00  0.00    +0.000 A 
ATOM     16  C   UNL     1       2.027   8.914  -9.235  0.00  0.00    +0.000 A 
ENDBRANCH  10  11
ENDBRANCH   1  10
TORSDOF 2
ENDMDL
MODEL 2
REMARK VINA RESULT:    -5.035      7.999      9.531
REMARK INTER + INTRA:          -5.730
REMARK INTER:                  -5.621
REMARK INTRA:                  -0.109
REMARK UNBOUND:                -0.106
REMARK  Name = 1550473
REMARK  2 active torsions:
REMARK  status: ('A' for Active; 'I' for Inactive)
REMARK    1  A    between atoms: N_1  and  C_4
REMARK    2  A    between atoms: C_4  and  C_5
REMARK                            x       y       z     vdW  Elec       q    Type
REMARK                         _______ _______ _______ _____ _____    ______ ____
ROOT
ATOM      1  N   UNL     1       8.551  10.140 -16.557  0.00  0.00    -0.354 N 
ATOM      2  N   UNL     1       6.933  11.385 -17.650  0.00  0.00    -0.372 N 
ATOM      3  N   UNL     1       6.843  11.213 -15.364  0.00  0.00    -0.372 N 
ATOM      4  C   UNL     1       7.452  10.905 -16.514  0.00  0.00    +0.166 C 
ATOM      5  H   UNL     1       8.948   9.918 -17.463  0.00  0.00    +0.163 HD
ATOM      6  H   UNL     1       6.106  11.968 -17.649  0.00  0.00    +0.159 HD
ATOM      7  H   UNL     1       7.358  11.200 -18.551  0.00  0.00    +0.159 HD
ATOM      8  H   UNL     1       7.182  10.876 -14.472  0.00  0.00    +0.159 HD
ATOM      9  H   UNL     1       6.008  11.784 -15.343  0.00  0.00    +0.159 HD
ENDROOT
BRANCH   1  10
ATOM     10  C   UNL     1       9.227   9.611 -15.374  0.00  0.00    +0.151 C 
BRANCH  10  11
ATOM     11  C   UNL     1      10.175   8.523 -15.794  0.00  0.00    -0.028 A 
ATOM     12  C   UNL     1      10.969   8.673 -16.941  0.00  0.00    +0.005 A 
ATOM     13  C   UNL     1      10.289   7.340 -15.047  0.00  0.00    +0.005 A 
ATOM     14  C   UNL     1      11.871   7.675 -17.315  0.00  0.00    +0.000 A 
ATOM     15  C   UNL     1      11.191   6.346 -15.425  0.00  0.00    +0.000 A 
ATOM     16  C   UNL     1      11.983   6.514 -16.557  0.00  0.00    +0.000 A 
ENDBRANCH  10  11
ENDBRANCH   1  10
TORSDOF 2
ENDMDL
MODEL 3
REMARK VINA RESULT:    -5.027      1.590      1.948
REMARK INTER + INTRA:          -5.721
REMARK INTER:                  -5.570
REMARK INTRA:                  -0.152
REMARK UNBOUND:                -0.106
REMARK  Name = 1550473
REMARK  2 active torsions:
REMARK  status: ('A' for Active; 'I' for Inactive)
REMARK    1  A    between atoms: N_1  and  C_4
REMARK    2  A    between atoms: C_4  and  C_5
REMARK                            x       y       z     vdW  Elec       q    Type
REMARK                         _______ _______ _______ _____ _____    ______ ____
ROOT
ATOM      1  N   UNL     1       5.946   7.457  -9.188  0.00  0.00    -0.354 N 
ATOM      2  N   UNL     1       7.085   7.773 -11.180  0.00  0.00    -0.372 N 
ATOM      3  N   UNL     1       7.285   9.351  -9.527  0.00  0.00    -0.372 N 
ATOM      4  C   UNL     1       6.765   8.194  -9.951  0.00  0.00    +0.166 C 
ATOM      5  H   UNL     1       5.562   6.604  -9.579  0.00  0.00    +0.163 HD
ATOM      6  H   UNL     1       7.703   8.306 -11.777  0.00  0.00    +0.159 HD
ATOM      7  H   UNL     1       6.735   6.898 -11.551  0.00  0.00    +0.159 HD
ATOM      8  H   UNL     1       7.078   9.727  -8.611  0.00  0.00    +0.159 HD
ATOM      9  H   UNL     1       7.896   9.904 -10.114  0.00  0.00    +0.159 HD
ENDROOT
BRANCH   1  10
ATOM     10  C   UNL     1       5.579   7.799  -7.816  0.00  0.00    +0.151 C 
BRANCH  10  11
ATOM     11  C   UNL     1       4.105   8.092  -7.760  0.00  0.00    -0.028 A 
ATOM     12  C   UNL     1       3.249   7.634  -8.773  0.00  0.00    +0.005 A 
ATOM     13  C   UNL     1       3.556   8.823  -6.695  0.00  0.00    +0.005 A 
ATOM     14  C   UNL     1       1.876   7.880  -8.707  0.00  0.00    +0.000 A 
ATOM     15  C   UNL     1       2.185   9.067  -6.633  0.00  0.00    +0.000 A 
ATOM     16  C   UNL     1       1.344   8.593  -7.638  0.00  0.00    +0.000 A 
ENDBRANCH  10  11
ENDBRANCH   1  10
TORSDOF 2
ENDMDL
MODEL 4
REMARK VINA RESULT:    -4.728     10.725     11.829
REMARK INTER + INTRA:          -5.387
REMARK INTER:                  -5.296
REMARK INTRA:                  -0.091
REMARK UNBOUND:                -0.106
REMARK  Name = 1550473
REMARK  2 active torsions:
REMARK  status: ('A' for Active; 'I' for Inactive)
REMARK    1  A    between atoms: N_1  and  C_4
REMARK    2  A    between atoms: C_4  and  C_5
REMARK                            x       y       z     vdW  Elec       q    Type
REMARK                         _______ _______ _______ _____ _____    ______ ____
ROOT
ATOM      1  N   UNL     1       9.740   2.596  -0.885  0.00  0.00    -0.354 N 
ATOM      2  N   UNL     1      10.941   2.345  -2.849  0.00  0.00    -0.372 N 
ATOM      3  N   UNL     1      11.581   3.967  -1.357  0.00  0.00    -0.372 N 
ATOM      4  C   UNL     1      10.747   2.973  -1.683  0.00  0.00    +0.166 C 
ATOM      5  H   UNL     1       9.125   1.856  -1.203  0.00  0.00    +0.163 HD
ATOM      6  H   UNL     1      11.695   2.606  -3.470  0.00  0.00    +0.159 HD
ATOM      7  H   UNL     1      10.352   1.576  -3.144  0.00  0.00    +0.159 HD
ATOM      8  H   UNL     1      11.485   4.484  -0.493  0.00  0.00    +0.159 HD
ATOM      9  H   UNL     1      12.335   4.250  -1.971  0.00  0.00    +0.159 HD
ENDROOT
BRANCH   1  10
ATOM     10  C   UNL     1       9.476   3.179   0.430  0.00  0.00    +0.151 C 
BRANCH  10  11
ATOM     11  C   UNL     1       8.321   2.455   1.065  0.00  0.00    -0.028 A 
ATOM     12  C   UNL     1       7.001   2.859   0.811  0.00  0.00    +0.005 A 
ATOM     13  C   UNL     1       8.538   1.361   1.917  0.00  0.00    +0.005 A 
ATOM     14  C   UNL     1       5.927   2.168   1.377  0.00  0.00    +0.000 A 
ATOM     15  C   UNL     1       7.463   0.675   2.480  0.00  0.00    +0.000 A 
ATOM     16  C   UNL     1       6.158   1.077   2.209  0.00  0.00    +0.000 A 
ENDBRANCH  10  11
ENDBRANCH   1  10
TORSDOF 2
ENDMDL
MODEL 5
REMARK VINA RESULT:    -4.615      4.061      5.447
REMARK INTER + INTRA:          -5.260
REMARK INTER:                  -5.167
REMARK INTRA:                  -0.094
REMARK UNBOUND:                -0.106
REMARK  Name = 1550473
REMARK  2 active torsions:
REMARK  status: ('A' for Active; 'I' for Inactive)
REMARK    1  A    between atoms: N_1  and  C_4
REMARK    2  A    between atoms: C_4  and  C_5
REMARK                            x       y       z     vdW  Elec       q    Type
REMARK                         _______ _______ _______ _____ _____    ______ ____
ROOT
ATOM      1  N   UNL     1       2.117  11.328 -10.916  0.00  0.00    -0.354 N 
ATOM      2  N   UNL     1       1.605  12.452 -12.875  0.00  0.00    -0.372 N 
ATOM      3  N   UNL     1       2.264  13.663 -11.041  0.00  0.00    -0.372 N 
ATOM      4  C   UNL     1       1.999  12.476 -11.596  0.00  0.00    +0.166 C 
ATOM      5  H   UNL     1       1.872  10.463 -11.385  0.00  0.00    +0.163 HD
ATOM      6  H   UNL     1       1.511  13.302 -13.415  0.00  0.00    +0.159 HD
ATOM      7  H   UNL     1       1.406  11.583 -13.355  0.00  0.00    +0.159 HD
ATOM      8  H   UNL     1       2.560  13.750 -10.078  0.00  0.00    +0.159 HD
ATOM      9  H   UNL     1       2.164  14.526 -11.561  0.00  0.00    +0.159 HD
ENDROOT
BRANCH   1  10
ATOM     10  C   UNL     1       2.590  11.240  -9.536  0.00  0.00    +0.151 C 
BRANCH  10  11
ATOM     11  C   UNL     1       2.937   9.810  -9.225  0.00  0.00    -0.028 A 
ATOM     12  C   UNL     1       4.275   9.420  -9.070  0.00  0.00    +0.005 A 
ATOM     13  C   UNL     1       1.932   8.841  -9.080  0.00  0.00    +0.005 A 
ATOM     14  C   UNL     1       4.597   8.098  -8.753  0.00  0.00    +0.000 A 
ATOM     15  C   UNL     1       2.257   7.522  -8.763  0.00  0.00    +0.000 A 
ATOM     16  C   UNL     1       3.590   7.152  -8.597  0.00  0.00    +0.000 A 
ENDBRANCH  10  11
ENDBRANCH   1  10
TORSDOF 2
ENDMDL
MODEL 6
REMARK VINA RESULT:    -4.585      1.764      2.151
REMARK INTER + INTRA:          -5.228
REMARK INTER:                  -5.095
REMARK INTRA:                  -0.133
REMARK UNBOUND:                -0.106
REMARK  Name = 1550473
REMARK  2 active torsions:
REMARK  status: ('A' for Active; 'I' for Inactive)
REMARK    1  A    between atoms: N_1  and  C_4
REMARK    2  A    between atoms: C_4  and  C_5
REMARK                            x       y       z     vdW  Elec       q    Type
REMARK                         _______ _______ _______ _____ _____    ______ ____
ROOT
ATOM      1  N   UNL     1       6.089  10.097 -10.390  0.00  0.00    -0.354 N 
ATOM      2  N   UNL     1       6.683   9.870 -12.617  0.00  0.00    -0.372 N 
ATOM      3  N   UNL     1       6.845   8.046 -11.234  0.00  0.00    -0.372 N 
ATOM      4  C   UNL     1       6.536   9.337 -11.398  0.00  0.00    +0.166 C 
ATOM      5  H   UNL     1       5.901  11.077 -10.573  0.00  0.00    +0.163 HD
ATOM      6  H   UNL     1       7.014   9.319 -13.398  0.00  0.00    +0.159 HD
ATOM      7  H   UNL     1       6.450  10.837 -12.808  0.00  0.00    +0.159 HD
ATOM      8  H   UNL     1       6.762   7.585 -10.338  0.00  0.00    +0.159 HD
ATOM      9  H   UNL     1       7.189   7.482 -12.001  0.00  0.00    +0.159 HD
ENDROOT
BRANCH   1  10
ATOM     10  C   UNL     1       5.843   9.601  -9.038  0.00  0.00    +0.151 C 
BRANCH  10  11
ATOM     11  C   UNL     1       4.461   9.011  -8.975  0.00  0.00    -0.028 A 
ATOM     12  C   UNL     1       3.349   9.757  -9.391  0.00  0.00    +0.005 A 
ATOM     13  C   UNL     1       4.258   7.704  -8.506  0.00  0.00    +0.005 A 
ATOM     14  C   UNL     1       2.068   9.199  -9.362  0.00  0.00    +0.000 A 
ATOM     15  C   UNL     1       2.977   7.151  -8.477  0.00  0.00    +0.000 A 
ATOM     16  C   UNL     1       1.884   7.897  -8.907  0.00  0.00    +0.000 A 
ENDBRANCH  10  11
ENDBRANCH   1  10
TORSDOF 2
ENDMDL
MODEL 7
REMARK VINA RESULT:    -4.520      2.538      5.094
REMARK INTER + INTRA:          -5.155
REMARK INTER:                  -5.035
REMARK INTRA:                  -0.120
REMARK UNBOUND:                -0.106
REMARK  Name = 1550473
REMARK  2 active torsions:
REMARK  status: ('A' for Active; 'I' for Inactive)
REMARK    1  A    between atoms: N_1  and  C_4
REMARK    2  A    between atoms: C_4  and  C_5
REMARK                            x       y       z     vdW  Elec       q    Type
REMARK                         _______ _______ _______ _____ _____    ______ ____
ROOT
ATOM      1  N   UNL     1       4.364   7.976  -8.826  0.00  0.00    -0.354 N 
ATOM      2  N   UNL     1       2.057   7.863  -8.990  0.00  0.00    -0.372 N 
ATOM      3  N   UNL     1       3.066   7.161  -7.053  0.00  0.00    -0.372 N 
ATOM      4  C   UNL     1       3.178   7.666  -8.286  0.00  0.00    +0.166 C 
ATOM      5  H   UNL     1       4.383   8.327  -9.776  0.00  0.00    +0.163 HD
ATOM      6  H   UNL     1       1.147   7.641  -8.608  0.00  0.00    +0.159 HD
ATOM      7  H   UNL     1       2.075   8.257  -9.923  0.00  0.00    +0.159 HD
ATOM      8  H   UNL     1       3.875   6.984  -6.472  0.00  0.00    +0.159 HD
ATOM      9  H   UNL     1       2.165   6.923  -6.657  0.00  0.00    +0.159 HD
ENDROOT
BRANCH   1  10
ATOM     10  C   UNL     1       5.640   7.851  -8.123  0.00  0.00    +0.151 C 
BRANCH  10  11
ATOM     11  C   UNL     1       6.751   7.765  -9.133  0.00  0.00    -0.028 A 
ATOM     12  C   UNL     1       7.962   7.138  -8.808  0.00  0.00    +0.005 A 
ATOM     13  C   UNL     1       6.596   8.304 -10.420  0.00  0.00    +0.005 A 
ATOM     14  C   UNL     1       8.983   7.032  -9.755  0.00  0.00    +0.000 A 
ATOM     15  C   UNL     1       7.618   8.197 -11.363  0.00  0.00    +0.000 A 
ATOM     16  C   UNL     1       8.810   7.558 -11.031  0.00  0.00    +0.000 A 
ENDBRANCH  10  11
ENDBRANCH   1  10
TORSDOF 2
ENDMDL
MODEL 8
REMARK VINA RESULT:    -4.516     19.060     20.621
REMARK INTER + INTRA:          -5.151
REMARK INTER:                  -5.023
REMARK INTRA:                  -0.128
REMARK UNBOUND:                -0.106
REMARK  Name = 1550473
REMARK  2 active torsions:
REMARK  status: ('A' for Active; 'I' for Inactive)
REMARK    1  A    between atoms: N_1  and  C_4
REMARK    2  A    between atoms: C_4  and  C_5
REMARK                            x       y       z     vdW  Elec       q    Type
REMARK                         _______ _______ _______ _____ _____    ______ ____
ROOT
ATOM      1  N   UNL     1     -12.493   0.780 -19.043  0.00  0.00    -0.354 N 
ATOM      2  N   UNL     1     -12.413  -0.491 -20.978  0.00  0.00    -0.372 N 
ATOM      3  N   UNL     1     -14.001  -0.980 -19.395  0.00  0.00    -0.372 N 
ATOM      4  C   UNL     1     -12.972  -0.223 -19.792  0.00  0.00    +0.166 C 
ATOM      5  H   UNL     1     -11.692   1.296 -19.387  0.00  0.00    +0.163 HD
ATOM      6  H   UNL     1     -12.755  -1.239 -21.566  0.00  0.00    +0.159 HD
ATOM      7  H   UNL     1     -11.641   0.056 -21.339  0.00  0.00    +0.159 HD
ATOM      8  H   UNL     1     -14.463  -0.833 -18.508  0.00  0.00    +0.159 HD
ATOM      9  H   UNL     1     -14.350  -1.741 -19.965  0.00  0.00    +0.159 HD
ENDROOT
BRANCH   1  10
ATOM     10  C   UNL     1     -13.064   1.188 -17.761  0.00  0.00    +0.151 C 
BRANCH  10  11
ATOM     11  C   UNL     1     -11.989   1.825 -16.925  0.00  0.00    -0.028 A 
ATOM     12  C   UNL     1     -12.323   2.708 -15.888  0.00  0.00    +0.005 A 
ATOM     13  C   UNL     1     -10.634   1.546 -17.162  0.00  0.00    +0.005 A 
ATOM     14  C   UNL     1     -11.326   3.277 -15.092  0.00  0.00    +0.000 A 
ATOM     15  C   UNL     1      -9.642   2.117 -16.365  0.00  0.00    +0.000 A 
ATOM     16  C   UNL     1      -9.988   2.981 -15.329  0.00  0.00    +0.000 A 
ENDBRANCH  10  11
ENDBRANCH   1  10
TORSDOF 2
ENDMDL
MODEL 9
REMARK VINA RESULT:    -4.467      4.775      6.327
REMARK INTER + INTRA:          -5.096
REMARK INTER:                  -4.938
REMARK INTRA:                  -0.158
REMARK UNBOUND:                -0.106
REMARK  Name = 1550473
REMARK  2 active torsions:
REMARK  status: ('A' for Active; 'I' for Inactive)
REMARK    1  A    between atoms: N_1  and  C_4
REMARK    2  A    between atoms: C_4  and  C_5
REMARK                            x       y       z     vdW  Elec       q    Type
REMARK                         _______ _______ _______ _____ _____    ______ ____
ROOT
ATOM      1  N   UNL     1       1.584  11.263  -6.559  0.00  0.00    -0.354 N 
ATOM      2  N   UNL     1       0.278  12.933  -7.490  0.00  0.00    -0.372 N 
ATOM      3  N   UNL     1      -0.744  11.039  -6.696  0.00  0.00    -0.372 N 
ATOM      4  C   UNL     1       0.379  11.732  -6.909  0.00  0.00    +0.166 C 
ATOM      5  H   UNL     1       2.401  11.824  -6.775  0.00  0.00    +0.163 HD
ATOM      6  H   UNL     1      -0.618  13.315  -7.762  0.00  0.00    +0.159 HD
ATOM      7  H   UNL     1       1.091  13.512  -7.663  0.00  0.00    +0.159 HD
ATOM      8  H   UNL     1      -0.736  10.123  -6.267  0.00  0.00    +0.159 HD
ATOM      9  H   UNL     1      -1.649  11.399  -6.972  0.00  0.00    +0.159 HD
ENDROOT
BRANCH   1  10
ATOM     10  C   UNL     1       1.799   9.990  -5.872  0.00  0.00    +0.151 C 
BRANCH  10  11
ATOM     11  C   UNL     1       2.438   9.019  -6.825  0.00  0.00    -0.028 A 
ATOM     12  C   UNL     1       1.691   8.441  -7.861  0.00  0.00    +0.005 A 
ATOM     13  C   UNL     1       3.794   8.677  -6.700  0.00  0.00    +0.005 A 
ATOM     14  C   UNL     1       2.292   7.562  -8.765  0.00  0.00    +0.000 A 
ATOM     15  C   UNL     1       4.390   7.798  -7.604  0.00  0.00    +0.000 A 
ATOM     16  C   UNL     1       3.640   7.242  -8.638  0.00  0.00    +0.000 A 
ENDBRANCH  10  11
ENDBRANCH   1  10
TORSDOF 2
ENDMDL
