MODEL 1
REMARK VINA RESULT:    -6.483      0.000      0.000
REMARK INTER + INTRA:          -7.367
REMARK INTER:                  -7.242
REMARK INTRA:                  -0.125
REMARK UNBOUND:                -0.125
REMARK  Name = 1550473
REMARK  2 active torsions:
REMARK  status: ('A' for Active; 'I' for Inactive)
REMARK    1  A    between atoms: N_1  and  C_4
REMARK    2  A    between atoms: C_4  and  C_5
REMARK                            x       y       z     vdW  Elec       q    Type
REMARK                         _______ _______ _______ _____ _____    ______ ____
ROOT
ATOM      1  N   UNL     1       0.743   1.344  -1.237  0.00  0.00    -0.354 N 
ATOM      2  N   UNL     1       1.387   1.778  -3.419  0.00  0.00    -0.372 N 
ATOM      3  N   UNL     1      -0.525   2.756  -2.611  0.00  0.00    -0.372 N 
ATOM      4  C   UNL     1       0.528   1.958  -2.408  0.00  0.00    +0.166 C 
ATOM      5  H   UNL     1       1.544   0.728  -1.156  0.00  0.00    +0.163 HD
ATOM      6  H   UNL     1       1.253   2.231  -4.313  0.00  0.00    +0.159 HD
ATOM      7  H   UNL     1       2.211   1.198  -3.321  0.00  0.00    +0.159 HD
ATOM      8  H   UNL     1      -1.214   2.928  -1.891  0.00  0.00    +0.159 HD
ATOM      9  H   UNL     1      -0.683   3.209  -3.503  0.00  0.00    +0.159 HD
ENDROOT
BRANCH   1  10
ATOM     10  C   UNL     1      -0.102   1.516  -0.056  0.00  0.00    +0.151 C 
BRANCH  10  11
ATOM     11  C   UNL     1      -0.142   0.223   0.711  0.00  0.00    -0.028 A 
ATOM     12  C   UNL     1       0.050   0.215   2.101  0.00  0.00    +0.005 A 
ATOM     13  C   UNL     1      -0.376  -0.995   0.056  0.00  0.00    +0.005 A 
ATOM     14  C   UNL     1      -0.017  -0.982   2.819  0.00  0.00    +0.000 A 
ATOM     15  C   UNL     1      -0.441  -2.188   0.776  0.00  0.00    +0.000 A 
ATOM     16  C   UNL     1      -0.264  -2.181   2.158  0.00  0.00    +0.000 A 
ENDBRANCH  10  11
ENDBRANCH   1  10
TORSDOF 2
ENDMDL
MODEL 2
REMARK VINA RESULT:    -6.088     18.777     20.097
REMARK INTER + INTRA:          -6.925
REMARK INTER:                  -6.883
REMARK INTRA:                  -0.042
REMARK UNBOUND:                -0.125
REMARK  Name = 1550473
REMARK  2 active torsions:
REMARK  status: ('A' for Active; 'I' for Inactive)
REMARK    1  A    between atoms: N_1  and  C_4
REMARK    2  A    between atoms: C_4  and  C_5
REMARK                            x       y       z     vdW  Elec       q    Type
REMARK                         _______ _______ _______ _____ _____    ______ ____
ROOT
ATOM      1  N   UNL     1       3.311   4.069 -19.918  0.00  0.00    -0.354 N 
ATOM      2  N   UNL     1       5.493   4.799 -19.655  0.00  0.00    -0.372 N 
ATOM      3  N   UNL     1       4.132   4.686 -17.811  0.00  0.00    -0.372 N 
ATOM      4  C   UNL     1       4.297   4.514 -19.127  0.00  0.00    +0.166 C 
ATOM      5  H   UNL     1       3.490   3.989 -20.912  0.00  0.00    +0.163 HD
ATOM      6  H   UNL     1       6.257   5.133 -19.083  0.00  0.00    +0.159 HD
ATOM      7  H   UNL     1       5.684   4.674 -20.642  0.00  0.00    +0.159 HD
ATOM      8  H   UNL     1       3.252   4.494 -17.352  0.00  0.00    +0.159 HD
ATOM      9  H   UNL     1       4.882   5.030 -17.224  0.00  0.00    +0.159 HD
ENDROOT
BRANCH   1  10
ATOM     10  C   UNL     1       1.988   3.679 -19.434  0.00  0.00    +0.151 C 
BRANCH  10  11
ATOM     11  C   UNL     1       1.160   4.916 -19.217  0.00  0.00    -0.028 A 
ATOM     12  C   UNL     1       1.110   5.920 -20.195  0.00  0.00    +0.005 A 
ATOM     13  C   UNL     1       0.418   5.087 -18.038  0.00  0.00    +0.005 A 
ATOM     14  C   UNL     1       0.317   7.055 -20.007  0.00  0.00    +0.000 A 
ATOM     15  C   UNL     1      -0.371   6.222 -17.854  0.00  0.00    +0.000 A 
ATOM     16  C   UNL     1      -0.423   7.204 -18.839  0.00  0.00    +0.000 A 
ENDBRANCH  10  11
ENDBRANCH   1  10
TORSDOF 2
ENDMDL
MODEL 3
REMARK VINA RESULT:    -5.925     19.292     20.701
REMARK INTER + INTRA:          -6.743
REMARK INTER:                  -6.592
REMARK INTRA:                  -0.152
REMARK UNBOUND:                -0.125
REMARK  Name = 1550473
REMARK  2 active torsions:
REMARK  status: ('A' for Active; 'I' for Inactive)
REMARK    1  A    between atoms: N_1  and  C_4
REMARK    2  A    between atoms: C_4  and  C_5
REMARK                            x       y       z     vdW  Elec       q    Type
REMARK                         _______ _______ _______ _____ _____    ______ ____
ROOT
ATOM      1  N   UNL     1       1.872   3.148 -20.560  0.00  0.00    -0.354 N 
ATOM      2  N   UNL     1       2.248   2.167 -22.624  0.00  0.00    -0.372 N 
ATOM      3  N   UNL     1       3.908   3.442 -21.684  0.00  0.00    -0.372 N 
ATOM      4  C   UNL     1       2.676   2.927 -21.609  0.00  0.00    +0.166 C 
ATOM      5  H   UNL     1       0.939   2.754 -20.578  0.00  0.00    +0.163 HD
ATOM      6  H   UNL     1       2.833   1.980 -23.428  0.00  0.00    +0.159 HD
ATOM      7  H   UNL     1       1.331   1.737 -22.618  0.00  0.00    +0.159 HD
ATOM      8  H   UNL     1       4.288   4.028 -20.953  0.00  0.00    +0.159 HD
ATOM      9  H   UNL     1       4.504   3.276 -22.485  0.00  0.00    +0.159 HD
ENDROOT
BRANCH   1  10
ATOM     10  C   UNL     1       2.262   3.915 -19.379  0.00  0.00    +0.151 C 
BRANCH  10  11
ATOM     11  C   UNL     1       1.276   5.032 -19.171  0.00  0.00    -0.028 A 
ATOM     12  C   UNL     1       0.500   5.089 -18.005  0.00  0.00    +0.005 A 
ATOM     13  C   UNL     1       1.118   6.039 -20.136  0.00  0.00    +0.005 A 
ATOM     14  C   UNL     1      -0.394   6.142 -17.798  0.00  0.00    +0.000 A 
ATOM     15  C   UNL     1       0.223   7.089 -19.926  0.00  0.00    +0.000 A 
ATOM     16  C   UNL     1      -0.531   7.141 -18.756  0.00  0.00    +0.000 A 
ENDBRANCH  10  11
ENDBRANCH   1  10
TORSDOF 2
ENDMDL
MODEL 4
REMARK VINA RESULT:    -5.424      8.970     10.019
REMARK INTER + INTRA:          -6.183
REMARK INTER:                  -6.081
REMARK INTRA:                  -0.102
REMARK UNBOUND:                -0.125
REMARK  Name = 1550473
REMARK  2 active torsions:
REMARK  status: ('A' for Active; 'I' for Inactive)
REMARK    1  A    between atoms: N_1  and  C_4
REMARK    2  A    between atoms: C_4  and  C_5
REMARK                            x       y       z     vdW  Elec       q    Type
REMARK                         _______ _______ _______ _____ _____    ______ ____
ROOT
ATOM      1  N   UNL     1       5.324   6.430   4.748  0.00  0.00    -0.354 N 
ATOM      2  N   UNL     1       7.461   5.979   5.518  0.00  0.00    -0.372 N 
ATOM      3  N   UNL     1       5.703   4.764   6.353  0.00  0.00    -0.372 N 
ATOM      4  C   UNL     1       6.147   5.726   5.536  0.00  0.00    +0.166 C 
ATOM      5  H   UNL     1       5.720   7.166   4.174  0.00  0.00    +0.163 HD
ATOM      6  H   UNL     1       8.107   5.461   6.099  0.00  0.00    +0.159 HD
ATOM      7  H   UNL     1       7.860   6.684   4.910  0.00  0.00    +0.159 HD
ATOM      8  H   UNL     1       4.721   4.529   6.418  0.00  0.00    +0.159 HD
ATOM      9  H   UNL     1       6.332   4.243   6.950  0.00  0.00    +0.159 HD
ENDROOT
BRANCH   1  10
ATOM     10  C   UNL     1       3.884   6.196   4.653  0.00  0.00    +0.151 C 
BRANCH  10  11
ATOM     11  C   UNL     1       3.292   7.174   3.676  0.00  0.00    -0.028 A 
ATOM     12  C   UNL     1       3.776   7.249   2.362  0.00  0.00    +0.005 A 
ATOM     13  C   UNL     1       2.241   8.023   4.056  0.00  0.00    +0.005 A 
ATOM     14  C   UNL     1       3.206   8.135   1.445  0.00  0.00    +0.000 A 
ATOM     15  C   UNL     1       1.675   8.907   3.138  0.00  0.00    +0.000 A 
ATOM     16  C   UNL     1       2.156   8.961   1.832  0.00  0.00    +0.000 A 
ENDBRANCH  10  11
ENDBRANCH   1  10
TORSDOF 2
ENDMDL
MODEL 5
REMARK VINA RESULT:    -5.204     21.308     22.455
REMARK INTER + INTRA:          -5.937
REMARK INTER:                  -5.799
REMARK INTRA:                  -0.138
REMARK UNBOUND:                -0.125
REMARK  Name = 1550473
REMARK  2 active torsions:
REMARK  status: ('A' for Active; 'I' for Inactive)
REMARK    1  A    between atoms: N_1  and  C_4
REMARK    2  A    between atoms: C_4  and  C_5
REMARK                            x       y       z     vdW  Elec       q    Type
REMARK                         _______ _______ _______ _____ _____    ______ ____
ROOT
ATOM      1  N   UNL     1      -4.898   3.336  21.356  0.00  0.00    -0.354 N 
ATOM      2  N   UNL     1      -6.905   4.476  21.543  0.00  0.00    -0.372 N 
ATOM      3  N   UNL     1      -6.435   3.373  19.587  0.00  0.00    -0.372 N 
ATOM      4  C   UNL     1      -6.066   3.720  20.825  0.00  0.00    +0.166 C 
ATOM      5  H   UNL     1      -4.663   3.657  22.288  0.00  0.00    +0.163 HD
ATOM      6  H   UNL     1      -7.795   4.778  21.171  0.00  0.00    +0.159 HD
ATOM      7  H   UNL     1      -6.688   4.758  22.492  0.00  0.00    +0.159 HD
ATOM      8  H   UNL     1      -5.845   2.808  18.991  0.00  0.00    +0.159 HD
ATOM      9  H   UNL     1      -7.317   3.675  19.192  0.00  0.00    +0.159 HD
ENDROOT
BRANCH   1  10
ATOM     10  C   UNL     1      -3.937   2.467  20.677  0.00  0.00    +0.151 C 
BRANCH  10  11
ATOM     11  C   UNL     1      -3.423   1.445  21.653  0.00  0.00    -0.028 A 
ATOM     12  C   UNL     1      -3.762   1.526  23.012  0.00  0.00    +0.005 A 
ATOM     13  C   UNL     1      -2.602   0.391  21.225  0.00  0.00    +0.005 A 
ATOM     14  C   UNL     1      -3.309   0.560  23.914  0.00  0.00    +0.000 A 
ATOM     15  C   UNL     1      -2.152  -0.571  22.129  0.00  0.00    +0.000 A 
ATOM     16  C   UNL     1      -2.508  -0.487  23.473  0.00  0.00    +0.000 A 
ENDBRANCH  10  11
ENDBRANCH   1  10
TORSDOF 2
ENDMDL
MODEL 6
REMARK VINA RESULT:    -5.200     10.020     10.667
REMARK INTER + INTRA:          -5.933
REMARK INTER:                  -5.795
REMARK INTRA:                  -0.138
REMARK UNBOUND:                -0.125
REMARK  Name = 1550473
REMARK  2 active torsions:
REMARK  status: ('A' for Active; 'I' for Inactive)
REMARK    1  A    between atoms: N_1  and  C_4
REMARK    2  A    between atoms: C_4  and  C_5
REMARK                            x       y       z     vdW  Elec       q    Type
REMARK                         _______ _______ _______ _____ _____    ______ ____
ROOT
ATOM      1  N   UNL     1       5.467   9.105   4.477  0.00  0.00    -0.354 N 
ATOM      2  N   UNL     1       4.192  10.400   5.913  0.00  0.00    -0.372 N 
ATOM      3  N   UNL     1       3.152   9.314   4.180  0.00  0.00    -0.372 N 
ATOM      4  C   UNL     1       4.277   9.597   4.845  0.00  0.00    +0.166 C 
ATOM      5  H   UNL     1       6.287   9.382   5.006  0.00  0.00    +0.163 HD
ATOM      6  H   UNL     1       3.307  10.783   6.217  0.00  0.00    +0.159 HD
ATOM      7  H   UNL     1       5.006  10.638   6.467  0.00  0.00    +0.159 HD
ATOM      8  H   UNL     1       3.149   8.719   3.362  0.00  0.00    +0.159 HD
ATOM      9  H   UNL     1       2.259   9.698   4.461  0.00  0.00    +0.159 HD
ENDROOT
BRANCH   1  10
ATOM     10  C   UNL     1       5.660   8.179   3.362  0.00  0.00    +0.151 C 
BRANCH  10  11
ATOM     11  C   UNL     1       6.318   6.927   3.872  0.00  0.00    -0.028 A 
ATOM     12  C   UNL     1       7.423   6.380   3.202  0.00  0.00    +0.005 A 
ATOM     13  C   UNL     1       5.845   6.285   5.027  0.00  0.00    +0.005 A 
ATOM     14  C   UNL     1       8.053   5.234   3.692  0.00  0.00    +0.000 A 
ATOM     15  C   UNL     1       6.477   5.140   5.512  0.00  0.00    +0.000 A 
ATOM     16  C   UNL     1       7.582   4.616   4.846  0.00  0.00    +0.000 A 
ENDBRANCH  10  11
ENDBRANCH   1  10
TORSDOF 2
ENDMDL
MODEL 7
REMARK VINA RESULT:    -5.157     23.097     24.141
REMARK INTER + INTRA:          -5.885
REMARK INTER:                  -5.751
REMARK INTRA:                  -0.135
REMARK UNBOUND:                -0.125
REMARK  Name = 1550473
REMARK  2 active torsions:
REMARK  status: ('A' for Active; 'I' for Inactive)
REMARK    1  A    between atoms: N_1  and  C_4
REMARK    2  A    between atoms: C_4  and  C_5
REMARK                            x       y       z     vdW  Elec       q    Type
REMARK                         _______ _______ _______ _____ _____    ______ ____
ROOT
ATOM      1  N   UNL     1      -2.084 -19.227 -11.692  0.00  0.00    -0.354 N 
ATOM      2  N   UNL     1      -1.109 -18.101 -13.465  0.00  0.00    -0.372 N 
ATOM      3  N   UNL     1      -0.039 -19.933 -12.592  0.00  0.00    -0.372 N 
ATOM      4  C   UNL     1      -1.082 -19.096 -12.571  0.00  0.00    +0.166 C 
ATOM      5  H   UNL     1      -2.831 -18.542 -11.708  0.00  0.00    +0.163 HD
ATOM      6  H   UNL     1      -0.368 -17.979 -14.143  0.00  0.00    +0.159 HD
ATOM      7  H   UNL     1      -1.879 -17.444 -13.509  0.00  0.00    +0.159 HD
ATOM      8  H   UNL     1       0.044 -20.701 -11.940  0.00  0.00    +0.159 HD
ATOM      9  H   UNL     1       0.718 -19.820 -13.255  0.00  0.00    +0.159 HD
ENDROOT
BRANCH   1  10
ATOM     10  C   UNL     1      -2.177 -20.308 -10.712  0.00  0.00    +0.151 C 
BRANCH  10  11
ATOM     11  C   UNL     1      -3.525 -20.963 -10.830  0.00  0.00    -0.028 A 
ATOM     12  C   UNL     1      -4.660 -20.204 -11.153  0.00  0.00    +0.005 A 
ATOM     13  C   UNL     1      -3.674 -22.343 -10.625  0.00  0.00    +0.005 A 
ATOM     14  C   UNL     1      -5.907 -20.817 -11.292  0.00  0.00    +0.000 A 
ATOM     15  C   UNL     1      -4.922 -22.951 -10.763  0.00  0.00    +0.000 A 
ATOM     16  C   UNL     1      -6.038 -22.188 -11.099  0.00  0.00    +0.000 A 
ENDBRANCH  10  11
ENDBRANCH   1  10
TORSDOF 2
ENDMDL
MODEL 8
REMARK VINA RESULT:    -5.138     21.608     22.869
REMARK INTER + INTRA:          -5.863
REMARK INTER:                  -5.722
REMARK INTRA:                  -0.141
REMARK UNBOUND:                -0.125
REMARK  Name = 1550473
REMARK  2 active torsions:
REMARK  status: ('A' for Active; 'I' for Inactive)
REMARK    1  A    between atoms: N_1  and  C_4
REMARK    2  A    between atoms: C_4  and  C_5
REMARK                            x       y       z     vdW  Elec       q    Type
REMARK                         _______ _______ _______ _____ _____    ______ ____
ROOT
ATOM      1  N   UNL     1      -5.884   3.747  22.237  0.00  0.00    -0.354 N 
ATOM      2  N   UNL     1      -7.732   4.176  23.565  0.00  0.00    -0.372 N 
ATOM      3  N   UNL     1      -8.055   3.630  21.360  0.00  0.00    -0.372 N 
ATOM      4  C   UNL     1      -7.213   3.848  22.376  0.00  0.00    +0.166 C 
ATOM      5  H   UNL     1      -5.299   3.954  23.038  0.00  0.00    +0.163 HD
ATOM      6  H   UNL     1      -8.731   4.256  23.702  0.00  0.00    +0.159 HD
ATOM      7  H   UNL     1      -7.147   4.338  24.376  0.00  0.00    +0.159 HD
ATOM      8  H   UNL     1      -7.726   3.384  20.436  0.00  0.00    +0.159 HD
ATOM      9  H   UNL     1      -9.057   3.716  21.474  0.00  0.00    +0.159 HD
ENDROOT
BRANCH   1  10
ATOM     10  C   UNL     1      -5.221   3.343  20.998  0.00  0.00    +0.151 C 
BRANCH  10  11
ATOM     11  C   UNL     1      -4.194   2.291  21.312  0.00  0.00    -0.028 A 
ATOM     12  C   UNL     1      -3.502   1.640  20.279  0.00  0.00    +0.005 A 
ATOM     13  C   UNL     1      -3.903   1.943  22.640  0.00  0.00    +0.005 A 
ATOM     14  C   UNL     1      -2.527   0.684  20.571  0.00  0.00    +0.000 A 
ATOM     15  C   UNL     1      -2.929   0.987  22.927  0.00  0.00    +0.000 A 
ATOM     16  C   UNL     1      -2.239   0.360  21.893  0.00  0.00    +0.000 A 
ENDBRANCH  10  11
ENDBRANCH   1  10
TORSDOF 2
ENDMDL
MODEL 9
REMARK VINA RESULT:    -5.060      7.885      9.302
REMARK INTER + INTRA:          -5.777
REMARK INTER:                  -5.655
REMARK INTRA:                  -0.122
REMARK UNBOUND:                -0.125
REMARK  Name = 1550473
REMARK  2 active torsions:
REMARK  status: ('A' for Active; 'I' for Inactive)
REMARK    1  A    between atoms: N_1  and  C_4
REMARK    2  A    between atoms: C_4  and  C_5
REMARK                            x       y       z     vdW  Elec       q    Type
REMARK                         _______ _______ _______ _____ _____    ______ ____
ROOT
ATOM      1  N   UNL     1       5.181   5.925   4.490  0.00  0.00    -0.354 N 
ATOM      2  N   UNL     1       5.807   4.737   6.377  0.00  0.00    -0.372 N 
ATOM      3  N   UNL     1       7.373   6.035   5.313  0.00  0.00    -0.372 N 
ATOM      4  C   UNL     1       6.119   5.574   5.380  0.00  0.00    +0.166 C 
ATOM      5  H   UNL     1       4.257   5.518   4.578  0.00  0.00    +0.163 HD
ATOM      6  H   UNL     1       6.493   4.458   7.066  0.00  0.00    +0.159 HD
ATOM      7  H   UNL     1       4.871   4.368   6.490  0.00  0.00    +0.159 HD
ATOM      8  H   UNL     1       7.673   6.665   4.581  0.00  0.00    +0.159 HD
ATOM      9  H   UNL     1       8.076   5.757   5.986  0.00  0.00    +0.159 HD
ENDROOT
BRANCH   1  10
ATOM     10  C   UNL     1       5.403   6.872   3.398  0.00  0.00    +0.151 C 
BRANCH  10  11
ATOM     11  C   UNL     1       5.201   6.165   2.086  0.00  0.00    -0.028 A 
ATOM     12  C   UNL     1       5.095   6.895   0.893  0.00  0.00    +0.005 A 
ATOM     13  C   UNL     1       5.120   4.765   2.028  0.00  0.00    +0.005 A 
ATOM     14  C   UNL     1       4.937   6.238  -0.329  0.00  0.00    +0.000 A 
ATOM     15  C   UNL     1       4.961   4.113   0.806  0.00  0.00    +0.000 A 
ATOM     16  C   UNL     1       4.872   4.850  -0.373  0.00  0.00    +0.000 A 
ENDBRANCH  10  11
ENDBRANCH   1  10
TORSDOF 2
ENDMDL
