MODEL 1
REMARK VINA RESULT:    -4.659      0.000      0.000
REMARK INTER + INTRA:          -5.351
REMARK INTER:                  -5.203
REMARK INTRA:                  -0.148
REMARK UNBOUND:                -0.148
REMARK  Name = 1550473
REMARK  2 active torsions:
REMARK  status: ('A' for Active; 'I' for Inactive)
REMARK    1  A    between atoms: N_1  and  C_4
REMARK    2  A    between atoms: C_4  and  C_5
REMARK                            x       y       z     vdW  Elec       q    Type
REMARK                         _______ _______ _______ _____ _____    ______ ____
ROOT
ATOM      1  N   UNL     1      -2.137   2.150   0.282  0.00  0.00    -0.354 N 
ATOM      2  N   UNL     1      -2.928   4.036  -0.806  0.00  0.00    -0.372 N 
ATOM      3  N   UNL     1      -2.005   4.265   1.283  0.00  0.00    -0.372 N 
ATOM      4  C   UNL     1      -2.350   3.473   0.263  0.00  0.00    +0.166 C 
ATOM      5  H   UNL     1      -2.449   1.600  -0.510  0.00  0.00    +0.163 HD
ATOM      6  H   UNL     1      -3.098   5.032  -0.850  0.00  0.00    +0.159 HD
ATOM      7  H   UNL     1      -3.197   3.491  -1.615  0.00  0.00    +0.159 HD
ATOM      8  H   UNL     1      -1.571   3.901   2.121  0.00  0.00    +0.159 HD
ATOM      9  H   UNL     1      -2.178   5.262   1.262  0.00  0.00    +0.159 HD
ENDROOT
BRANCH   1  10
ATOM     10  C   UNL     1      -1.467   1.446   1.374  0.00  0.00    +0.151 C 
BRANCH  10  11
ATOM     11  C   UNL     1      -0.236   0.768   0.839  0.00  0.00    -0.028 A 
ATOM     12  C   UNL     1      -0.036   0.643  -0.543  0.00  0.00    +0.005 A 
ATOM     13  C   UNL     1       0.737   0.253   1.710  0.00  0.00    +0.005 A 
ATOM     14  C   UNL     1       1.122   0.040  -1.041  0.00  0.00    +0.000 A 
ATOM     15  C   UNL     1       1.891  -0.349   1.209  0.00  0.00    +0.000 A 
ATOM     16  C   UNL     1       2.084  -0.453  -0.166  0.00  0.00    +0.000 A 
ENDBRANCH  10  11
ENDBRANCH   1  10
TORSDOF 2
ENDMDL
MODEL 2
REMARK VINA RESULT:    -4.401      0.899      1.926
REMARK INTER + INTRA:          -5.063
REMARK INTER:                  -4.920
REMARK INTRA:                  -0.143
REMARK UNBOUND:                -0.148
REMARK  Name = 1550473
REMARK  2 active torsions:
REMARK  status: ('A' for Active; 'I' for Inactive)
REMARK    1  A    between atoms: N_1  and  C_4
REMARK    2  A    between atoms: C_4  and  C_5
REMARK                            x       y       z     vdW  Elec       q    Type
REMARK                         _______ _______ _______ _____ _____    ______ ____
ROOT
ATOM      1  N   UNL     1      -2.552   2.348   0.848  0.00  0.00    -0.354 N 
ATOM      2  N   UNL     1      -3.530   4.342   1.505  0.00  0.00    -0.372 N 
ATOM      3  N   UNL     1      -2.742   4.148  -0.641  0.00  0.00    -0.372 N 
ATOM      4  C   UNL     1      -2.934   3.601   0.564  0.00  0.00    +0.166 C 
ATOM      5  H   UNL     1      -2.699   2.002   1.789  0.00  0.00    +0.163 HD
ATOM      6  H   UNL     1      -3.833   5.289   1.319  0.00  0.00    +0.159 HD
ATOM      7  H   UNL     1      -3.717   3.977   2.431  0.00  0.00    +0.159 HD
ATOM      8  H   UNL     1      -2.292   3.644  -1.393  0.00  0.00    +0.159 HD
ATOM      9  H   UNL     1      -3.027   5.098  -0.843  0.00  0.00    +0.159 HD
ENDROOT
BRANCH   1  10
ATOM     10  C   UNL     1      -1.943   1.440  -0.122  0.00  0.00    +0.151 C 
BRANCH  10  11
ATOM     11  C   UNL     1      -0.679   0.872   0.463  0.00  0.00    -0.028 A 
ATOM     12  C   UNL     1      -0.425   0.969   1.839  0.00  0.00    +0.005 A 
ATOM     13  C   UNL     1       0.267   0.232  -0.353  0.00  0.00    +0.005 A 
ATOM     14  C   UNL     1       0.735   0.416   2.387  0.00  0.00    +0.000 A 
ATOM     15  C   UNL     1       1.424  -0.318   0.198  0.00  0.00    +0.000 A 
ATOM     16  C   UNL     1       1.656  -0.228   1.568  0.00  0.00    +0.000 A 
ENDBRANCH  10  11
ENDBRANCH   1  10
TORSDOF 2
ENDMDL
MODEL 3
REMARK VINA RESULT:    -4.391      4.190      5.935
REMARK INTER + INTRA:          -5.052
REMARK INTER:                  -4.920
REMARK INTRA:                  -0.132
REMARK UNBOUND:                -0.148
REMARK  Name = 1550473
REMARK  2 active torsions:
REMARK  status: ('A' for Active; 'I' for Inactive)
REMARK    1  A    between atoms: N_1  and  C_4
REMARK    2  A    between atoms: C_4  and  C_5
REMARK                            x       y       z     vdW  Elec       q    Type
REMARK                         _______ _______ _______ _____ _____    ______ ____
ROOT
ATOM      1  N   UNL     1       2.819  -1.672   0.662  0.00  0.00    -0.354 N 
ATOM      2  N   UNL     1       4.957  -2.311   1.279  0.00  0.00    -0.372 N 
ATOM      3  N   UNL     1       3.226  -3.783   1.595  0.00  0.00    -0.372 N 
ATOM      4  C   UNL     1       3.652  -2.587   1.176  0.00  0.00    +0.166 C 
ATOM      5  H   UNL     1       3.199  -0.772   0.391  0.00  0.00    +0.163 HD
ATOM      6  H   UNL     1       5.611  -2.983   1.659  0.00  0.00    +0.159 HD
ATOM      7  H   UNL     1       5.343  -1.429   0.964  0.00  0.00    +0.159 HD
ATOM      8  H   UNL     1       2.251  -4.050   1.549  0.00  0.00    +0.159 HD
ATOM      9  H   UNL     1       3.862  -4.464   1.989  0.00  0.00    +0.159 HD
ENDROOT
BRANCH   1  10
ATOM     10  C   UNL     1       1.388  -1.892   0.457  0.00  0.00    +0.151 C 
BRANCH  10  11
ATOM     11  C   UNL     1       0.640  -0.643   0.831  0.00  0.00    -0.028 A 
ATOM     12  C   UNL     1       0.900   0.006   2.048  0.00  0.00    +0.005 A 
ATOM     13  C   UNL     1      -0.327  -0.099  -0.028  0.00  0.00    +0.005 A 
ATOM     14  C   UNL     1       0.227   1.183   2.382  0.00  0.00    +0.000 A 
ATOM     15  C   UNL     1      -0.998   1.076   0.310  0.00  0.00    +0.000 A 
ATOM     16  C   UNL     1      -0.719   1.718   1.514  0.00  0.00    +0.000 A 
ENDBRANCH  10  11
ENDBRANCH   1  10
TORSDOF 2
ENDMDL
MODEL 4
REMARK VINA RESULT:    -4.356      3.459      4.858
REMARK INTER + INTRA:          -5.013
REMARK INTER:                  -4.864
REMARK INTRA:                  -0.149
REMARK UNBOUND:                -0.148
REMARK  Name = 1550473
REMARK  2 active torsions:
REMARK  status: ('A' for Active; 'I' for Inactive)
REMARK    1  A    between atoms: N_1  and  C_4
REMARK    2  A    between atoms: C_4  and  C_5
REMARK                            x       y       z     vdW  Elec       q    Type
REMARK                         _______ _______ _______ _____ _____    ______ ____
ROOT
ATOM      1  N   UNL     1      -4.654   5.311   3.140  0.00  0.00    -0.354 N 
ATOM      2  N   UNL     1      -4.452   7.064   4.640  0.00  0.00    -0.372 N 
ATOM      3  N   UNL     1      -4.644   7.535   2.403  0.00  0.00    -0.372 N 
ATOM      4  C   UNL     1      -4.584   6.627   3.382  0.00  0.00    +0.166 C 
ATOM      5  H   UNL     1      -4.572   4.673   3.923  0.00  0.00    +0.163 HD
ATOM      6  H   UNL     1      -4.400   8.051   4.854  0.00  0.00    +0.159 HD
ATOM      7  H   UNL     1      -4.417   6.426   5.425  0.00  0.00    +0.159 HD
ATOM      8  H   UNL     1      -4.737   7.270   1.431  0.00  0.00    +0.159 HD
ATOM      9  H   UNL     1      -4.582   8.527   2.595  0.00  0.00    +0.159 HD
ENDROOT
BRANCH   1  10
ATOM     10  C   UNL     1      -4.852   4.733   1.812  0.00  0.00    +0.151 C 
BRANCH  10  11
ATOM     11  C   UNL     1      -3.693   3.830   1.491  0.00  0.00    -0.028 A 
ATOM     12  C   UNL     1      -3.445   3.432   0.170  0.00  0.00    +0.005 A 
ATOM     13  C   UNL     1      -2.836   3.373   2.504  0.00  0.00    +0.005 A 
ATOM     14  C   UNL     1      -2.351   2.618  -0.133  0.00  0.00    +0.000 A 
ATOM     15  C   UNL     1      -1.745   2.560   2.198  0.00  0.00    +0.000 A 
ATOM     16  C   UNL     1      -1.502   2.184   0.879  0.00  0.00    +0.000 A 
ENDBRANCH  10  11
ENDBRANCH   1  10
TORSDOF 2
ENDMDL
MODEL 5
REMARK VINA RESULT:    -4.343     15.079     16.670
REMARK INTER + INTRA:          -4.999
REMARK INTER:                  -4.819
REMARK INTRA:                  -0.180
REMARK UNBOUND:                -0.148
REMARK  Name = 1550473
REMARK  2 active torsions:
REMARK  status: ('A' for Active; 'I' for Inactive)
REMARK    1  A    between atoms: N_1  and  C_4
REMARK    2  A    between atoms: C_4  and  C_5
REMARK                            x       y       z     vdW  Elec       q    Type
REMARK                         _______ _______ _______ _____ _____    ______ ____
ROOT
ATOM      1  N   UNL     1      12.891  -0.584  11.595  0.00  0.00    -0.354 N 
ATOM      2  N   UNL     1      12.633  -0.206  13.866  0.00  0.00    -0.372 N 
ATOM      3  N   UNL     1      13.098  -2.333  13.141  0.00  0.00    -0.372 N 
ATOM      4  C   UNL     1      12.876  -1.046  12.853  0.00  0.00    +0.166 C 
ATOM      5  H   UNL     1      12.685   0.397  11.440  0.00  0.00    +0.163 HD
ATOM      6  H   UNL     1      12.619  -0.525  14.825  0.00  0.00    +0.159 HD
ATOM      7  H   UNL     1      12.473   0.783  13.712  0.00  0.00    +0.159 HD
ATOM      8  H   UNL     1      13.281  -3.019  12.422  0.00  0.00    +0.159 HD
ATOM      9  H   UNL     1      13.077  -2.673  14.094  0.00  0.00    +0.159 HD
ENDROOT
BRANCH   1  10
ATOM     10  C   UNL     1      13.198  -1.405  10.426  0.00  0.00    +0.151 C 
BRANCH  10  11
ATOM     11  C   UNL     1      11.912  -1.806   9.756  0.00  0.00    -0.028 A 
ATOM     12  C   UNL     1      11.188  -0.879   8.992  0.00  0.00    +0.005 A 
ATOM     13  C   UNL     1      11.416  -3.113   9.876  0.00  0.00    +0.005 A 
ATOM     14  C   UNL     1      10.010  -1.259   8.345  0.00  0.00    +0.000 A 
ATOM     15  C   UNL     1      10.239  -3.488   9.229  0.00  0.00    +0.000 A 
ATOM     16  C   UNL     1       9.537  -2.562   8.462  0.00  0.00    +0.000 A 
ENDBRANCH  10  11
ENDBRANCH   1  10
TORSDOF 2
ENDMDL
MODEL 6
REMARK VINA RESULT:    -4.308      7.463      9.992
REMARK INTER + INTRA:          -4.959
REMARK INTER:                  -4.858
REMARK INTRA:                  -0.101
REMARK UNBOUND:                -0.148
REMARK  Name = 1550473
REMARK  2 active torsions:
REMARK  status: ('A' for Active; 'I' for Inactive)
REMARK    1  A    between atoms: N_1  and  C_4
REMARK    2  A    between atoms: C_4  and  C_5
REMARK                            x       y       z     vdW  Elec       q    Type
REMARK                         _______ _______ _______ _____ _____    ______ ____
ROOT
ATOM      1  N   UNL     1      -4.635   7.594   2.278  0.00  0.00    -0.354 N 
ATOM      2  N   UNL     1      -3.130   6.064   3.148  0.00  0.00    -0.372 N 
ATOM      3  N   UNL     1      -4.616   7.087   4.566  0.00  0.00    -0.372 N 
ATOM      4  C   UNL     1      -4.138   6.926   3.328  0.00  0.00    +0.166 C 
ATOM      5  H   UNL     1      -4.209   7.450   1.370  0.00  0.00    +0.163 HD
ATOM      6  H   UNL     1      -2.736   5.543   3.920  0.00  0.00    +0.159 HD
ATOM      7  H   UNL     1      -2.736   5.888   2.232  0.00  0.00    +0.159 HD
ATOM      8  H   UNL     1      -5.372   7.727   4.770  0.00  0.00    +0.159 HD
ATOM      9  H   UNL     1      -4.227   6.584   5.354  0.00  0.00    +0.159 HD
ENDROOT
BRANCH   1  10
ATOM     10  C   UNL     1      -5.768   8.515   2.358  0.00  0.00    +0.151 C 
BRANCH  10  11
ATOM     11  C   UNL     1      -5.575   9.618   1.354  0.00  0.00    -0.028 A 
ATOM     12  C   UNL     1      -5.861   9.405  -0.003  0.00  0.00    +0.005 A 
ATOM     13  C   UNL     1      -5.112  10.881   1.754  0.00  0.00    +0.005 A 
ATOM     14  C   UNL     1      -5.711  10.438  -0.931  0.00  0.00    +0.000 A 
ATOM     15  C   UNL     1      -4.962  11.910   0.824  0.00  0.00    +0.000 A 
ATOM     16  C   UNL     1      -5.264  11.689  -0.518  0.00  0.00    +0.000 A 
ENDBRANCH  10  11
ENDBRANCH   1  10
TORSDOF 2
ENDMDL
MODEL 7
REMARK VINA RESULT:    -4.118      3.767      5.486
REMARK INTER + INTRA:          -4.747
REMARK INTER:                  -4.596
REMARK INTRA:                  -0.151
REMARK UNBOUND:                -0.148
REMARK  Name = 1550473
REMARK  2 active torsions:
REMARK  status: ('A' for Active; 'I' for Inactive)
REMARK    1  A    between atoms: N_1  and  C_4
REMARK    2  A    between atoms: C_4  and  C_5
REMARK                            x       y       z     vdW  Elec       q    Type
REMARK                         _______ _______ _______ _____ _____    ______ ____
ROOT
ATOM      1  N   UNL     1       1.375  -0.395  -0.758  0.00  0.00    -0.354 N 
ATOM      2  N   UNL     1       3.616  -0.873  -0.421  0.00  0.00    -0.372 N 
ATOM      3  N   UNL     1       2.441  -2.095  -1.968  0.00  0.00    -0.372 N 
ATOM      4  C   UNL     1       2.462  -1.120  -1.053  0.00  0.00    +0.166 C 
ATOM      5  H   UNL     1       1.448   0.310  -0.033  0.00  0.00    +0.163 HD
ATOM      6  H   UNL     1       4.453  -1.401  -0.625  0.00  0.00    +0.159 HD
ATOM      7  H   UNL     1       3.698  -0.137   0.270  0.00  0.00    +0.159 HD
ATOM      8  H   UNL     1       1.600  -2.335  -2.476  0.00  0.00    +0.159 HD
ATOM      9  H   UNL     1       3.266  -2.642  -2.177  0.00  0.00    +0.159 HD
ENDROOT
BRANCH   1  10
ATOM     10  C   UNL     1       0.084  -0.547  -1.427  0.00  0.00    +0.151 C 
BRANCH  10  11
ATOM     11  C   UNL     1      -0.309   0.767  -2.043  0.00  0.00    -0.028 A 
ATOM     12  C   UNL     1       0.387   1.269  -3.153  0.00  0.00    +0.005 A 
ATOM     13  C   UNL     1      -1.379   1.512  -1.526  0.00  0.00    +0.005 A 
ATOM     14  C   UNL     1       0.004   2.475  -3.744  0.00  0.00    +0.000 A 
ATOM     15  C   UNL     1      -1.759   2.716  -2.119  0.00  0.00    +0.000 A 
ATOM     16  C   UNL     1      -1.068   3.196  -3.229  0.00  0.00    +0.000 A 
ENDBRANCH  10  11
ENDBRANCH   1  10
TORSDOF 2
ENDMDL
MODEL 8
REMARK VINA RESULT:    -4.096      8.343     10.095
REMARK INTER + INTRA:          -4.722
REMARK INTER:                  -4.591
REMARK INTRA:                  -0.131
REMARK UNBOUND:                -0.148
REMARK  Name = 1550473
REMARK  2 active torsions:
REMARK  status: ('A' for Active; 'I' for Inactive)
REMARK    1  A    between atoms: N_1  and  C_4
REMARK    2  A    between atoms: C_4  and  C_5
REMARK                            x       y       z     vdW  Elec       q    Type
REMARK                         _______ _______ _______ _____ _____    ______ ____
ROOT
ATOM      1  N   UNL     1       6.179  -4.303   0.946  0.00  0.00    -0.354 N 
ATOM      2  N   UNL     1       4.853  -3.592  -0.814  0.00  0.00    -0.372 N 
ATOM      3  N   UNL     1       5.247  -2.153   0.929  0.00  0.00    -0.372 N 
ATOM      4  C   UNL     1       5.434  -3.352   0.367  0.00  0.00    +0.166 C 
ATOM      5  H   UNL     1       6.257  -5.202   0.484  0.00  0.00    +0.163 HD
ATOM      6  H   UNL     1       4.288  -2.893  -1.277  0.00  0.00    +0.159 HD
ATOM      7  H   UNL     1       4.970  -4.475  -1.296  0.00  0.00    +0.159 HD
ATOM      8  H   UNL     1       5.654  -1.911   1.823  0.00  0.00    +0.159 HD
ATOM      9  H   UNL     1       4.676  -1.444   0.487  0.00  0.00    +0.159 HD
ENDROOT
BRANCH   1  10
ATOM     10  C   UNL     1       6.899  -4.124   2.206  0.00  0.00    +0.151 C 
BRANCH  10  11
ATOM     11  C   UNL     1       6.916  -5.430   2.952  0.00  0.00    -0.028 A 
ATOM     12  C   UNL     1       7.943  -5.716   3.863  0.00  0.00    +0.005 A 
ATOM     13  C   UNL     1       5.905  -6.383   2.756  0.00  0.00    +0.005 A 
ATOM     14  C   UNL     1       7.944  -6.916   4.578  0.00  0.00    +0.000 A 
ATOM     15  C   UNL     1       5.909  -7.580   3.472  0.00  0.00    +0.000 A 
ATOM     16  C   UNL     1       6.927  -7.845   4.385  0.00  0.00    +0.000 A 
ENDBRANCH  10  11
ENDBRANCH   1  10
TORSDOF 2
ENDMDL
MODEL 9
REMARK VINA RESULT:    -4.057      7.925      9.519
REMARK INTER + INTRA:          -4.679
REMARK INTER:                  -4.541
REMARK INTRA:                  -0.138
REMARK UNBOUND:                -0.148
REMARK  Name = 1550473
REMARK  2 active torsions:
REMARK  status: ('A' for Active; 'I' for Inactive)
REMARK    1  A    between atoms: N_1  and  C_4
REMARK    2  A    between atoms: C_4  and  C_5
REMARK                            x       y       z     vdW  Elec       q    Type
REMARK                         _______ _______ _______ _____ _____    ______ ____
ROOT
ATOM      1  N   UNL     1       6.093  -5.565   2.407  0.00  0.00    -0.354 N 
ATOM      2  N   UNL     1       5.858  -6.145   4.637  0.00  0.00    -0.372 N 
ATOM      3  N   UNL     1       7.647  -4.852   4.010  0.00  0.00    -0.372 N 
ATOM      4  C   UNL     1       6.537  -5.515   3.670  0.00  0.00    +0.166 C 
ATOM      5  H   UNL     1       5.262  -6.109   2.210  0.00  0.00    +0.163 HD
ATOM      6  H   UNL     1       6.166  -6.123   5.599  0.00  0.00    +0.159 HD
ATOM      7  H   UNL     1       5.002  -6.650   4.444  0.00  0.00    +0.159 HD
ATOM      8  H   UNL     1       8.208  -4.362   3.327  0.00  0.00    +0.159 HD
ATOM      9  H   UNL     1       7.978  -4.828   4.967  0.00  0.00    +0.159 HD
ENDROOT
BRANCH   1  10
ATOM     10  C   UNL     1       6.729  -4.869   1.289  0.00  0.00    +0.151 C 
BRANCH  10  11
ATOM     11  C   UNL     1       5.726  -3.953   0.645  0.00  0.00    -0.028 A 
ATOM     12  C   UNL     1       4.943  -3.091   1.428  0.00  0.00    +0.005 A 
ATOM     13  C   UNL     1       5.556  -3.938  -0.747  0.00  0.00    +0.005 A 
ATOM     14  C   UNL     1       4.032  -2.219   0.828  0.00  0.00    +0.000 A 
ATOM     15  C   UNL     1       4.644  -3.066  -1.343  0.00  0.00    +0.000 A 
ATOM     16  C   UNL     1       3.884  -2.205  -0.555  0.00  0.00    +0.000 A 
ENDBRANCH  10  11
ENDBRANCH   1  10
TORSDOF 2
ENDMDL
