MODEL 1
REMARK VINA RESULT:    -5.286      0.000      0.000
REMARK INTER + INTRA:          -6.054
REMARK INTER:                  -5.904
REMARK INTRA:                  -0.150
REMARK UNBOUND:                -0.150
REMARK  Name = 1550473
REMARK  2 active torsions:
REMARK  status: ('A' for Active; 'I' for Inactive)
REMARK    1  A    between atoms: N_1  and  C_4
REMARK    2  A    between atoms: C_4  and  C_5
REMARK                            x       y       z     vdW  Elec       q    Type
REMARK                         _______ _______ _______ _____ _____    ______ ____
ROOT
ATOM      1  N   UNL     1     -11.476  -9.610  -2.979  0.00  0.00    -0.354 N 
ATOM      2  N   UNL     1      -9.635 -10.888  -2.393  0.00  0.00    -0.372 N 
ATOM      3  N   UNL     1      -9.300  -8.767  -3.203  0.00  0.00    -0.372 N 
ATOM      4  C   UNL     1     -10.148  -9.744  -2.863  0.00  0.00    +0.166 C 
ATOM      5  H   UNL     1     -12.063 -10.398  -2.733  0.00  0.00    +0.163 HD
ATOM      6  H   UNL     1      -8.638 -11.017  -2.291  0.00  0.00    +0.159 HD
ATOM      7  H   UNL     1     -10.227 -11.658  -2.105  0.00  0.00    +0.159 HD
ATOM      8  H   UNL     1      -9.623  -7.882  -3.570  0.00  0.00    +0.159 HD
ATOM      9  H   UNL     1      -8.298  -8.882  -3.120  0.00  0.00    +0.159 HD
ENDROOT
BRANCH   1  10
ATOM     10  C   UNL     1     -12.137  -8.386  -3.430  0.00  0.00    +0.151 C 
BRANCH  10  11
ATOM     11  C   UNL     1     -13.016  -7.868  -2.325  0.00  0.00    -0.028 A 
ATOM     12  C   UNL     1     -12.542  -6.890  -1.438  0.00  0.00    +0.005 A 
ATOM     13  C   UNL     1     -14.326  -8.346  -2.163  0.00  0.00    +0.005 A 
ATOM     14  C   UNL     1     -13.368  -6.387  -0.430  0.00  0.00    +0.000 A 
ATOM     15  C   UNL     1     -15.147  -7.841  -1.155  0.00  0.00    +0.000 A 
ATOM     16  C   UNL     1     -14.668  -6.859  -0.290  0.00  0.00    +0.000 A 
ENDBRANCH  10  11
ENDBRANCH   1  10
TORSDOF 2
ENDMDL
MODEL 2
REMARK VINA RESULT:    -5.284     24.557     25.959
REMARK INTER + INTRA:          -6.052
REMARK INTER:                  -5.930
REMARK INTRA:                  -0.122
REMARK UNBOUND:                -0.150
REMARK  Name = 1550473
REMARK  2 active torsions:
REMARK  status: ('A' for Active; 'I' for Inactive)
REMARK    1  A    between atoms: N_1  and  C_4
REMARK    2  A    between atoms: C_4  and  C_5
REMARK                            x       y       z     vdW  Elec       q    Type
REMARK                         _______ _______ _______ _____ _____    ______ ____
ROOT
ATOM      1  N   UNL     1      10.903   3.129  -1.026  0.00  0.00    -0.354 N 
ATOM      2  N   UNL     1       9.882   4.743  -2.336  0.00  0.00    -0.372 N 
ATOM      3  N   UNL     1      12.159   4.485  -2.467  0.00  0.00    -0.372 N 
ATOM      4  C   UNL     1      10.991   4.109  -1.935  0.00  0.00    +0.166 C 
ATOM      5  H   UNL     1       9.992   2.911  -0.639  0.00  0.00    +0.163 HD
ATOM      6  H   UNL     1       9.917   5.484  -3.023  0.00  0.00    +0.159 HD
ATOM      7  H   UNL     1       8.967   4.492  -1.982  0.00  0.00    +0.159 HD
ATOM      8  H   UNL     1      13.032   4.050  -2.202  0.00  0.00    +0.159 HD
ATOM      9  H   UNL     1      12.215   5.233  -3.147  0.00  0.00    +0.159 HD
ENDROOT
BRANCH   1  10
ATOM     10  C   UNL     1      12.043   2.340  -0.562  0.00  0.00    +0.151 C 
BRANCH  10  11
ATOM     11  C   UNL     1      11.554   1.282   0.389  0.00  0.00    -0.028 A 
ATOM     12  C   UNL     1      12.458   0.580   1.199  0.00  0.00    +0.005 A 
ATOM     13  C   UNL     1      10.187   0.983   0.490  0.00  0.00    +0.005 A 
ATOM     14  C   UNL     1      12.001  -0.381   2.104  0.00  0.00    +0.000 A 
ATOM     15  C   UNL     1       9.735   0.022   1.394  0.00  0.00    +0.000 A 
ATOM     16  C   UNL     1      10.642  -0.658   2.203  0.00  0.00    +0.000 A 
ENDBRANCH  10  11
ENDBRANCH   1  10
TORSDOF 2
ENDMDL
MODEL 3
REMARK VINA RESULT:    -5.221     25.896     26.662
REMARK INTER + INTRA:          -5.981
REMARK INTER:                  -5.887
REMARK INTRA:                  -0.094
REMARK UNBOUND:                -0.150
REMARK  Name = 1550473
REMARK  2 active torsions:
REMARK  status: ('A' for Active; 'I' for Inactive)
REMARK    1  A    between atoms: N_1  and  C_4
REMARK    2  A    between atoms: C_4  and  C_5
REMARK                            x       y       z     vdW  Elec       q    Type
REMARK                         _______ _______ _______ _____ _____    ______ ____
ROOT
ATOM      1  N   UNL     1      12.887  -1.544  -8.824  0.00  0.00    -0.354 N 
ATOM      2  N   UNL     1      14.584  -1.513  -7.248  0.00  0.00    -0.372 N 
ATOM      3  N   UNL     1      12.656  -2.665  -6.779  0.00  0.00    -0.372 N 
ATOM      4  C   UNL     1      13.363  -1.909  -7.626  0.00  0.00    +0.166 C 
ATOM      5  H   UNL     1      13.461  -0.945  -9.407  0.00  0.00    +0.163 HD
ATOM      6  H   UNL     1      14.971  -1.775  -6.351  0.00  0.00    +0.159 HD
ATOM      7  H   UNL     1      15.173  -0.953  -7.851  0.00  0.00    +0.159 HD
ATOM      8  H   UNL     1      11.725  -2.991  -7.002  0.00  0.00    +0.159 HD
ATOM      9  H   UNL     1      13.021  -2.928  -5.872  0.00  0.00    +0.159 HD
ENDROOT
BRANCH   1  10
ATOM     10  C   UNL     1      11.592  -1.966  -9.353  0.00  0.00    +0.151 C 
BRANCH  10  11
ATOM     11  C   UNL     1      11.208  -1.063 -10.492  0.00  0.00    -0.028 A 
ATOM     12  C   UNL     1      11.487  -1.430 -11.817  0.00  0.00    +0.005 A 
ATOM     13  C   UNL     1      10.560   0.159 -10.254  0.00  0.00    +0.005 A 
ATOM     14  C   UNL     1      11.104  -0.605 -12.877  0.00  0.00    +0.000 A 
ATOM     15  C   UNL     1      10.180   0.980 -11.316  0.00  0.00    +0.000 A 
ATOM     16  C   UNL     1      10.450   0.597 -12.627  0.00  0.00    +0.000 A 
ENDBRANCH  10  11
ENDBRANCH   1  10
TORSDOF 2
ENDMDL
MODEL 4
REMARK VINA RESULT:    -5.164     23.833     25.133
REMARK INTER + INTRA:          -5.917
REMARK INTER:                  -5.740
REMARK INTRA:                  -0.177
REMARK UNBOUND:                -0.150
REMARK  Name = 1550473
REMARK  2 active torsions:
REMARK  status: ('A' for Active; 'I' for Inactive)
REMARK    1  A    between atoms: N_1  and  C_4
REMARK    2  A    between atoms: C_4  and  C_5
REMARK                            x       y       z     vdW  Elec       q    Type
REMARK                         _______ _______ _______ _____ _____    ______ ____
ROOT
ATOM      1  N   UNL     1      13.177  -2.824   1.977  0.00  0.00    -0.354 N 
ATOM      2  N   UNL     1      13.156  -4.951   1.061  0.00  0.00    -0.372 N 
ATOM      3  N   UNL     1      12.034  -4.579   3.028  0.00  0.00    -0.372 N 
ATOM      4  C   UNL     1      12.787  -4.105   2.030  0.00  0.00    +0.166 C 
ATOM      5  H   UNL     1      13.772  -2.534   1.210  0.00  0.00    +0.163 HD
ATOM      6  H   UNL     1      12.874  -5.922   1.073  0.00  0.00    +0.159 HD
ATOM      7  H   UNL     1      13.713  -4.647   0.272  0.00  0.00    +0.159 HD
ATOM      8  H   UNL     1      11.727  -3.993   3.793  0.00  0.00    +0.159 HD
ATOM      9  H   UNL     1      11.752  -5.551   3.063  0.00  0.00    +0.159 HD
ENDROOT
BRANCH   1  10
ATOM     10  C   UNL     1      12.785  -1.809   2.953  0.00  0.00    +0.151 C 
BRANCH  10  11
ATOM     11  C   UNL     1      11.575  -1.077   2.443  0.00  0.00    -0.028 A 
ATOM     12  C   UNL     1      11.693  -0.145   1.402  0.00  0.00    +0.005 A 
ATOM     13  C   UNL     1      10.306  -1.316   2.992  0.00  0.00    +0.005 A 
ATOM     14  C   UNL     1      10.565   0.513   0.907  0.00  0.00    +0.000 A 
ATOM     15  C   UNL     1       9.182  -0.656   2.496  0.00  0.00    +0.000 A 
ATOM     16  C   UNL     1       9.311   0.257   1.452  0.00  0.00    +0.000 A 
ENDBRANCH  10  11
ENDBRANCH   1  10
TORSDOF 2
ENDMDL
MODEL 5
REMARK VINA RESULT:    -5.122     24.463     25.883
REMARK INTER + INTRA:          -5.870
REMARK INTER:                  -5.697
REMARK INTRA:                  -0.173
REMARK UNBOUND:                -0.150
REMARK  Name = 1550473
REMARK  2 active torsions:
REMARK  status: ('A' for Active; 'I' for Inactive)
REMARK    1  A    between atoms: N_1  and  C_4
REMARK    2  A    between atoms: C_4  and  C_5
REMARK                            x       y       z     vdW  Elec       q    Type
REMARK                         _______ _______ _______ _____ _____    ______ ____
ROOT
ATOM      1  N   UNL     1      14.071  -1.356   0.795  0.00  0.00    -0.354 N 
ATOM      2  N   UNL     1      14.693  -2.782  -0.921  0.00  0.00    -0.372 N 
ATOM      3  N   UNL     1      13.902  -3.680   1.036  0.00  0.00    -0.372 N 
ATOM      4  C   UNL     1      14.218  -2.599   0.316  0.00  0.00    +0.166 C 
ATOM      5  H   UNL     1      14.357  -0.578   0.210  0.00  0.00    +0.163 HD
ATOM      6  H   UNL     1      14.811  -3.708  -1.310  0.00  0.00    +0.159 HD
ATOM      7  H   UNL     1      14.934  -2.002  -1.520  0.00  0.00    +0.159 HD
ATOM      8  H   UNL     1      13.544  -3.610   1.979  0.00  0.00    +0.159 HD
ATOM      9  H   UNL     1      14.024  -4.616   0.669  0.00  0.00    +0.159 HD
ENDROOT
BRANCH   1  10
ATOM     10  C   UNL     1      13.512  -1.046   2.109  0.00  0.00    +0.151 C 
BRANCH  10  11
ATOM     11  C   UNL     1      12.065  -0.669   1.951  0.00  0.00    -0.028 A 
ATOM     12  C   UNL     1      11.091  -1.213   2.801  0.00  0.00    +0.005 A 
ATOM     13  C   UNL     1      11.662   0.235   0.956  0.00  0.00    +0.005 A 
ATOM     14  C   UNL     1       9.750  -0.840   2.674  0.00  0.00    +0.000 A 
ATOM     15  C   UNL     1      10.323   0.604   0.832  0.00  0.00    +0.000 A 
ATOM     16  C   UNL     1       9.368   0.068   1.692  0.00  0.00    +0.000 A 
ENDBRANCH  10  11
ENDBRANCH   1  10
TORSDOF 2
ENDMDL
MODEL 6
REMARK VINA RESULT:    -4.961     25.378     26.756
REMARK INTER + INTRA:          -5.691
REMARK INTER:                  -5.568
REMARK INTRA:                  -0.123
REMARK UNBOUND:                -0.150
REMARK  Name = 1550473
REMARK  2 active torsions:
REMARK  status: ('A' for Active; 'I' for Inactive)
REMARK    1  A    between atoms: N_1  and  C_4
REMARK    2  A    between atoms: C_4  and  C_5
REMARK                            x       y       z     vdW  Elec       q    Type
REMARK                         _______ _______ _______ _____ _____    ______ ____
ROOT
ATOM      1  N   UNL     1     -10.275  15.361   9.789  0.00  0.00    -0.354 N 
ATOM      2  N   UNL     1     -11.893  14.374  11.121  0.00  0.00    -0.372 N 
ATOM      3  N   UNL     1     -11.657  16.656  11.169  0.00  0.00    -0.372 N 
ATOM      4  C   UNL     1     -11.265  15.473  10.685  0.00  0.00    +0.166 C 
ATOM      5  H   UNL     1     -10.005  14.433   9.484  0.00  0.00    +0.163 HD
ATOM      6  H   UNL     1     -12.646  14.428  11.795  0.00  0.00    +0.159 HD
ATOM      7  H   UNL     1     -11.652  13.452  10.780  0.00  0.00    +0.159 HD
ATOM      8  H   UNL     1     -11.219  17.523  10.885  0.00  0.00    +0.159 HD
ATOM      9  H   UNL     1     -12.400  16.730  11.853  0.00  0.00    +0.159 HD
ENDROOT
BRANCH   1  10
ATOM     10  C   UNL     1      -9.563  16.499   9.210  0.00  0.00    +0.151 C 
BRANCH  10  11
ATOM     11  C   UNL     1      -9.015  16.103   7.867  0.00  0.00    -0.028 A 
ATOM     12  C   UNL     1      -9.751  15.266   7.016  0.00  0.00    +0.005 A 
ATOM     13  C   UNL     1      -7.762  16.566   7.438  0.00  0.00    +0.005 A 
ATOM     14  C   UNL     1      -9.255  14.923   5.756  0.00  0.00    +0.000 A 
ATOM     15  C   UNL     1      -7.270  16.221   6.179  0.00  0.00    +0.000 A 
ATOM     16  C   UNL     1      -8.018  15.401   5.338  0.00  0.00    +0.000 A 
ENDBRANCH  10  11
ENDBRANCH   1  10
TORSDOF 2
ENDMDL
MODEL 7
REMARK VINA RESULT:    -4.945     24.425     25.716
REMARK INTER + INTRA:          -5.673
REMARK INTER:                  -5.549
REMARK INTRA:                  -0.123
REMARK UNBOUND:                -0.150
REMARK  Name = 1550473
REMARK  2 active torsions:
REMARK  status: ('A' for Active; 'I' for Inactive)
REMARK    1  A    between atoms: N_1  and  C_4
REMARK    2  A    between atoms: C_4  and  C_5
REMARK                            x       y       z     vdW  Elec       q    Type
REMARK                         _______ _______ _______ _____ _____    ______ ____
ROOT
ATOM      1  N   UNL     1      11.876   1.929  -0.093  0.00  0.00    -0.354 N 
ATOM      2  N   UNL     1      13.342   3.541  -0.878  0.00  0.00    -0.372 N 
ATOM      3  N   UNL     1      11.125   3.685  -1.451  0.00  0.00    -0.372 N 
ATOM      4  C   UNL     1      12.103   3.042  -0.804  0.00  0.00    +0.166 C 
ATOM      5  H   UNL     1      12.665   1.472   0.350  0.00  0.00    +0.163 HD
ATOM      6  H   UNL     1      13.543   4.381  -1.404  0.00  0.00    +0.159 HD
ATOM      7  H   UNL     1      14.121   3.108  -0.397  0.00  0.00    +0.159 HD
ATOM      8  H   UNL     1      10.169   3.356  -1.440  0.00  0.00    +0.159 HD
ATOM      9  H   UNL     1      11.308   4.521  -1.993  0.00  0.00    +0.159 HD
ENDROOT
BRANCH   1  10
ATOM     10  C   UNL     1      10.554   1.334   0.095  0.00  0.00    +0.151 C 
BRANCH  10  11
ATOM     11  C   UNL     1      10.603   0.389   1.264  0.00  0.00    -0.028 A 
ATOM     12  C   UNL     1       9.420  -0.134   1.807  0.00  0.00    +0.005 A 
ATOM     13  C   UNL     1      11.830   0.008   1.830  0.00  0.00    +0.005 A 
ATOM     14  C   UNL     1       9.467  -1.035   2.873  0.00  0.00    +0.000 A 
ATOM     15  C   UNL     1      11.872  -0.892   2.895  0.00  0.00    +0.000 A 
ATOM     16  C   UNL     1      10.690  -1.415   3.415  0.00  0.00    +0.000 A 
ENDBRANCH  10  11
ENDBRANCH   1  10
TORSDOF 2
ENDMDL
MODEL 8
REMARK VINA RESULT:    -4.940     31.465     32.722
REMARK INTER + INTRA:          -5.667
REMARK INTER:                  -5.567
REMARK INTRA:                  -0.100
REMARK UNBOUND:                -0.150
REMARK  Name = 1550473
REMARK  2 active torsions:
REMARK  status: ('A' for Active; 'I' for Inactive)
REMARK    1  A    between atoms: N_1  and  C_4
REMARK    2  A    between atoms: C_4  and  C_5
REMARK                            x       y       z     vdW  Elec       q    Type
REMARK                         _______ _______ _______ _____ _____    ______ ____
ROOT
ATOM      1  N   UNL     1      14.159   5.994   8.471  0.00  0.00    -0.354 N 
ATOM      2  N   UNL     1      12.483   4.689   9.395  0.00  0.00    -0.372 N 
ATOM      3  N   UNL     1      14.645   3.921   9.450  0.00  0.00    -0.372 N 
ATOM      4  C   UNL     1      13.776   4.875   9.100  0.00  0.00    +0.166 C 
ATOM      5  H   UNL     1      13.447   6.665   8.205  0.00  0.00    +0.163 HD
ATOM      6  H   UNL     1      12.165   3.857   9.872  0.00  0.00    +0.159 HD
ATOM      7  H   UNL     1      11.780   5.383   9.170  0.00  0.00    +0.159 HD
ATOM      8  H   UNL     1      15.633   3.998   9.251  0.00  0.00    +0.159 HD
ATOM      9  H   UNL     1      14.344   3.075   9.918  0.00  0.00    +0.159 HD
ENDROOT
BRANCH   1  10
ATOM     10  C   UNL     1      15.548   6.318   8.151  0.00  0.00    +0.151 C 
BRANCH  10  11
ATOM     11  C   UNL     1      15.583   7.159   6.906  0.00  0.00    -0.028 A 
ATOM     12  C   UNL     1      16.105   6.642   5.711  0.00  0.00    +0.005 A 
ATOM     13  C   UNL     1      15.090   8.473   6.912  0.00  0.00    +0.005 A 
ATOM     14  C   UNL     1      16.110   7.413   4.546  0.00  0.00    +0.000 A 
ATOM     15  C   UNL     1      15.097   9.240   5.747  0.00  0.00    +0.000 A 
ATOM     16  C   UNL     1      15.605   8.708   4.564  0.00  0.00    +0.000 A 
ENDBRANCH  10  11
ENDBRANCH   1  10
TORSDOF 2
ENDMDL
MODEL 9
REMARK VINA RESULT:    -4.854     24.921     26.577
REMARK INTER + INTRA:          -5.571
REMARK INTER:                  -5.416
REMARK INTRA:                  -0.155
REMARK UNBOUND:                -0.150
REMARK  Name = 1550473
REMARK  2 active torsions:
REMARK  status: ('A' for Active; 'I' for Inactive)
REMARK    1  A    between atoms: N_1  and  C_4
REMARK    2  A    between atoms: C_4  and  C_5
REMARK                            x       y       z     vdW  Elec       q    Type
REMARK                         _______ _______ _______ _____ _____    ______ ____
ROOT
ATOM      1  N   UNL     1      13.505  -0.180   4.200  0.00  0.00    -0.354 N 
ATOM      2  N   UNL     1      14.649   1.458   5.372  0.00  0.00    -0.372 N 
ATOM      3  N   UNL     1      15.304   0.966   3.228  0.00  0.00    -0.372 N 
ATOM      4  C   UNL     1      14.480   0.737   4.257  0.00  0.00    +0.166 C 
ATOM      5  H   UNL     1      12.934  -0.326   5.024  0.00  0.00    +0.163 HD
ATOM      6  H   UNL     1      15.373   2.160   5.443  0.00  0.00    +0.159 HD
ATOM      7  H   UNL     1      14.047   1.342   6.178  0.00  0.00    +0.159 HD
ATOM      8  H   UNL     1      15.233   0.452   2.361  0.00  0.00    +0.159 HD
ATOM      9  H   UNL     1      16.042   1.656   3.284  0.00  0.00    +0.159 HD
ENDROOT
BRANCH   1  10
ATOM     10  C   UNL     1      13.203  -0.980   3.014  0.00  0.00    +0.151 C 
BRANCH  10  11
ATOM     11  C   UNL     1      11.839  -0.606   2.504  0.00  0.00    -0.028 A 
ATOM     12  C   UNL     1      11.701   0.222   1.380  0.00  0.00    +0.005 A 
ATOM     13  C   UNL     1      10.680  -1.081   3.137  0.00  0.00    +0.005 A 
ATOM     14  C   UNL     1      10.434   0.545   0.888  0.00  0.00    +0.000 A 
ATOM     15  C   UNL     1       9.417  -0.755   2.642  0.00  0.00    +0.000 A 
ATOM     16  C   UNL     1       9.294   0.056   1.517  0.00  0.00    +0.000 A 
ENDBRANCH  10  11
ENDBRANCH   1  10
TORSDOF 2
ENDMDL
