MODEL 1
REMARK VINA RESULT:    -5.654      0.000      0.000
REMARK INTER + INTRA:          -6.461
REMARK INTER:                  -6.315
REMARK INTRA:                  -0.146
REMARK UNBOUND:                -0.146
REMARK  Name = 1550473
REMARK  2 active torsions:
REMARK  status: ('A' for Active; 'I' for Inactive)
REMARK    1  A    between atoms: N_1  and  C_4
REMARK    2  A    between atoms: C_4  and  C_5
REMARK                            x       y       z     vdW  Elec       q    Type
REMARK                         _______ _______ _______ _____ _____    ______ ____
ROOT
ATOM      1  N   UNL     1       4.680  10.467 -11.763  0.00  0.00    -0.354 N 
ATOM      2  N   UNL     1       2.911   9.217 -12.582  0.00  0.00    -0.372 N 
ATOM      3  N   UNL     1       3.363  11.256 -13.534  0.00  0.00    -0.372 N 
ATOM      4  C   UNL     1       3.663  10.324 -12.623  0.00  0.00    +0.166 C 
ATOM      5  H   UNL     1       4.837   9.738 -11.077  0.00  0.00    +0.163 HD
ATOM      6  H   UNL     1       2.139   9.080 -13.220  0.00  0.00    +0.159 HD
ATOM      7  H   UNL     1       3.098   8.470 -11.925  0.00  0.00    +0.159 HD
ATOM      8  H   UNL     1       3.888  12.116 -13.612  0.00  0.00    +0.159 HD
ATOM      9  H   UNL     1       2.587  11.141 -14.173  0.00  0.00    +0.159 HD
ENDROOT
BRANCH   1  10
ATOM     10  C   UNL     1       5.593  11.609 -11.760  0.00  0.00    +0.151 C 
BRANCH  10  11
ATOM     11  C   UNL     1       7.006  11.110 -11.879  0.00  0.00    -0.028 A 
ATOM     12  C   UNL     1       7.415  10.393 -13.013  0.00  0.00    +0.005 A 
ATOM     13  C   UNL     1       7.943  11.354 -10.863  0.00  0.00    +0.005 A 
ATOM     14  C   UNL     1       8.735   9.955 -13.138  0.00  0.00    +0.000 A 
ATOM     15  C   UNL     1       9.260  10.913 -10.991  0.00  0.00    +0.000 A 
ATOM     16  C   UNL     1       9.657  10.216 -12.130  0.00  0.00    +0.000 A 
ENDBRANCH  10  11
ENDBRANCH   1  10
TORSDOF 2
ENDMDL
MODEL 2
REMARK VINA RESULT:    -5.507      1.943      3.335
REMARK INTER + INTRA:          -6.298
REMARK INTER:                  -6.150
REMARK INTRA:                  -0.147
REMARK UNBOUND:                -0.146
REMARK  Name = 1550473
REMARK  2 active torsions:
REMARK  status: ('A' for Active; 'I' for Inactive)
REMARK    1  A    between atoms: N_1  and  C_4
REMARK    2  A    between atoms: C_4  and  C_5
REMARK                            x       y       z     vdW  Elec       q    Type
REMARK                         _______ _______ _______ _____ _____    ______ ____
ROOT
ATOM      1  N   UNL     1       2.367  10.259 -13.446  0.00  0.00    -0.354 N 
ATOM      2  N   UNL     1       1.454  10.714 -15.525  0.00  0.00    -0.372 N 
ATOM      3  N   UNL     1       0.874  12.040 -13.744  0.00  0.00    -0.372 N 
ATOM      4  C   UNL     1       1.570  11.003 -14.223  0.00  0.00    +0.166 C 
ATOM      5  H   UNL     1       2.844   9.468 -13.863  0.00  0.00    +0.163 HD
ATOM      6  H   UNL     1       0.862  11.260 -16.136  0.00  0.00    +0.159 HD
ATOM      7  H   UNL     1       1.967   9.951 -15.949  0.00  0.00    +0.159 HD
ATOM      8  H   UNL     1       0.913  12.306 -12.769  0.00  0.00    +0.159 HD
ATOM      9  H   UNL     1       0.267  12.591 -14.338  0.00  0.00    +0.159 HD
ENDROOT
BRANCH   1  10
ATOM     10  C   UNL     1       2.605  10.522 -12.028  0.00  0.00    +0.151 C 
BRANCH  10  11
ATOM     11  C   UNL     1       4.059  10.845 -11.825  0.00  0.00    -0.028 A 
ATOM     12  C   UNL     1       4.457  11.740 -10.821  0.00  0.00    +0.005 A 
ATOM     13  C   UNL     1       5.046  10.254 -12.630  0.00  0.00    +0.005 A 
ATOM     14  C   UNL     1       5.810  12.017 -10.612  0.00  0.00    +0.000 A 
ATOM     15  C   UNL     1       6.396  10.534 -12.419  0.00  0.00    +0.000 A 
ATOM     16  C   UNL     1       6.778  11.413 -11.409  0.00  0.00    +0.000 A 
ENDBRANCH  10  11
ENDBRANCH   1  10
TORSDOF 2
ENDMDL
MODEL 3
REMARK VINA RESULT:    -5.341     37.227     38.259
REMARK INTER + INTRA:          -6.111
REMARK INTER:                  -5.930
REMARK INTRA:                  -0.182
REMARK UNBOUND:                -0.146
REMARK  Name = 1550473
REMARK  2 active torsions:
REMARK  status: ('A' for Active; 'I' for Inactive)
REMARK    1  A    between atoms: N_1  and  C_4
REMARK    2  A    between atoms: C_4  and  C_5
REMARK                            x       y       z     vdW  Elec       q    Type
REMARK                         _______ _______ _______ _____ _____    ______ ____
ROOT
ATOM      1  N   UNL     1      -0.485  13.896  24.400  0.00  0.00    -0.354 N 
ATOM      2  N   UNL     1      -2.283  12.859  25.427  0.00  0.00    -0.372 N 
ATOM      3  N   UNL     1      -0.335  13.132  26.610  0.00  0.00    -0.372 N 
ATOM      4  C   UNL     1      -1.021  13.302  25.474  0.00  0.00    +0.166 C 
ATOM      5  H   UNL     1      -1.047  13.968  23.559  0.00  0.00    +0.163 HD
ATOM      6  H   UNL     1      -2.715  12.410  26.223  0.00  0.00    +0.159 HD
ATOM      7  H   UNL     1      -2.857  12.974  24.601  0.00  0.00    +0.159 HD
ATOM      8  H   UNL     1       0.623  13.438  26.708  0.00  0.00    +0.159 HD
ATOM      9  H   UNL     1      -0.747  12.674  27.413  0.00  0.00    +0.159 HD
ENDROOT
BRANCH   1  10
ATOM     10  C   UNL     1       0.863  14.462  24.365  0.00  0.00    +0.151 C 
BRANCH  10  11
ATOM     11  C   UNL     1       0.785  15.935  24.658  0.00  0.00    -0.028 A 
ATOM     12  C   UNL     1       0.092  16.797  23.795  0.00  0.00    +0.005 A 
ATOM     13  C   UNL     1       1.399  16.474  25.799  0.00  0.00    +0.005 A 
ATOM     14  C   UNL     1      -0.006  18.160  24.083  0.00  0.00    +0.000 A 
ATOM     15  C   UNL     1       1.299  17.836  26.082  0.00  0.00    +0.000 A 
ATOM     16  C   UNL     1       0.595  18.678  25.225  0.00  0.00    +0.000 A 
ENDBRANCH  10  11
ENDBRANCH   1  10
TORSDOF 2
ENDMDL
MODEL 4
REMARK VINA RESULT:    -5.171      1.350      2.251
REMARK INTER + INTRA:          -5.922
REMARK INTER:                  -5.782
REMARK INTRA:                  -0.140
REMARK UNBOUND:                -0.146
REMARK  Name = 1550473
REMARK  2 active torsions:
REMARK  status: ('A' for Active; 'I' for Inactive)
REMARK    1  A    between atoms: N_1  and  C_4
REMARK    2  A    between atoms: C_4  and  C_5
REMARK                            x       y       z     vdW  Elec       q    Type
REMARK                         _______ _______ _______ _____ _____    ______ ____
ROOT
ATOM      1  N   UNL     1       3.556   9.785 -12.181  0.00  0.00    -0.354 N 
ATOM      2  N   UNL     1       1.245   9.724 -12.041  0.00  0.00    -0.372 N 
ATOM      3  N   UNL     1       2.220  10.571 -13.938  0.00  0.00    -0.372 N 
ATOM      4  C   UNL     1       2.356  10.028 -12.723  0.00  0.00    +0.166 C 
ATOM      5  H   UNL     1       3.592   9.400 -11.244  0.00  0.00    +0.163 HD
ATOM      6  H   UNL     1       0.326   9.893 -12.426  0.00  0.00    +0.159 HD
ATOM      7  H   UNL     1       1.284   9.297 -11.123  0.00  0.00    +0.159 HD
ATOM      8  H   UNL     1       3.019  10.829 -14.501  0.00  0.00    +0.159 HD
ATOM      9  H   UNL     1       1.308  10.759 -14.335  0.00  0.00    +0.159 HD
ENDROOT
BRANCH   1  10
ATOM     10  C   UNL     1       4.826  10.029 -12.862  0.00  0.00    +0.151 C 
BRANCH  10  11
ATOM     11  C   UNL     1       5.734  10.803 -11.946  0.00  0.00    -0.028 A 
ATOM     12  C   UNL     1       7.124  10.778 -12.132  0.00  0.00    +0.005 A 
ATOM     13  C   UNL     1       5.210  11.569 -10.893  0.00  0.00    +0.005 A 
ATOM     14  C   UNL     1       7.965  11.520 -11.301  0.00  0.00    +0.000 A 
ATOM     15  C   UNL     1       6.053  12.308 -10.064  0.00  0.00    +0.000 A 
ATOM     16  C   UNL     1       7.430  12.286 -10.270  0.00  0.00    +0.000 A 
ENDBRANCH  10  11
ENDBRANCH   1  10
TORSDOF 2
ENDMDL
MODEL 5
REMARK VINA RESULT:    -5.026      3.277      4.513
REMARK INTER + INTRA:          -5.760
REMARK INTER:                  -5.629
REMARK INTRA:                  -0.131
REMARK UNBOUND:                -0.146
REMARK  Name = 1550473
REMARK  2 active torsions:
REMARK  status: ('A' for Active; 'I' for Inactive)
REMARK    1  A    between atoms: N_1  and  C_4
REMARK    2  A    between atoms: C_4  and  C_5
REMARK                            x       y       z     vdW  Elec       q    Type
REMARK                         _______ _______ _______ _____ _____    ______ ____
ROOT
ATOM      1  N   UNL     1       7.478  11.731  -8.662  0.00  0.00    -0.354 N 
ATOM      2  N   UNL     1       7.803  11.420  -6.390  0.00  0.00    -0.372 N 
ATOM      3  N   UNL     1       8.713  13.270  -7.397  0.00  0.00    -0.372 N 
ATOM      4  C   UNL     1       7.998  12.144  -7.498  0.00  0.00    +0.166 C 
ATOM      5  H   UNL     1       6.971  10.853  -8.677  0.00  0.00    +0.163 HD
ATOM      6  H   UNL     1       8.180  11.708  -5.497  0.00  0.00    +0.159 HD
ATOM      7  H   UNL     1       7.257  10.567  -6.400  0.00  0.00    +0.159 HD
ATOM      8  H   UNL     1       8.901  13.858  -8.198  0.00  0.00    +0.159 HD
ATOM      9  H   UNL     1       9.108  13.569  -6.515  0.00  0.00    +0.159 HD
ENDROOT
BRANCH   1  10
ATOM     10  C   UNL     1       7.586  12.474  -9.916  0.00  0.00    +0.151 C 
BRANCH  10  11
ATOM     11  C   UNL     1       8.017  11.535 -11.008  0.00  0.00    -0.028 A 
ATOM     12  C   UNL     1       7.100  11.101 -11.976  0.00  0.00    +0.005 A 
ATOM     13  C   UNL     1       9.343  11.080 -11.083  0.00  0.00    +0.005 A 
ATOM     14  C   UNL     1       7.507  10.252 -13.009  0.00  0.00    +0.000 A 
ATOM     15  C   UNL     1       9.745  10.233 -12.115  0.00  0.00    +0.000 A 
ATOM     16  C   UNL     1       8.828   9.821 -13.079  0.00  0.00    +0.000 A 
ENDBRANCH  10  11
ENDBRANCH   1  10
TORSDOF 2
ENDMDL
MODEL 6
REMARK VINA RESULT:    -4.968      1.447      2.451
REMARK INTER + INTRA:          -5.695
REMARK INTER:                  -5.575
REMARK INTRA:                  -0.120
REMARK UNBOUND:                -0.146
REMARK  Name = 1550473
REMARK  2 active torsions:
REMARK  status: ('A' for Active; 'I' for Inactive)
REMARK    1  A    between atoms: N_1  and  C_4
REMARK    2  A    between atoms: C_4  and  C_5
REMARK                            x       y       z     vdW  Elec       q    Type
REMARK                         _______ _______ _______ _____ _____    ______ ____
ROOT
ATOM      1  N   UNL     1       5.208  10.975 -11.492  0.00  0.00    -0.354 N 
ATOM      2  N   UNL     1       3.040  10.166 -11.582  0.00  0.00    -0.372 N 
ATOM      3  N   UNL     1       4.405   9.885 -13.405  0.00  0.00    -0.372 N 
ATOM      4  C   UNL     1       4.232  10.346 -12.162  0.00  0.00    +0.166 C 
ATOM      5  H   UNL     1       5.004  11.328 -10.564  0.00  0.00    +0.163 HD
ATOM      6  H   UNL     1       2.285   9.692 -12.061  0.00  0.00    +0.159 HD
ATOM      7  H   UNL     1       2.853  10.479 -10.637  0.00  0.00    +0.159 HD
ATOM      8  H   UNL     1       5.279   9.994 -13.900  0.00  0.00    +0.159 HD
ATOM      9  H   UNL     1       3.658   9.418 -13.905  0.00  0.00    +0.159 HD
ENDROOT
BRANCH   1  10
ATOM     10  C   UNL     1       6.559  11.175 -12.013  0.00  0.00    +0.151 C 
BRANCH  10  11
ATOM     11  C   UNL     1       7.495  11.432 -10.864  0.00  0.00    -0.028 A 
ATOM     12  C   UNL     1       7.010  11.946  -9.652  0.00  0.00    +0.005 A 
ATOM     13  C   UNL     1       8.867  11.159 -10.979  0.00  0.00    +0.005 A 
ATOM     14  C   UNL     1       7.874  12.158  -8.575  0.00  0.00    +0.000 A 
ATOM     15  C   UNL     1       9.726  11.372  -9.901  0.00  0.00    +0.000 A 
ATOM     16  C   UNL     1       9.229  11.869  -8.698  0.00  0.00    +0.000 A 
ENDBRANCH  10  11
ENDBRANCH   1  10
TORSDOF 2
ENDMDL
MODEL 7
REMARK VINA RESULT:    -4.878      3.521      4.849
REMARK INTER + INTRA:          -5.595
REMARK INTER:                  -5.467
REMARK INTRA:                  -0.128
REMARK UNBOUND:                -0.146
REMARK  Name = 1550473
REMARK  2 active torsions:
REMARK  status: ('A' for Active; 'I' for Inactive)
REMARK    1  A    between atoms: N_1  and  C_4
REMARK    2  A    between atoms: C_4  and  C_5
REMARK                            x       y       z     vdW  Elec       q    Type
REMARK                         _______ _______ _______ _____ _____    ______ ____
ROOT
ATOM      1  N   UNL     1       7.247  12.889  -8.290  0.00  0.00    -0.354 N 
ATOM      2  N   UNL     1       5.803  13.883  -6.776  0.00  0.00    -0.372 N 
ATOM      3  N   UNL     1       7.503  12.561  -5.983  0.00  0.00    -0.372 N 
ATOM      4  C   UNL     1       6.862  13.103  -7.024  0.00  0.00    +0.166 C 
ATOM      5  H   UNL     1       6.701  13.304  -9.036  0.00  0.00    +0.163 HD
ATOM      6  H   UNL     1       5.492  14.065  -5.831  0.00  0.00    +0.159 HD
ATOM      7  H   UNL     1       5.287  14.334  -7.521  0.00  0.00    +0.159 HD
ATOM      8  H   UNL     1       8.306  11.958  -6.104  0.00  0.00    +0.159 HD
ATOM      9  H   UNL     1       7.199  12.722  -5.031  0.00  0.00    +0.159 HD
ENDROOT
BRANCH   1  10
ATOM     10  C   UNL     1       8.419  12.100  -8.666  0.00  0.00    +0.151 C 
BRANCH  10  11
ATOM     11  C   UNL     1       8.243  11.599 -10.073  0.00  0.00    -0.028 A 
ATOM     12  C   UNL     1       9.327  11.049 -10.773  0.00  0.00    +0.005 A 
ATOM     13  C   UNL     1       6.995  11.668 -10.709  0.00  0.00    +0.005 A 
ATOM     14  C   UNL     1       9.157  10.556 -12.069  0.00  0.00    +0.000 A 
ATOM     15  C   UNL     1       6.829  11.175 -12.004  0.00  0.00    +0.000 A 
ATOM     16  C   UNL     1       7.910  10.617 -12.682  0.00  0.00    +0.000 A 
ENDBRANCH  10  11
ENDBRANCH   1  10
TORSDOF 2
ENDMDL
MODEL 8
REMARK VINA RESULT:    -4.872     32.151     33.507
REMARK INTER + INTRA:          -5.587
REMARK INTER:                  -5.470
REMARK INTRA:                  -0.118
REMARK UNBOUND:                -0.146
REMARK  Name = 1550473
REMARK  2 active torsions:
REMARK  status: ('A' for Active; 'I' for Inactive)
REMARK    1  A    between atoms: N_1  and  C_4
REMARK    2  A    between atoms: C_4  and  C_5
REMARK                            x       y       z     vdW  Elec       q    Type
REMARK                         _______ _______ _______ _____ _____    ______ ____
ROOT
ATOM      1  N   UNL     1      12.891  15.174  18.518  0.00  0.00    -0.354 N 
ATOM      2  N   UNL     1      11.654  13.962  16.979  0.00  0.00    -0.372 N 
ATOM      3  N   UNL     1      13.919  13.617  17.101  0.00  0.00    -0.372 N 
ATOM      4  C   UNL     1      12.832  14.258  17.542  0.00  0.00    +0.166 C 
ATOM      5  H   UNL     1      12.035  15.647  18.786  0.00  0.00    +0.163 HD
ATOM      6  H   UNL     1      11.579  13.273  16.244  0.00  0.00    +0.159 HD
ATOM      7  H   UNL     1      10.794  14.403  17.281  0.00  0.00    +0.159 HD
ATOM      8  H   UNL     1      14.839  13.799  17.480  0.00  0.00    +0.159 HD
ATOM      9  H   UNL     1      13.866  12.932  16.357  0.00  0.00    +0.159 HD
ENDROOT
BRANCH   1  10
ATOM     10  C   UNL     1      14.115  15.530  19.233  0.00  0.00    +0.151 C 
BRANCH  10  11
ATOM     11  C   UNL     1      13.750  16.169  20.545  0.00  0.00    -0.028 A 
ATOM     12  C   UNL     1      14.628  16.105  21.636  0.00  0.00    +0.005 A 
ATOM     13  C   UNL     1      12.529  16.843  20.701  0.00  0.00    +0.005 A 
ATOM     14  C   UNL     1      14.302  16.724  22.846  0.00  0.00    +0.000 A 
ATOM     15  C   UNL     1      12.207  17.459  21.910  0.00  0.00    +0.000 A 
ATOM     16  C   UNL     1      13.095  17.401  22.982  0.00  0.00    +0.000 A 
ENDBRANCH  10  11
ENDBRANCH   1  10
TORSDOF 2
ENDMDL
MODEL 9
REMARK VINA RESULT:    -4.733     24.568     25.182
REMARK INTER + INTRA:          -5.433
REMARK INTER:                  -5.309
REMARK INTRA:                  -0.124
REMARK UNBOUND:                -0.146
REMARK  Name = 1550473
REMARK  2 active torsions:
REMARK  status: ('A' for Active; 'I' for Inactive)
REMARK    1  A    between atoms: N_1  and  C_4
REMARK    2  A    between atoms: C_4  and  C_5
REMARK                            x       y       z     vdW  Elec       q    Type
REMARK                         _______ _______ _______ _____ _____    ______ ____
ROOT
ATOM      1  N   UNL     1       8.169  -7.159   3.177  0.00  0.00    -0.354 N 
ATOM      2  N   UNL     1       9.927  -5.653   3.101  0.00  0.00    -0.372 N 
ATOM      3  N   UNL     1       9.615  -7.085   1.335  0.00  0.00    -0.372 N 
ATOM      4  C   UNL     1       9.226  -6.644   2.536  0.00  0.00    +0.166 C 
ATOM      5  H   UNL     1       7.943  -6.801   4.098  0.00  0.00    +0.163 HD
ATOM      6  H   UNL     1      10.727  -5.242   2.639  0.00  0.00    +0.159 HD
ATOM      7  H   UNL     1       9.672  -5.266   4.001  0.00  0.00    +0.159 HD
ATOM      8  H   UNL     1       9.133  -7.834   0.857  0.00  0.00    +0.159 HD
ATOM      9  H   UNL     1      10.421  -6.694   0.862  0.00  0.00    +0.159 HD
ENDROOT
BRANCH   1  10
ATOM     10  C   UNL     1       7.307  -8.202   2.625  0.00  0.00    +0.151 C 
BRANCH  10  11
ATOM     11  C   UNL     1       6.478  -8.791   3.733  0.00  0.00    -0.028 A 
ATOM     12  C   UNL     1       6.890  -8.677   5.069  0.00  0.00    +0.005 A 
ATOM     13  C   UNL     1       5.276  -9.460   3.454  0.00  0.00    +0.005 A 
ATOM     14  C   UNL     1       6.105  -9.198   6.101  0.00  0.00    +0.000 A 
ATOM     15  C   UNL     1       4.495  -9.979   4.487  0.00  0.00    +0.000 A 
ATOM     16  C   UNL     1       4.909  -9.845   5.810  0.00  0.00    +0.000 A 
ENDBRANCH  10  11
ENDBRANCH   1  10
TORSDOF 2
ENDMDL
