MODEL 1
REMARK VINA RESULT:    -4.871      0.000      0.000
REMARK INTER + INTRA:          -5.547
REMARK INTER:                  -5.440
REMARK INTRA:                  -0.107
REMARK UNBOUND:                -0.107
REMARK  Name = 1550473
REMARK  2 active torsions:
REMARK  status: ('A' for Active; 'I' for Inactive)
REMARK    1  A    between atoms: N_1  and  C_4
REMARK    2  A    between atoms: C_4  and  C_5
REMARK                            x       y       z     vdW  Elec       q    Type
REMARK                         _______ _______ _______ _____ _____    ______ ____
ROOT
ATOM      1  N   UNL     1      11.927 -15.995  -7.507  0.00  0.00    -0.354 N 
ATOM      2  N   UNL     1      12.504 -15.325  -9.648  0.00  0.00    -0.372 N 
ATOM      3  N   UNL     1      11.901 -17.510  -9.294  0.00  0.00    -0.372 N 
ATOM      4  C   UNL     1      12.107 -16.284  -8.803  0.00  0.00    +0.166 C 
ATOM      5  H   UNL     1      12.129 -15.053  -7.192  0.00  0.00    +0.163 HD
ATOM      6  H   UNL     1      12.644 -15.512 -10.632  0.00  0.00    +0.159 HD
ATOM      7  H   UNL     1      12.660 -14.373  -9.338  0.00  0.00    +0.159 HD
ATOM      8  H   UNL     1      11.606 -18.280  -8.708  0.00  0.00    +0.159 HD
ATOM      9  H   UNL     1      12.047 -17.720 -10.274  0.00  0.00    +0.159 HD
ENDROOT
BRANCH   1  10
ATOM     10  C   UNL     1      11.445 -16.954  -6.515  0.00  0.00    +0.151 C 
BRANCH  10  11
ATOM     11  C   UNL     1       9.998 -16.671  -6.222  0.00  0.00    -0.028 A 
ATOM     12  C   UNL     1       9.235 -17.575  -5.467  0.00  0.00    +0.005 A 
ATOM     13  C   UNL     1       9.384 -15.500  -6.691  0.00  0.00    +0.005 A 
ATOM     14  C   UNL     1       7.898 -17.299  -5.169  0.00  0.00    +0.000 A 
ATOM     15  C   UNL     1       8.049 -15.229  -6.393  0.00  0.00    +0.000 A 
ATOM     16  C   UNL     1       7.307 -16.127  -5.630  0.00  0.00    +0.000 A 
ENDBRANCH  10  11
ENDBRANCH   1  10
TORSDOF 2
ENDMDL
MODEL 2
REMARK VINA RESULT:    -4.864     16.682     18.127
REMARK INTER + INTRA:          -5.540
REMARK INTER:                  -5.411
REMARK INTRA:                  -0.129
REMARK UNBOUND:                -0.107
REMARK  Name = 1550473
REMARK  2 active torsions:
REMARK  status: ('A' for Active; 'I' for Inactive)
REMARK    1  A    between atoms: N_1  and  C_4
REMARK    2  A    between atoms: C_4  and  C_5
REMARK                            x       y       z     vdW  Elec       q    Type
REMARK                         _______ _______ _______ _____ _____    ______ ____
ROOT
ATOM      1  N   UNL     1      15.479  -1.770 -10.749  0.00  0.00    -0.354 N 
ATOM      2  N   UNL     1      13.665  -3.125 -10.260  0.00  0.00    -0.372 N 
ATOM      3  N   UNL     1      13.666  -1.938 -12.225  0.00  0.00    -0.372 N 
ATOM      4  C   UNL     1      14.281  -2.268 -11.083  0.00  0.00    +0.166 C 
ATOM      5  H   UNL     1      15.878  -2.035  -9.856  0.00  0.00    +0.163 HD
ATOM      6  H   UNL     1      12.762  -3.519 -10.488  0.00  0.00    +0.159 HD
ATOM      7  H   UNL     1      14.087  -3.424  -9.390  0.00  0.00    +0.159 HD
ATOM      8  H   UNL     1      14.075  -1.292 -12.886  0.00  0.00    +0.159 HD
ATOM      9  H   UNL     1      12.757  -2.314 -12.464  0.00  0.00    +0.159 HD
ENDROOT
BRANCH   1  10
ATOM     10  C   UNL     1      16.258  -0.872 -11.599  0.00  0.00    +0.151 C 
BRANCH  10  11
ATOM     11  C   UNL     1      16.620   0.358 -10.813  0.00  0.00    -0.028 A 
ATOM     12  C   UNL     1      15.940   1.566 -11.025  0.00  0.00    +0.005 A 
ATOM     13  C   UNL     1      17.640   0.320  -9.849  0.00  0.00    +0.005 A 
ATOM     14  C   UNL     1      16.256   2.700 -10.274  0.00  0.00    +0.000 A 
ATOM     15  C   UNL     1      17.953   1.455  -9.102  0.00  0.00    +0.000 A 
ATOM     16  C   UNL     1      17.259   2.644  -9.313  0.00  0.00    +0.000 A 
ENDBRANCH  10  11
ENDBRANCH   1  10
TORSDOF 2
ENDMDL
MODEL 3
REMARK VINA RESULT:    -4.689      0.978      2.028
REMARK INTER + INTRA:          -5.344
REMARK INTER:                  -5.231
REMARK INTRA:                  -0.113
REMARK UNBOUND:                -0.107
REMARK  Name = 1550473
REMARK  2 active torsions:
REMARK  status: ('A' for Active; 'I' for Inactive)
REMARK    1  A    between atoms: N_1  and  C_4
REMARK    2  A    between atoms: C_4  and  C_5
REMARK                            x       y       z     vdW  Elec       q    Type
REMARK                         _______ _______ _______ _____ _____    ______ ____
ROOT
ATOM      1  N   UNL     1      11.518 -17.299  -8.594  0.00  0.00    -0.354 N 
ATOM      2  N   UNL     1      12.023 -18.307 -10.616  0.00  0.00    -0.372 N 
ATOM      3  N   UNL     1      12.515 -16.084 -10.332  0.00  0.00    -0.372 N 
ATOM      4  C   UNL     1      12.016 -17.221  -9.835  0.00  0.00    +0.166 C 
ATOM      5  H   UNL     1      11.127 -18.182  -8.286  0.00  0.00    +0.163 HD
ATOM      6  H   UNL     1      12.395 -18.280 -11.556  0.00  0.00    +0.159 HD
ATOM      7  H   UNL     1      11.673 -19.200 -10.291  0.00  0.00    +0.159 HD
ATOM      8  H   UNL     1      12.534 -15.228  -9.795  0.00  0.00    +0.159 HD
ATOM      9  H   UNL     1      12.882 -16.034 -11.274  0.00  0.00    +0.159 HD
ENDROOT
BRANCH   1  10
ATOM     10  C   UNL     1      11.513 -16.188  -7.643  0.00  0.00    +0.151 C 
BRANCH  10  11
ATOM     11  C   UNL     1      10.198 -16.172  -6.913  0.00  0.00    -0.028 A 
ATOM     12  C   UNL     1       9.402 -15.017  -6.904  0.00  0.00    +0.005 A 
ATOM     13  C   UNL     1       9.740 -17.311  -6.233  0.00  0.00    +0.005 A 
ATOM     14  C   UNL     1       8.167 -15.012  -6.252  0.00  0.00    +0.000 A 
ATOM     15  C   UNL     1       8.507 -17.301  -5.581  0.00  0.00    +0.000 A 
ATOM     16  C   UNL     1       7.720 -16.152  -5.593  0.00  0.00    +0.000 A 
ENDBRANCH  10  11
ENDBRANCH   1  10
TORSDOF 2
ENDMDL
MODEL 4
REMARK VINA RESULT:    -4.684     33.253     34.225
REMARK INTER + INTRA:          -5.339
REMARK INTER:                  -5.218
REMARK INTRA:                  -0.121
REMARK UNBOUND:                -0.107
REMARK  Name = 1550473
REMARK  2 active torsions:
REMARK  status: ('A' for Active; 'I' for Inactive)
REMARK    1  A    between atoms: N_1  and  C_4
REMARK    2  A    between atoms: C_4  and  C_5
REMARK                            x       y       z     vdW  Elec       q    Type
REMARK                         _______ _______ _______ _____ _____    ______ ____
ROOT
ATOM      1  N   UNL     1     -10.539   9.146 -15.045  0.00  0.00    -0.354 N 
ATOM      2  N   UNL     1      -8.460   9.676 -15.918  0.00  0.00    -0.372 N 
ATOM      3  N   UNL     1      -9.624   7.914 -16.817  0.00  0.00    -0.372 N 
ATOM      4  C   UNL     1      -9.555   8.906 -15.922  0.00  0.00    +0.166 C 
ATOM      5  H   UNL     1     -10.413   9.894 -14.373  0.00  0.00    +0.163 HD
ATOM      6  H   UNL     1      -7.703   9.522 -16.571  0.00  0.00    +0.159 HD
ATOM      7  H   UNL     1      -8.357  10.452 -15.276  0.00  0.00    +0.159 HD
ATOM      8  H   UNL     1     -10.420   7.294 -16.868  0.00  0.00    +0.159 HD
ATOM      9  H   UNL     1      -8.871   7.737 -17.470  0.00  0.00    +0.159 HD
ENDROOT
BRANCH   1  10
ATOM     10  C   UNL     1     -11.795   8.400 -15.002  0.00  0.00    +0.151 C 
BRANCH  10  11
ATOM     11  C   UNL     1     -12.517   8.726 -13.723  0.00  0.00    -0.028 A 
ATOM     12  C   UNL     1     -13.909   8.581 -13.634  0.00  0.00    +0.005 A 
ATOM     13  C   UNL     1     -11.813   9.176 -12.596  0.00  0.00    +0.005 A 
ATOM     14  C   UNL     1     -14.576   8.855 -12.438  0.00  0.00    +0.000 A 
ATOM     15  C   UNL     1     -12.482   9.450 -11.403  0.00  0.00    +0.000 A 
ATOM     16  C   UNL     1     -13.863   9.287 -11.324  0.00  0.00    +0.000 A 
ENDBRANCH  10  11
ENDBRANCH   1  10
TORSDOF 2
ENDMDL
MODEL 5
REMARK VINA RESULT:    -4.676     33.238     34.584
REMARK INTER + INTRA:          -5.330
REMARK INTER:                  -5.202
REMARK INTRA:                  -0.128
REMARK UNBOUND:                -0.107
REMARK  Name = 1550473
REMARK  2 active torsions:
REMARK  status: ('A' for Active; 'I' for Inactive)
REMARK    1  A    between atoms: N_1  and  C_4
REMARK    2  A    between atoms: C_4  and  C_5
REMARK                            x       y       z     vdW  Elec       q    Type
REMARK                         _______ _______ _______ _____ _____    ______ ____
ROOT
ATOM      1  N   UNL     1     -10.080   9.096 -14.132  0.00  0.00    -0.354 N 
ATOM      2  N   UNL     1      -8.479   9.330 -15.789  0.00  0.00    -0.372 N 
ATOM      3  N   UNL     1     -10.480   8.336 -16.313  0.00  0.00    -0.372 N 
ATOM      4  C   UNL     1      -9.692   8.918 -15.402  0.00  0.00    +0.166 C 
ATOM      5  H   UNL     1      -9.425   9.515 -13.483  0.00  0.00    +0.163 HD
ATOM      6  H   UNL     1      -8.160   9.212 -16.741  0.00  0.00    +0.159 HD
ATOM      7  H   UNL     1      -7.844   9.791 -15.149  0.00  0.00    +0.159 HD
ATOM      8  H   UNL     1     -11.405   7.998 -16.083  0.00  0.00    +0.159 HD
ATOM      9  H   UNL     1     -10.174   8.199 -17.268  0.00  0.00    +0.159 HD
ENDROOT
BRANCH   1  10
ATOM     10  C   UNL     1     -11.401   8.731 -13.622  0.00  0.00    +0.151 C 
BRANCH  10  11
ATOM     11  C   UNL     1     -11.869   9.795 -12.667  0.00  0.00    -0.028 A 
ATOM     12  C   UNL     1     -11.859  11.145 -13.045  0.00  0.00    +0.005 A 
ATOM     13  C   UNL     1     -12.330   9.458 -11.385  0.00  0.00    +0.005 A 
ATOM     14  C   UNL     1     -12.322  12.131 -12.170  0.00  0.00    +0.000 A 
ATOM     15  C   UNL     1     -12.791  10.445 -10.514  0.00  0.00    +0.000 A 
ATOM     16  C   UNL     1     -12.789  11.781 -10.908  0.00  0.00    +0.000 A 
ENDBRANCH  10  11
ENDBRANCH   1  10
TORSDOF 2
ENDMDL
MODEL 6
REMARK VINA RESULT:    -4.659     21.434     22.541
REMARK INTER + INTRA:          -5.311
REMARK INTER:                  -5.171
REMARK INTRA:                  -0.140
REMARK UNBOUND:                -0.107
REMARK  Name = 1550473
REMARK  2 active torsions:
REMARK  status: ('A' for Active; 'I' for Inactive)
REMARK    1  A    between atoms: N_1  and  C_4
REMARK    2  A    between atoms: C_4  and  C_5
REMARK                            x       y       z     vdW  Elec       q    Type
REMARK                         _______ _______ _______ _____ _____    ______ ____
ROOT
ATOM      1  N   UNL     1       0.711   2.119 -14.683  0.00  0.00    -0.354 N 
ATOM      2  N   UNL     1       1.775   3.024 -16.530  0.00  0.00    -0.372 N 
ATOM      3  N   UNL     1       3.008   2.582 -14.646  0.00  0.00    -0.372 N 
ATOM      4  C   UNL     1       1.826   2.569 -15.272  0.00  0.00    +0.166 C 
ATOM      5  H   UNL     1      -0.159   2.163 -15.201  0.00  0.00    +0.163 HD
ATOM      6  H   UNL     1       2.600   3.367 -17.002  0.00  0.00    +0.159 HD
ATOM      7  H   UNL     1       0.912   3.025 -17.061  0.00  0.00    +0.159 HD
ATOM      8  H   UNL     1       3.113   2.257 -13.694  0.00  0.00    +0.159 HD
ATOM      9  H   UNL     1       3.843   2.932 -15.098  0.00  0.00    +0.159 HD
ENDROOT
BRANCH   1  10
ATOM     10  C   UNL     1       0.670   1.552 -13.336  0.00  0.00    +0.151 C 
BRANCH  10  11
ATOM     11  C   UNL     1      -0.448   2.198 -12.565  0.00  0.00    -0.028 A 
ATOM     12  C   UNL     1      -0.935   3.459 -12.939  0.00  0.00    +0.005 A 
ATOM     13  C   UNL     1      -1.028   1.553 -11.462  0.00  0.00    +0.005 A 
ATOM     14  C   UNL     1      -1.993   4.047 -12.242  0.00  0.00    +0.000 A 
ATOM     15  C   UNL     1      -2.084   2.143 -10.768  0.00  0.00    +0.000 A 
ATOM     16  C   UNL     1      -2.568   3.389 -11.160  0.00  0.00    +0.000 A 
ENDBRANCH  10  11
ENDBRANCH   1  10
TORSDOF 2
ENDMDL
MODEL 7
REMARK VINA RESULT:    -4.627      2.071      2.661
REMARK INTER + INTRA:          -5.275
REMARK INTER:                  -5.104
REMARK INTRA:                  -0.171
REMARK UNBOUND:                -0.107
REMARK  Name = 1550473
REMARK  2 active torsions:
REMARK  status: ('A' for Active; 'I' for Inactive)
REMARK    1  A    between atoms: N_1  and  C_4
REMARK    2  A    between atoms: C_4  and  C_5
REMARK                            x       y       z     vdW  Elec       q    Type
REMARK                         _______ _______ _______ _____ _____    ______ ____
ROOT
ATOM      1  N   UNL     1      12.226 -16.268  -4.750  0.00  0.00    -0.354 N 
ATOM      2  N   UNL     1      13.550 -14.537  -3.966  0.00  0.00    -0.372 N 
ATOM      3  N   UNL     1      13.367 -14.855  -6.231  0.00  0.00    -0.372 N 
ATOM      4  C   UNL     1      13.040 -15.231  -4.991  0.00  0.00    +0.166 C 
ATOM      5  H   UNL     1      12.041 -16.521  -3.786  0.00  0.00    +0.163 HD
ATOM      6  H   UNL     1      14.164 -13.748  -4.117  0.00  0.00    +0.159 HD
ATOM      7  H   UNL     1      13.327 -14.764  -3.005  0.00  0.00    +0.159 HD
ATOM      8  H   UNL     1      13.020 -15.342  -7.047  0.00  0.00    +0.159 HD
ATOM      9  H   UNL     1      13.990 -14.075  -6.402  0.00  0.00    +0.159 HD
ENDROOT
BRANCH   1  10
ATOM     10  C   UNL     1      11.575 -17.056  -5.795  0.00  0.00    +0.151 C 
BRANCH  10  11
ATOM     11  C   UNL     1      10.103 -16.747  -5.798  0.00  0.00    -0.028 A 
ATOM     12  C   UNL     1       9.200 -17.580  -5.122  0.00  0.00    +0.005 A 
ATOM     13  C   UNL     1       9.607 -15.620  -6.471  0.00  0.00    +0.005 A 
ATOM     14  C   UNL     1       7.836 -17.276  -5.099  0.00  0.00    +0.000 A 
ATOM     15  C   UNL     1       8.245 -15.321  -6.447  0.00  0.00    +0.000 A 
ATOM     16  C   UNL     1       7.360 -16.148  -5.759  0.00  0.00    +0.000 A 
ENDBRANCH  10  11
ENDBRANCH   1  10
TORSDOF 2
ENDMDL
MODEL 8
REMARK VINA RESULT:    -4.470      3.299      4.826
REMARK INTER + INTRA:          -5.100
REMARK INTER:                  -4.951
REMARK INTRA:                  -0.149
REMARK UNBOUND:                -0.107
REMARK  Name = 1550473
REMARK  2 active torsions:
REMARK  status: ('A' for Active; 'I' for Inactive)
REMARK    1  A    between atoms: N_1  and  C_4
REMARK    2  A    between atoms: C_4  and  C_5
REMARK                            x       y       z     vdW  Elec       q    Type
REMARK                         _______ _______ _______ _____ _____    ______ ____
ROOT
ATOM      1  N   UNL     1       7.640 -17.481  -5.257  0.00  0.00    -0.354 N 
ATOM      2  N   UNL     1       7.742 -19.324  -3.859  0.00  0.00    -0.372 N 
ATOM      3  N   UNL     1       8.990 -17.470  -3.342  0.00  0.00    -0.372 N 
ATOM      4  C   UNL     1       8.125 -18.078  -4.161  0.00  0.00    +0.166 C 
ATOM      5  H   UNL     1       7.011 -18.007  -5.853  0.00  0.00    +0.163 HD
ATOM      6  H   UNL     1       8.089 -19.799  -3.036  0.00  0.00    +0.159 HD
ATOM      7  H   UNL     1       7.078 -19.831  -4.432  0.00  0.00    +0.159 HD
ATOM      8  H   UNL     1       9.324 -16.531  -3.517  0.00  0.00    +0.159 HD
ATOM      9  H   UNL     1       9.358 -17.933  -2.520  0.00  0.00    +0.159 HD
ENDROOT
BRANCH   1  10
ATOM     10  C   UNL     1       7.952 -16.107  -5.646  0.00  0.00    +0.151 C 
BRANCH  10  11
ATOM     11  C   UNL     1       9.167 -16.111  -6.533  0.00  0.00    -0.028 A 
ATOM     12  C   UNL     1       9.199 -16.900  -7.693  0.00  0.00    +0.005 A 
ATOM     13  C   UNL     1      10.286 -15.324  -6.222  0.00  0.00    +0.005 A 
ATOM     14  C   UNL     1      10.315 -16.881  -8.532  0.00  0.00    +0.000 A 
ATOM     15  C   UNL     1      11.399 -15.309  -7.063  0.00  0.00    +0.000 A 
ATOM     16  C   UNL     1      11.412 -16.086  -8.219  0.00  0.00    +0.000 A 
ENDBRANCH  10  11
ENDBRANCH   1  10
TORSDOF 2
ENDMDL
MODEL 9
REMARK VINA RESULT:    -4.464      3.964      5.442
REMARK INTER + INTRA:          -5.093
REMARK INTER:                  -5.024
REMARK INTRA:                  -0.069
REMARK UNBOUND:                -0.107
REMARK  Name = 1550473
REMARK  2 active torsions:
REMARK  status: ('A' for Active; 'I' for Inactive)
REMARK    1  A    between atoms: N_1  and  C_4
REMARK    2  A    between atoms: C_4  and  C_5
REMARK                            x       y       z     vdW  Elec       q    Type
REMARK                         _______ _______ _______ _____ _____    ______ ____
ROOT
ATOM      1  N   UNL     1       7.520 -18.872  -3.953  0.00  0.00    -0.354 N 
ATOM      2  N   UNL     1       8.569 -20.280  -2.443  0.00  0.00    -0.372 N 
ATOM      3  N   UNL     1       8.257 -18.079  -1.875  0.00  0.00    -0.372 N 
ATOM      4  C   UNL     1       8.109 -19.066  -2.766  0.00  0.00    +0.166 C 
ATOM      5  H   UNL     1       7.465 -19.654  -4.596  0.00  0.00    +0.163 HD
ATOM      6  H   UNL     1       9.015 -20.457  -1.553  0.00  0.00    +0.159 HD
ATOM      7  H   UNL     1       8.472 -21.071  -3.069  0.00  0.00    +0.159 HD
ATOM      8  H   UNL     1       7.937 -17.138  -2.060  0.00  0.00    +0.159 HD
ATOM      9  H   UNL     1       8.711 -18.234  -0.984  0.00  0.00    +0.159 HD
ENDROOT
BRANCH   1  10
ATOM     10  C   UNL     1       6.937 -17.602  -4.380  0.00  0.00    +0.151 C 
BRANCH  10  11
ATOM     11  C   UNL     1       7.907 -16.895  -5.286  0.00  0.00    -0.028 A 
ATOM     12  C   UNL     1       7.645 -15.592  -5.732  0.00  0.00    +0.005 A 
ATOM     13  C   UNL     1       9.094 -17.522  -5.696  0.00  0.00    +0.005 A 
ATOM     14  C   UNL     1       8.561 -14.924  -6.550  0.00  0.00    +0.000 A 
ATOM     15  C   UNL     1      10.005 -16.852  -6.513  0.00  0.00    +0.000 A 
ATOM     16  C   UNL     1       9.739 -15.553  -6.937  0.00  0.00    +0.000 A 
ENDBRANCH  10  11
ENDBRANCH   1  10
TORSDOF 2
ENDMDL
