MODEL 1
REMARK VINA RESULT:    -5.898      0.000      0.000
REMARK INTER + INTRA:          -6.771
REMARK INTER:                  -6.588
REMARK INTRA:                  -0.183
REMARK UNBOUND:                -0.183
REMARK  Name = 1550473
REMARK  2 active torsions:
REMARK  status: ('A' for Active; 'I' for Inactive)
REMARK    1  A    between atoms: N_1  and  C_4
REMARK    2  A    between atoms: C_4  and  C_5
REMARK                            x       y       z     vdW  Elec       q    Type
REMARK                         _______ _______ _______ _____ _____    ______ ____
ROOT
ATOM      1  N   UNL     1      -2.081   1.394 -16.238  0.00  0.00    -0.354 N 
ATOM      2  N   UNL     1      -3.678   0.305 -17.514  0.00  0.00    -0.372 N 
ATOM      3  N   UNL     1      -3.084  -0.586 -15.485  0.00  0.00    -0.372 N 
ATOM      4  C   UNL     1      -2.937   0.376 -16.402  0.00  0.00    +0.166 C 
ATOM      5  H   UNL     1      -1.995   2.074 -16.984  0.00  0.00    +0.163 HD
ATOM      6  H   UNL     1      -4.335  -0.449 -17.664  0.00  0.00    +0.159 HD
ATOM      7  H   UNL     1      -3.623   1.011 -18.237  0.00  0.00    +0.159 HD
ATOM      8  H   UNL     1      -2.550  -0.593 -14.626  0.00  0.00    +0.159 HD
ATOM      9  H   UNL     1      -3.728  -1.355 -15.622  0.00  0.00    +0.159 HD
ENDROOT
BRANCH   1  10
ATOM     10  C   UNL     1      -1.268   1.593 -15.040  0.00  0.00    +0.151 C 
BRANCH  10  11
ATOM     11  C   UNL     1      -1.949   2.590 -14.144  0.00  0.00    -0.028 A 
ATOM     12  C   UNL     1      -2.573   2.173 -12.959  0.00  0.00    +0.005 A 
ATOM     13  C   UNL     1      -1.969   3.955 -14.471  0.00  0.00    +0.005 A 
ATOM     14  C   UNL     1      -3.179   3.103 -12.111  0.00  0.00    +0.000 A 
ATOM     15  C   UNL     1      -2.576   4.880 -13.622  0.00  0.00    +0.000 A 
ATOM     16  C   UNL     1      -3.179   4.454 -12.441  0.00  0.00    +0.000 A 
ENDBRANCH  10  11
ENDBRANCH   1  10
TORSDOF 2
ENDMDL
MODEL 2
REMARK VINA RESULT:    -5.839      2.597      3.606
REMARK INTER + INTRA:          -6.704
REMARK INTER:                  -6.566
REMARK INTRA:                  -0.138
REMARK UNBOUND:                -0.183
REMARK  Name = 1550473
REMARK  2 active torsions:
REMARK  status: ('A' for Active; 'I' for Inactive)
REMARK    1  A    between atoms: N_1  and  C_4
REMARK    2  A    between atoms: C_4  and  C_5
REMARK                            x       y       z     vdW  Elec       q    Type
REMARK                         _______ _______ _______ _____ _____    ______ ____
ROOT
ATOM      1  N   UNL     1      -2.274   3.961 -14.364  0.00  0.00    -0.354 N 
ATOM      2  N   UNL     1      -0.763   5.481 -15.242  0.00  0.00    -0.372 N 
ATOM      3  N   UNL     1      -0.405   3.240 -15.580  0.00  0.00    -0.372 N 
ATOM      4  C   UNL     1      -1.156   4.215 -15.057  0.00  0.00    +0.166 C 
ATOM      5  H   UNL     1      -2.782   4.743 -13.968  0.00  0.00    +0.163 HD
ATOM      6  H   UNL     1       0.075   5.703 -15.763  0.00  0.00    +0.159 HD
ATOM      7  H   UNL     1      -1.298   6.263 -14.884  0.00  0.00    +0.159 HD
ATOM      8  H   UNL     1      -0.644   2.263 -15.471  0.00  0.00    +0.159 HD
ATOM      9  H   UNL     1       0.443   3.442 -16.095  0.00  0.00    +0.159 HD
ENDROOT
BRANCH   1  10
ATOM     10  C   UNL     1      -2.818   2.621 -14.152  0.00  0.00    +0.151 C 
BRANCH  10  11
ATOM     11  C   UNL     1      -3.040   2.409 -12.680  0.00  0.00    -0.028 A 
ATOM     12  C   UNL     1      -2.928   1.128 -12.120  0.00  0.00    +0.005 A 
ATOM     13  C   UNL     1      -3.358   3.486 -11.838  0.00  0.00    +0.005 A 
ATOM     14  C   UNL     1      -3.105   0.935 -10.748  0.00  0.00    +0.000 A 
ATOM     15  C   UNL     1      -3.534   3.289 -10.468  0.00  0.00    +0.000 A 
ATOM     16  C   UNL     1      -3.405   2.014  -9.923  0.00  0.00    +0.000 A 
ENDBRANCH  10  11
ENDBRANCH   1  10
TORSDOF 2
ENDMDL
MODEL 3
REMARK VINA RESULT:    -5.825      1.466      2.714
REMARK INTER + INTRA:          -6.689
REMARK INTER:                  -6.553
REMARK INTRA:                  -0.136
REMARK UNBOUND:                -0.183
REMARK  Name = 1550473
REMARK  2 active torsions:
REMARK  status: ('A' for Active; 'I' for Inactive)
REMARK    1  A    between atoms: N_1  and  C_4
REMARK    2  A    between atoms: C_4  and  C_5
REMARK                            x       y       z     vdW  Elec       q    Type
REMARK                         _______ _______ _______ _____ _____    ______ ____
ROOT
ATOM      1  N   UNL     1      -1.476   1.224 -14.093  0.00  0.00    -0.354 N 
ATOM      2  N   UNL     1      -0.298   1.638 -16.044  0.00  0.00    -0.372 N 
ATOM      3  N   UNL     1      -2.492   0.981 -16.191  0.00  0.00    -0.372 N 
ATOM      4  C   UNL     1      -1.432   1.277 -15.431  0.00  0.00    +0.166 C 
ATOM      5  H   UNL     1      -0.630   1.432 -13.575  0.00  0.00    +0.163 HD
ATOM      6  H   UNL     1      -0.236   1.691 -17.052  0.00  0.00    +0.159 HD
ATOM      7  H   UNL     1       0.533   1.890 -15.522  0.00  0.00    +0.159 HD
ATOM      8  H   UNL     1      -3.375   0.695 -15.791  0.00  0.00    +0.159 HD
ATOM      9  H   UNL     1      -2.445   1.016 -17.202  0.00  0.00    +0.159 HD
ENDROOT
BRANCH   1  10
ATOM     10  C   UNL     1      -2.677   0.895 -13.327  0.00  0.00    +0.151 C 
BRANCH  10  11
ATOM     11  C   UNL     1      -2.959   2.007 -12.355  0.00  0.00    -0.028 A 
ATOM     12  C   UNL     1      -2.865   3.347 -12.759  0.00  0.00    +0.005 A 
ATOM     13  C   UNL     1      -3.327   1.727 -11.030  0.00  0.00    +0.005 A 
ATOM     14  C   UNL     1      -3.157   4.380 -11.864  0.00  0.00    +0.000 A 
ATOM     15  C   UNL     1      -3.617   2.761 -10.140  0.00  0.00    +0.000 A 
ATOM     16  C   UNL     1      -3.534   4.087 -10.558  0.00  0.00    +0.000 A 
ENDBRANCH  10  11
ENDBRANCH   1  10
TORSDOF 2
ENDMDL
MODEL 4
REMARK VINA RESULT:    -5.407      2.679      4.679
REMARK INTER + INTRA:          -6.222
REMARK INTER:                  -6.094
REMARK INTRA:                  -0.128
REMARK UNBOUND:                -0.183
REMARK  Name = 1550473
REMARK  2 active torsions:
REMARK  status: ('A' for Active; 'I' for Inactive)
REMARK    1  A    between atoms: N_1  and  C_4
REMARK    2  A    between atoms: C_4  and  C_5
REMARK                            x       y       z     vdW  Elec       q    Type
REMARK                         _______ _______ _______ _____ _____    ______ ____
ROOT
ATOM      1  N   UNL     1      -2.321   3.600 -14.072  0.00  0.00    -0.354 N 
ATOM      2  N   UNL     1      -2.734   5.752 -13.321  0.00  0.00    -0.372 N 
ATOM      3  N   UNL     1      -1.173   5.433 -14.973  0.00  0.00    -0.372 N 
ATOM      4  C   UNL     1      -2.071   4.915 -14.129  0.00  0.00    +0.166 C 
ATOM      5  H   UNL     1      -2.992   3.267 -13.389  0.00  0.00    +0.163 HD
ATOM      6  H   UNL     1      -2.569   6.749 -13.344  0.00  0.00    +0.159 HD
ATOM      7  H   UNL     1      -3.437   5.421 -12.672  0.00  0.00    +0.159 HD
ATOM      8  H   UNL     1      -0.635   4.855 -15.604  0.00  0.00    +0.159 HD
ATOM      9  H   UNL     1      -0.985   6.428 -15.002  0.00  0.00    +0.159 HD
ENDROOT
BRANCH   1  10
ATOM     10  C   UNL     1      -1.694   2.610 -14.945  0.00  0.00    +0.151 C 
BRANCH  10  11
ATOM     11  C   UNL     1      -2.599   1.415 -15.063  0.00  0.00    -0.028 A 
ATOM     12  C   UNL     1      -2.095   0.180 -15.497  0.00  0.00    +0.005 A 
ATOM     13  C   UNL     1      -3.961   1.509 -14.738  0.00  0.00    +0.005 A 
ATOM     14  C   UNL     1      -2.929  -0.938 -15.578  0.00  0.00    +0.000 A 
ATOM     15  C   UNL     1      -4.790   0.391 -14.821  0.00  0.00    +0.000 A 
ATOM     16  C   UNL     1      -4.274  -0.833 -15.238  0.00  0.00    +0.000 A 
ENDBRANCH  10  11
ENDBRANCH   1  10
TORSDOF 2
ENDMDL
MODEL 5
REMARK VINA RESULT:    -5.307      2.904      4.029
REMARK INTER + INTRA:          -6.110
REMARK INTER:                  -6.019
REMARK INTRA:                  -0.091
REMARK UNBOUND:                -0.183
REMARK  Name = 1550473
REMARK  2 active torsions:
REMARK  status: ('A' for Active; 'I' for Inactive)
REMARK    1  A    between atoms: N_1  and  C_4
REMARK    2  A    between atoms: C_4  and  C_5
REMARK                            x       y       z     vdW  Elec       q    Type
REMARK                         _______ _______ _______ _____ _____    ______ ____
ROOT
ATOM      1  N   UNL     1      -4.121   1.063 -11.896  0.00  0.00    -0.354 N 
ATOM      2  N   UNL     1      -4.156   0.981  -9.582  0.00  0.00    -0.372 N 
ATOM      3  N   UNL     1      -2.256   0.321 -10.686  0.00  0.00    -0.372 N 
ATOM      4  C   UNL     1      -3.508   0.788 -10.737  0.00  0.00    +0.166 C 
ATOM      5  H   UNL     1      -5.081   1.385 -11.868  0.00  0.00    +0.163 HD
ATOM      6  H   UNL     1      -3.718   0.786  -8.691  0.00  0.00    +0.159 HD
ATOM      7  H   UNL     1      -5.100   1.347  -9.555  0.00  0.00    +0.159 HD
ATOM      8  H   UNL     1      -1.715   0.148 -11.523  0.00  0.00    +0.159 HD
ATOM      9  H   UNL     1      -1.805   0.109  -9.805  0.00  0.00    +0.159 HD
ENDROOT
BRANCH   1  10
ATOM     10  C   UNL     1      -3.485   0.938 -13.207  0.00  0.00    +0.151 C 
BRANCH  10  11
ATOM     11  C   UNL     1      -2.907   2.269 -13.601  0.00  0.00    -0.028 A 
ATOM     12  C   UNL     1      -1.884   2.346 -14.557  0.00  0.00    +0.005 A 
ATOM     13  C   UNL     1      -3.383   3.458 -13.027  0.00  0.00    +0.005 A 
ATOM     14  C   UNL     1      -1.367   3.584 -14.946  0.00  0.00    +0.000 A 
ATOM     15  C   UNL     1      -2.864   4.693 -13.417  0.00  0.00    +0.000 A 
ATOM     16  C   UNL     1      -1.858   4.755 -14.378  0.00  0.00    +0.000 A 
ENDBRANCH  10  11
ENDBRANCH   1  10
TORSDOF 2
ENDMDL
MODEL 6
REMARK VINA RESULT:    -5.272      3.047      4.647
REMARK INTER + INTRA:          -6.072
REMARK INTER:                  -5.908
REMARK INTRA:                  -0.164
REMARK UNBOUND:                -0.183
REMARK  Name = 1550473
REMARK  2 active torsions:
REMARK  status: ('A' for Active; 'I' for Inactive)
REMARK    1  A    between atoms: N_1  and  C_4
REMARK    2  A    between atoms: C_4  and  C_5
REMARK                            x       y       z     vdW  Elec       q    Type
REMARK                         _______ _______ _______ _____ _____    ______ ____
ROOT
ATOM      1  N   UNL     1      -4.402   3.717 -12.678  0.00  0.00    -0.354 N 
ATOM      2  N   UNL     1      -5.603   5.628 -13.200  0.00  0.00    -0.372 N 
ATOM      3  N   UNL     1      -3.316   5.669 -13.389  0.00  0.00    -0.372 N 
ATOM      4  C   UNL     1      -4.430   4.993 -13.086  0.00  0.00    +0.166 C 
ATOM      5  H   UNL     1      -5.278   3.271 -12.434  0.00  0.00    +0.163 HD
ATOM      6  H   UNL     1      -5.655   6.589 -13.508  0.00  0.00    +0.159 HD
ATOM      7  H   UNL     1      -6.481   5.165 -12.999  0.00  0.00    +0.159 HD
ATOM      8  H   UNL     1      -2.399   5.249 -13.318  0.00  0.00    +0.159 HD
ATOM      9  H   UNL     1      -3.348   6.635 -13.688  0.00  0.00    +0.159 HD
ENDROOT
BRANCH   1  10
ATOM     10  C   UNL     1      -3.182   2.919 -12.572  0.00  0.00    +0.151 C 
BRANCH  10  11
ATOM     11  C   UNL     1      -2.976   2.164 -13.856  0.00  0.00    -0.028 A 
ATOM     12  C   UNL     1      -4.051   1.517 -14.482  0.00  0.00    +0.005 A 
ATOM     13  C   UNL     1      -1.709   2.097 -14.455  0.00  0.00    +0.005 A 
ATOM     14  C   UNL     1      -3.867   0.840 -15.690  0.00  0.00    +0.000 A 
ATOM     15  C   UNL     1      -1.528   1.420 -15.662  0.00  0.00    +0.000 A 
ATOM     16  C   UNL     1      -2.608   0.794 -16.280  0.00  0.00    +0.000 A 
ENDBRANCH  10  11
ENDBRANCH   1  10
TORSDOF 2
ENDMDL
MODEL 7
REMARK VINA RESULT:    -5.233     16.008     17.418
REMARK INTER + INTRA:          -6.027
REMARK INTER:                  -5.858
REMARK INTRA:                  -0.169
REMARK UNBOUND:                -0.183
REMARK  Name = 1550473
REMARK  2 active torsions:
REMARK  status: ('A' for Active; 'I' for Inactive)
REMARK    1  A    between atoms: N_1  and  C_4
REMARK    2  A    between atoms: C_4  and  C_5
REMARK                            x       y       z     vdW  Elec       q    Type
REMARK                         _______ _______ _______ _____ _____    ______ ____
ROOT
ATOM      1  N   UNL     1       2.586   9.830  -2.135  0.00  0.00    -0.354 N 
ATOM      2  N   UNL     1       4.169   8.259  -2.760  0.00  0.00    -0.372 N 
ATOM      3  N   UNL     1       3.497   8.346  -0.568  0.00  0.00    -0.372 N 
ATOM      4  C   UNL     1       3.407   8.822  -1.814  0.00  0.00    +0.166 C 
ATOM      5  H   UNL     1       2.586  10.165  -3.092  0.00  0.00    +0.163 HD
ATOM      6  H   UNL     1       4.795   7.494  -2.548  0.00  0.00    +0.159 HD
ATOM      7  H   UNL     1       4.133   8.565  -3.725  0.00  0.00    +0.159 HD
ATOM      8  H   UNL     1       2.953   8.730   0.193  0.00  0.00    +0.159 HD
ATOM      9  H   UNL     1       4.126   7.588  -0.334  0.00  0.00    +0.159 HD
ENDROOT
BRANCH   1  10
ATOM     10  C   UNL     1       1.675  10.476  -1.191  0.00  0.00    +0.151 C 
BRANCH  10  11
ATOM     11  C   UNL     1       2.333  11.711  -0.640  0.00  0.00    -0.028 A 
ATOM     12  C   UNL     1       2.824  11.729   0.673  0.00  0.00    +0.005 A 
ATOM     13  C   UNL     1       2.474  12.863  -1.428  0.00  0.00    +0.005 A 
ATOM     14  C   UNL     1       3.463  12.866   1.176  0.00  0.00    +0.000 A 
ATOM     15  C   UNL     1       3.111  13.996  -0.923  0.00  0.00    +0.000 A 
ATOM     16  C   UNL     1       3.607  13.996   0.378  0.00  0.00    +0.000 A 
ENDBRANCH  10  11
ENDBRANCH   1  10
TORSDOF 2
ENDMDL
MODEL 8
REMARK VINA RESULT:    -5.203     19.874     20.737
REMARK INTER + INTRA:          -5.995
REMARK INTER:                  -5.878
REMARK INTRA:                  -0.116
REMARK UNBOUND:                -0.183
REMARK  Name = 1550473
REMARK  2 active torsions:
REMARK  status: ('A' for Active; 'I' for Inactive)
REMARK    1  A    between atoms: N_1  and  C_4
REMARK    2  A    between atoms: C_4  and  C_5
REMARK                            x       y       z     vdW  Elec       q    Type
REMARK                         _______ _______ _______ _____ _____    ______ ____
ROOT
ATOM      1  N   UNL     1       8.183  -5.439   1.377  0.00  0.00    -0.354 N 
ATOM      2  N   UNL     1       7.514  -6.494  -0.573  0.00  0.00    -0.372 N 
ATOM      3  N   UNL     1       9.754  -6.160  -0.206  0.00  0.00    -0.372 N 
ATOM      4  C   UNL     1       8.491  -6.024   0.212  0.00  0.00    +0.166 C 
ATOM      5  H   UNL     1       7.205  -5.340   1.622  0.00  0.00    +0.163 HD
ATOM      6  H   UNL     1       7.716  -6.943  -1.456  0.00  0.00    +0.159 HD
ATOM      7  H   UNL     1       6.539  -6.435  -0.304  0.00  0.00    +0.159 HD
ATOM      8  H   UNL     1      10.537  -5.821   0.337  0.00  0.00    +0.159 HD
ATOM      9  H   UNL     1       9.976  -6.596  -1.092  0.00  0.00    +0.159 HD
ENDROOT
BRANCH   1  10
ATOM     10  C   UNL     1       9.175  -4.942   2.329  0.00  0.00    +0.151 C 
BRANCH  10  11
ATOM     11  C   UNL     1       9.175  -3.439   2.299  0.00  0.00    -0.028 A 
ATOM     12  C   UNL     1      10.134  -2.712   3.019  0.00  0.00    +0.005 A 
ATOM     13  C   UNL     1       8.223  -2.735   1.546  0.00  0.00    +0.005 A 
ATOM     14  C   UNL     1      10.153  -1.316   2.967  0.00  0.00    +0.000 A 
ATOM     15  C   UNL     1       8.244  -1.341   1.497  0.00  0.00    +0.000 A 
ATOM     16  C   UNL     1       9.211  -0.632   2.206  0.00  0.00    +0.000 A 
ENDBRANCH  10  11
ENDBRANCH   1  10
TORSDOF 2
ENDMDL
MODEL 9
REMARK VINA RESULT:    -5.098     15.984     16.596
REMARK INTER + INTRA:          -5.877
REMARK INTER:                  -5.757
REMARK INTRA:                  -0.120
REMARK UNBOUND:                -0.183
REMARK  Name = 1550473
REMARK  2 active torsions:
REMARK  status: ('A' for Active; 'I' for Inactive)
REMARK    1  A    between atoms: N_1  and  C_4
REMARK    2  A    between atoms: C_4  and  C_5
REMARK                            x       y       z     vdW  Elec       q    Type
REMARK                         _______ _______ _______ _____ _____    ______ ____
ROOT
ATOM      1  N   UNL     1       1.876   3.007   0.687  0.00  0.00    -0.354 N 
ATOM      2  N   UNL     1       4.100   3.319   0.120  0.00  0.00    -0.372 N 
ATOM      3  N   UNL     1       3.289   4.322   2.018  0.00  0.00    -0.372 N 
ATOM      4  C   UNL     1       3.073   3.549   0.948  0.00  0.00    +0.166 C 
ATOM      5  H   UNL     1       1.770   2.456  -0.156  0.00  0.00    +0.163 HD
ATOM      6  H   UNL     1       5.016   3.711   0.292  0.00  0.00    +0.159 HD
ATOM      7  H   UNL     1       4.003   2.730  -0.698  0.00  0.00    +0.159 HD
ATOM      8  H   UNL     1       2.554   4.538   2.678  0.00  0.00    +0.159 HD
ATOM      9  H   UNL     1       4.195   4.733   2.201  0.00  0.00    +0.159 HD
ENDROOT
BRANCH   1  10
ATOM     10  C   UNL     1       0.708   3.152   1.554  0.00  0.00    +0.151 C 
BRANCH  10  11
ATOM     11  C   UNL     1      -0.191   1.960   1.370  0.00  0.00    -0.028 A 
ATOM     12  C   UNL     1      -1.573   2.129   1.202  0.00  0.00    +0.005 A 
ATOM     13  C   UNL     1       0.335   0.659   1.357  0.00  0.00    +0.005 A 
ATOM     14  C   UNL     1      -2.404   1.024   1.001  0.00  0.00    +0.000 A 
ATOM     15  C   UNL     1      -0.498  -0.442   1.157  0.00  0.00    +0.000 A 
ATOM     16  C   UNL     1      -1.867  -0.258   0.977  0.00  0.00    +0.000 A 
ENDBRANCH  10  11
ENDBRANCH   1  10
TORSDOF 2
ENDMDL
