MODEL 1
REMARK VINA RESULT:    -5.273      0.000      0.000
REMARK INTER + INTRA:          -6.073
REMARK INTER:                  -5.890
REMARK INTRA:                  -0.183
REMARK UNBOUND:                -0.183
REMARK  Name = 1550473
REMARK  2 active torsions:
REMARK  status: ('A' for Active; 'I' for Inactive)
REMARK    1  A    between atoms: N_1  and  C_4
REMARK    2  A    between atoms: C_4  and  C_5
REMARK                            x       y       z     vdW  Elec       q    Type
REMARK                         _______ _______ _______ _____ _____    ______ ____
ROOT
ATOM      1  N   UNL     1       6.805  12.365  22.208  0.00  0.00    -0.354 N 
ATOM      2  N   UNL     1       8.298  13.205  23.767  0.00  0.00    -0.372 N 
ATOM      3  N   UNL     1       9.058  11.719  22.192  0.00  0.00    -0.372 N 
ATOM      4  C   UNL     1       8.046  12.422  22.711  0.00  0.00    +0.166 C 
ATOM      5  H   UNL     1       6.075  12.900  22.665  0.00  0.00    +0.163 HD
ATOM      6  H   UNL     1       9.225  13.271  24.166  0.00  0.00    +0.159 HD
ATOM      7  H   UNL     1       7.577  13.773  24.193  0.00  0.00    +0.159 HD
ATOM      8  H   UNL     1       8.932  11.105  21.398  0.00  0.00    +0.159 HD
ATOM      9  H   UNL     1       9.990  11.762  22.584  0.00  0.00    +0.159 HD
ENDROOT
BRANCH   1  10
ATOM     10  C   UNL     1       6.436  11.586  21.027  0.00  0.00    +0.151 C 
BRANCH  10  11
ATOM     11  C   UNL     1       6.360  12.503  19.838  0.00  0.00    -0.028 A 
ATOM     12  C   UNL     1       5.237  13.319  19.638  0.00  0.00    +0.005 A 
ATOM     13  C   UNL     1       7.411  12.564  18.909  0.00  0.00    +0.005 A 
ATOM     14  C   UNL     1       5.179  14.192  18.550  0.00  0.00    +0.000 A 
ATOM     15  C   UNL     1       7.349  13.437  17.823  0.00  0.00    +0.000 A 
ATOM     16  C   UNL     1       6.234  14.253  17.645  0.00  0.00    +0.000 A 
ENDBRANCH  10  11
ENDBRANCH   1  10
TORSDOF 2
ENDMDL
MODEL 2
REMARK VINA RESULT:    -4.900     18.856     20.000
REMARK INTER + INTRA:          -5.656
REMARK INTER:                  -5.483
REMARK INTRA:                  -0.172
REMARK UNBOUND:                -0.183
REMARK  Name = 1550473
REMARK  2 active torsions:
REMARK  status: ('A' for Active; 'I' for Inactive)
REMARK    1  A    between atoms: N_1  and  C_4
REMARK    2  A    between atoms: C_4  and  C_5
REMARK                            x       y       z     vdW  Elec       q    Type
REMARK                         _______ _______ _______ _____ _____    ______ ____
ROOT
ATOM      1  N   UNL     1      24.908  10.540  13.588  0.00  0.00    -0.354 N 
ATOM      2  N   UNL     1      26.889  10.512  14.787  0.00  0.00    -0.372 N 
ATOM      3  N   UNL     1      25.512   8.679  14.879  0.00  0.00    -0.372 N 
ATOM      4  C   UNL     1      25.756   9.908  14.411  0.00  0.00    +0.166 C 
ATOM      5  H   UNL     1      25.137  11.482  13.293  0.00  0.00    +0.163 HD
ATOM      6  H   UNL     1      27.550  10.059  15.405  0.00  0.00    +0.159 HD
ATOM      7  H   UNL     1      27.137  11.436  14.454  0.00  0.00    +0.159 HD
ATOM      8  H   UNL     1      24.672   8.171  14.637  0.00  0.00    +0.159 HD
ATOM      9  H   UNL     1      26.155   8.214  15.507  0.00  0.00    +0.159 HD
ENDROOT
BRANCH   1  10
ATOM     10  C   UNL     1      23.673   9.949  13.075  0.00  0.00    +0.151 C 
BRANCH  10  11
ATOM     11  C   UNL     1      23.950   9.313  11.741  0.00  0.00    -0.028 A 
ATOM     12  C   UNL     1      23.569   7.986  11.492  0.00  0.00    +0.005 A 
ATOM     13  C   UNL     1      24.586  10.034  10.719  0.00  0.00    +0.005 A 
ATOM     14  C   UNL     1      23.799   7.405  10.243  0.00  0.00    +0.000 A 
ATOM     15  C   UNL     1      24.814   9.450   9.473  0.00  0.00    +0.000 A 
ATOM     16  C   UNL     1      24.418   8.136   9.235  0.00  0.00    +0.000 A 
ENDBRANCH  10  11
ENDBRANCH   1  10
TORSDOF 2
ENDMDL
MODEL 3
REMARK VINA RESULT:    -4.859      3.751      5.110
REMARK INTER + INTRA:          -5.611
REMARK INTER:                  -5.501
REMARK INTRA:                  -0.110
REMARK UNBOUND:                -0.183
REMARK  Name = 1550473
REMARK  2 active torsions:
REMARK  status: ('A' for Active; 'I' for Inactive)
REMARK    1  A    between atoms: N_1  and  C_4
REMARK    2  A    between atoms: C_4  and  C_5
REMARK                            x       y       z     vdW  Elec       q    Type
REMARK                         _______ _______ _______ _____ _____    ______ ____
ROOT
ATOM      1  N   UNL     1       5.462  16.371  18.792  0.00  0.00    -0.354 N 
ATOM      2  N   UNL     1       6.030  18.610  18.964  0.00  0.00    -0.372 N 
ATOM      3  N   UNL     1       5.314  17.800  16.940  0.00  0.00    -0.372 N 
ATOM      4  C   UNL     1       5.598  17.579  18.228  0.00  0.00    +0.166 C 
ATOM      5  H   UNL     1       5.722  16.263  19.765  0.00  0.00    +0.163 HD
ATOM      6  H   UNL     1       6.139  19.534  18.567  0.00  0.00    +0.159 HD
ATOM      7  H   UNL     1       6.246  18.509  19.948  0.00  0.00    +0.159 HD
ATOM      8  H   UNL     1       4.989  17.063  16.329  0.00  0.00    +0.159 HD
ATOM      9  H   UNL     1       5.428  18.715  16.521  0.00  0.00    +0.159 HD
ENDROOT
BRANCH   1  10
ATOM     10  C   UNL     1       4.948  15.195  18.092  0.00  0.00    +0.151 C 
BRANCH  10  11
ATOM     11  C   UNL     1       5.644  13.969  18.615  0.00  0.00    -0.028 A 
ATOM     12  C   UNL     1       6.936  13.643  18.177  0.00  0.00    +0.005 A 
ATOM     13  C   UNL     1       5.019  13.133  19.553  0.00  0.00    +0.005 A 
ATOM     14  C   UNL     1       7.594  12.520  18.686  0.00  0.00    +0.000 A 
ATOM     15  C   UNL     1       5.679  12.013  20.057  0.00  0.00    +0.000 A 
ATOM     16  C   UNL     1       6.968  11.708  19.625  0.00  0.00    +0.000 A 
ENDBRANCH  10  11
ENDBRANCH   1  10
TORSDOF 2
ENDMDL
MODEL 4
REMARK VINA RESULT:    -4.849      1.500      2.334
REMARK INTER + INTRA:          -5.599
REMARK INTER:                  -5.457
REMARK INTRA:                  -0.142
REMARK UNBOUND:                -0.183
REMARK  Name = 1550473
REMARK  2 active torsions:
REMARK  status: ('A' for Active; 'I' for Inactive)
REMARK    1  A    between atoms: N_1  and  C_4
REMARK    2  A    between atoms: C_4  and  C_5
REMARK                            x       y       z     vdW  Elec       q    Type
REMARK                         _______ _______ _______ _____ _____    ______ ____
ROOT
ATOM      1  N   UNL     1       7.947  12.154  20.218  0.00  0.00    -0.354 N 
ATOM      2  N   UNL     1       9.286  11.476  21.983  0.00  0.00    -0.372 N 
ATOM      3  N   UNL     1       7.239  10.478  21.696  0.00  0.00    -0.372 N 
ATOM      4  C   UNL     1       8.146  11.373  21.288  0.00  0.00    +0.166 C 
ATOM      5  H   UNL     1       8.661  12.833  19.979  0.00  0.00    +0.163 HD
ATOM      6  H   UNL     1       9.466  10.897  22.792  0.00  0.00    +0.159 HD
ATOM      7  H   UNL     1      10.017  12.123  21.714  0.00  0.00    +0.159 HD
ATOM      8  H   UNL     1       6.356  10.355  21.218  0.00  0.00    +0.159 HD
ATOM      9  H   UNL     1       7.396   9.898  22.510  0.00  0.00    +0.159 HD
ENDROOT
BRANCH   1  10
ATOM     10  C   UNL     1       6.764  12.083  19.362  0.00  0.00    +0.151 C 
BRANCH  10  11
ATOM     11  C   UNL     1       6.181  13.461  19.215  0.00  0.00    -0.028 A 
ATOM     12  C   UNL     1       6.188  14.108  17.971  0.00  0.00    +0.005 A 
ATOM     13  C   UNL     1       5.613  14.122  20.315  0.00  0.00    +0.005 A 
ATOM     14  C   UNL     1       5.619  15.376  17.827  0.00  0.00    +0.000 A 
ATOM     15  C   UNL     1       5.046  15.388  20.167  0.00  0.00    +0.000 A 
ATOM     16  C   UNL     1       5.047  16.013  18.923  0.00  0.00    +0.000 A 
ENDBRANCH  10  11
ENDBRANCH   1  10
TORSDOF 2
ENDMDL
MODEL 5
REMARK VINA RESULT:    -4.842     29.833     30.541
REMARK INTER + INTRA:          -5.591
REMARK INTER:                  -5.506
REMARK INTRA:                  -0.086
REMARK UNBOUND:                -0.183
REMARK  Name = 1550473
REMARK  2 active torsions:
REMARK  status: ('A' for Active; 'I' for Inactive)
REMARK    1  A    between atoms: N_1  and  C_4
REMARK    2  A    between atoms: C_4  and  C_5
REMARK                            x       y       z     vdW  Elec       q    Type
REMARK                         _______ _______ _______ _____ _____    ______ ____
ROOT
ATOM      1  N   UNL     1      -0.354  -6.172  -0.998  0.00  0.00    -0.354 N 
ATOM      2  N   UNL     1       0.105  -4.938   0.908  0.00  0.00    -0.372 N 
ATOM      3  N   UNL     1       1.359  -4.573  -0.979  0.00  0.00    -0.372 N 
ATOM      4  C   UNL     1       0.369  -5.235  -0.370  0.00  0.00    +0.166 C 
ATOM      5  H   UNL     1      -1.071  -6.659  -0.472  0.00  0.00    +0.163 HD
ATOM      6  H   UNL     1       0.631  -4.233   1.406  0.00  0.00    +0.159 HD
ATOM      7  H   UNL     1      -0.643  -5.394   1.417  0.00  0.00    +0.159 HD
ATOM      8  H   UNL     1       1.612  -4.754  -1.941  0.00  0.00    +0.159 HD
ATOM      9  H   UNL     1       1.905  -3.872  -0.493  0.00  0.00    +0.159 HD
ENDROOT
BRANCH   1  10
ATOM     10  C   UNL     1      -0.183  -6.531  -2.404  0.00  0.00    +0.151 C 
BRANCH  10  11
ATOM     11  C   UNL     1      -1.387  -6.071  -3.179  0.00  0.00    -0.028 A 
ATOM     12  C   UNL     1      -1.955  -4.813  -2.931  0.00  0.00    +0.005 A 
ATOM     13  C   UNL     1      -1.960  -6.886  -4.168  0.00  0.00    +0.005 A 
ATOM     14  C   UNL     1      -3.055  -4.373  -3.671  0.00  0.00    +0.000 A 
ATOM     15  C   UNL     1      -3.058  -6.443  -4.905  0.00  0.00    +0.000 A 
ATOM     16  C   UNL     1      -3.604  -5.186  -4.657  0.00  0.00    +0.000 A 
ENDBRANCH  10  11
ENDBRANCH   1  10
TORSDOF 2
ENDMDL
MODEL 6
REMARK VINA RESULT:    -4.760      2.658      3.576
REMARK INTER + INTRA:          -5.500
REMARK INTER:                  -5.341
REMARK INTRA:                  -0.159
REMARK UNBOUND:                -0.183
REMARK  Name = 1550473
REMARK  2 active torsions:
REMARK  status: ('A' for Active; 'I' for Inactive)
REMARK    1  A    between atoms: N_1  and  C_4
REMARK    2  A    between atoms: C_4  and  C_5
REMARK                            x       y       z     vdW  Elec       q    Type
REMARK                         _______ _______ _______ _____ _____    ______ ____
ROOT
ATOM      1  N   UNL     1       3.657  12.514  20.950  0.00  0.00    -0.354 N 
ATOM      2  N   UNL     1       2.283  10.660  20.749  0.00  0.00    -0.372 N 
ATOM      3  N   UNL     1       4.499  10.349  21.258  0.00  0.00    -0.372 N 
ATOM      4  C   UNL     1       3.491  11.185  20.987  0.00  0.00    +0.166 C 
ATOM      5  H   UNL     1       2.859  13.091  20.708  0.00  0.00    +0.163 HD
ATOM      6  H   UNL     1       2.127   9.661  20.774  0.00  0.00    +0.159 HD
ATOM      7  H   UNL     1       1.478  11.242  20.553  0.00  0.00    +0.159 HD
ATOM      8  H   UNL     1       5.436  10.681  21.442  0.00  0.00    +0.159 HD
ATOM      9  H   UNL     1       4.365   9.345  21.276  0.00  0.00    +0.159 HD
ENDROOT
BRANCH   1  10
ATOM     10  C   UNL     1       4.918  13.189  21.247  0.00  0.00    +0.151 C 
BRANCH  10  11
ATOM     11  C   UNL     1       5.679  13.396  19.967  0.00  0.00    -0.028 A 
ATOM     12  C   UNL     1       6.856  12.676  19.713  0.00  0.00    +0.005 A 
ATOM     13  C   UNL     1       5.225  14.306  19.000  0.00  0.00    +0.005 A 
ATOM     14  C   UNL     1       7.546  12.845  18.511  0.00  0.00    +0.000 A 
ATOM     15  C   UNL     1       5.918  14.473  17.801  0.00  0.00    +0.000 A 
ATOM     16  C   UNL     1       7.077  13.741  17.556  0.00  0.00    +0.000 A 
ENDBRANCH  10  11
ENDBRANCH   1  10
TORSDOF 2
ENDMDL
MODEL 7
REMARK VINA RESULT:    -4.613      3.218      4.927
REMARK INTER + INTRA:          -5.335
REMARK INTER:                  -5.194
REMARK INTRA:                  -0.141
REMARK UNBOUND:                -0.183
REMARK  Name = 1550473
REMARK  2 active torsions:
REMARK  status: ('A' for Active; 'I' for Inactive)
REMARK    1  A    between atoms: N_1  and  C_4
REMARK    2  A    between atoms: C_4  and  C_5
REMARK                            x       y       z     vdW  Elec       q    Type
REMARK                         _______ _______ _______ _____ _____    ______ ____
ROOT
ATOM      1  N   UNL     1       5.195  14.353  19.537  0.00  0.00    -0.354 N 
ATOM      2  N   UNL     1       4.104  16.100  18.477  0.00  0.00    -0.372 N 
ATOM      3  N   UNL     1       5.701  14.926  17.321  0.00  0.00    -0.372 N 
ATOM      4  C   UNL     1       5.009  15.114  18.450  0.00  0.00    +0.166 C 
ATOM      5  H   UNL     1       4.660  14.566  20.371  0.00  0.00    +0.163 HD
ATOM      6  H   UNL     1       3.939  16.688  17.671  0.00  0.00    +0.159 HD
ATOM      7  H   UNL     1       3.538  16.281  19.297  0.00  0.00    +0.159 HD
ATOM      8  H   UNL     1       6.403  14.203  17.238  0.00  0.00    +0.159 HD
ATOM      9  H   UNL     1       5.559  15.512  16.508  0.00  0.00    +0.159 HD
ENDROOT
BRANCH   1  10
ATOM     10  C   UNL     1       6.118  13.220  19.593  0.00  0.00    +0.151 C 
BRANCH  10  11
ATOM     11  C   UNL     1       5.360  11.991  20.012  0.00  0.00    -0.028 A 
ATOM     12  C   UNL     1       6.026  10.768  20.183  0.00  0.00    +0.005 A 
ATOM     13  C   UNL     1       3.977  12.043  20.246  0.00  0.00    +0.005 A 
ATOM     14  C   UNL     1       5.328   9.632  20.601  0.00  0.00    +0.000 A 
ATOM     15  C   UNL     1       3.284  10.907  20.663  0.00  0.00    +0.000 A 
ATOM     16  C   UNL     1       3.960   9.702  20.843  0.00  0.00    +0.000 A 
ENDBRANCH  10  11
ENDBRANCH   1  10
TORSDOF 2
ENDMDL
MODEL 8
REMARK VINA RESULT:    -4.532      1.949      2.990
REMARK INTER + INTRA:          -5.245
REMARK INTER:                  -5.088
REMARK INTRA:                  -0.157
REMARK UNBOUND:                -0.183
REMARK  Name = 1550473
REMARK  2 active torsions:
REMARK  status: ('A' for Active; 'I' for Inactive)
REMARK    1  A    between atoms: N_1  and  C_4
REMARK    2  A    between atoms: C_4  and  C_5
REMARK                            x       y       z     vdW  Elec       q    Type
REMARK                         _______ _______ _______ _____ _____    ______ ____
ROOT
ATOM      1  N   UNL     1       8.322  10.671  20.612  0.00  0.00    -0.354 N 
ATOM      2  N   UNL     1       9.383   9.853  22.501  0.00  0.00    -0.372 N 
ATOM      3  N   UNL     1       8.777  12.065  22.441  0.00  0.00    -0.372 N 
ATOM      4  C   UNL     1       8.820  10.871  21.840  0.00  0.00    +0.166 C 
ATOM      5  H   UNL     1       8.413   9.750  20.200  0.00  0.00    +0.163 HD
ATOM      6  H   UNL     1       9.765   9.972  23.430  0.00  0.00    +0.159 HD
ATOM      7  H   UNL     1       9.432   8.922  22.105  0.00  0.00    +0.159 HD
ATOM      8  H   UNL     1       8.371  12.875  21.993  0.00  0.00    +0.159 HD
ATOM      9  H   UNL     1       9.164  12.207  23.365  0.00  0.00    +0.159 HD
ENDROOT
BRANCH   1  10
ATOM     10  C   UNL     1       7.641  11.700  19.829  0.00  0.00    +0.151 C 
BRANCH  10  11
ATOM     11  C   UNL     1       6.174  11.677  20.158  0.00  0.00    -0.028 A 
ATOM     12  C   UNL     1       5.547  12.810  20.697  0.00  0.00    +0.005 A 
ATOM     13  C   UNL     1       5.403  10.527  19.928  0.00  0.00    +0.005 A 
ATOM     14  C   UNL     1       4.178  12.799  20.975  0.00  0.00    +0.000 A 
ATOM     15  C   UNL     1       4.037  10.520  20.208  0.00  0.00    +0.000 A 
ATOM     16  C   UNL     1       3.424  11.657  20.729  0.00  0.00    +0.000 A 
ENDBRANCH  10  11
ENDBRANCH   1  10
TORSDOF 2
ENDMDL
MODEL 9
REMARK VINA RESULT:    -4.440     19.045     20.296
REMARK INTER + INTRA:          -5.143
REMARK INTER:                  -4.978
REMARK INTRA:                  -0.165
REMARK UNBOUND:                -0.183
REMARK  Name = 1550473
REMARK  2 active torsions:
REMARK  status: ('A' for Active; 'I' for Inactive)
REMARK    1  A    between atoms: N_1  and  C_4
REMARK    2  A    between atoms: C_4  and  C_5
REMARK                            x       y       z     vdW  Elec       q    Type
REMARK                         _______ _______ _______ _____ _____    ______ ____
ROOT
ATOM      1  N   UNL     1      25.558   9.695  13.631  0.00  0.00    -0.354 N 
ATOM      2  N   UNL     1      26.966  10.214  15.396  0.00  0.00    -0.372 N 
ATOM      3  N   UNL     1      27.874   9.385  13.459  0.00  0.00    -0.372 N 
ATOM      4  C   UNL     1      26.792   9.760  14.149  0.00  0.00    +0.166 C 
ATOM      5  H   UNL     1      24.776   9.967  14.216  0.00  0.00    +0.163 HD
ATOM      6  H   UNL     1      27.885  10.277  15.812  0.00  0.00    +0.159 HD
ATOM      7  H   UNL     1      26.187  10.527  15.962  0.00  0.00    +0.159 HD
ATOM      8  H   UNL     1      27.810   9.028  12.515  0.00  0.00    +0.159 HD
ATOM      9  H   UNL     1      28.802   9.430  13.862  0.00  0.00    +0.159 HD
ENDROOT
BRANCH   1  10
ATOM     10  C   UNL     1      25.266   9.267  12.265  0.00  0.00    +0.151 C 
BRANCH  10  11
ATOM     11  C   UNL     1      24.476   7.988  12.309  0.00  0.00    -0.028 A 
ATOM     12  C   UNL     1      25.096   6.780  12.660  0.00  0.00    +0.005 A 
ATOM     13  C   UNL     1      23.105   7.979  12.006  0.00  0.00    +0.005 A 
ATOM     14  C   UNL     1      24.356   5.597  12.730  0.00  0.00    +0.000 A 
ATOM     15  C   UNL     1      22.370   6.796  12.077  0.00  0.00    +0.000 A 
ATOM     16  C   UNL     1      22.996   5.606  12.441  0.00  0.00    +0.000 A 
ENDBRANCH  10  11
ENDBRANCH   1  10
TORSDOF 2
ENDMDL
