MODEL 1
REMARK VINA RESULT:    -6.280      0.000      0.000
REMARK INTER + INTRA:          -7.154
REMARK INTER:                  -7.014
REMARK INTRA:                  -0.140
REMARK UNBOUND:                -0.140
REMARK  Name = 1550473
REMARK  2 active torsions:
REMARK  status: ('A' for Active; 'I' for Inactive)
REMARK    1  A    between atoms: N_1  and  C_4
REMARK    2  A    between atoms: C_4  and  C_5
REMARK                            x       y       z     vdW  Elec       q    Type
REMARK                         _______ _______ _______ _____ _____    ______ ____
ROOT
ATOM      1  N   UNL     1       5.455   2.611   2.650  0.00  0.00    -0.354 N 
ATOM      2  N   UNL     1       5.573   4.290   4.241  0.00  0.00    -0.372 N 
ATOM      3  N   UNL     1       7.107   2.585   4.312  0.00  0.00    -0.372 N 
ATOM      4  C   UNL     1       6.046   3.149   3.725  0.00  0.00    +0.166 C 
ATOM      5  H   UNL     1       4.636   3.072   2.270  0.00  0.00    +0.163 HD
ATOM      6  H   UNL     1       6.001   4.721   5.050  0.00  0.00    +0.159 HD
ATOM      7  H   UNL     1       4.782   4.773   3.832  0.00  0.00    +0.159 HD
ATOM      8  H   UNL     1       7.509   1.720   3.974  0.00  0.00    +0.159 HD
ATOM      9  H   UNL     1       7.542   2.995   5.129  0.00  0.00    +0.159 HD
ENDROOT
BRANCH   1  10
ATOM     10  C   UNL     1       5.924   1.401   1.979  0.00  0.00    +0.151 C 
BRANCH  10  11
ATOM     11  C   UNL     1       4.759   0.476   1.761  0.00  0.00    -0.028 A 
ATOM     12  C   UNL     1       3.684   0.461   2.662  0.00  0.00    +0.005 A 
ATOM     13  C   UNL     1       4.720  -0.384   0.653  0.00  0.00    +0.005 A 
ATOM     14  C   UNL     1       2.587  -0.377   2.445  0.00  0.00    +0.000 A 
ATOM     15  C   UNL     1       3.624  -1.220   0.440  0.00  0.00    +0.000 A 
ATOM     16  C   UNL     1       2.557  -1.214   1.335  0.00  0.00    +0.000 A 
ENDBRANCH  10  11
ENDBRANCH   1  10
TORSDOF 2
ENDMDL
MODEL 2
REMARK VINA RESULT:    -5.560      6.969      8.928
REMARK INTER + INTRA:          -6.350
REMARK INTER:                  -6.214
REMARK INTRA:                  -0.136
REMARK UNBOUND:                -0.140
REMARK  Name = 1550473
REMARK  2 active torsions:
REMARK  status: ('A' for Active; 'I' for Inactive)
REMARK    1  A    between atoms: N_1  and  C_4
REMARK    2  A    between atoms: C_4  and  C_5
REMARK                            x       y       z     vdW  Elec       q    Type
REMARK                         _______ _______ _______ _____ _____    ______ ____
ROOT
ATOM      1  N   UNL     1       3.025   6.346   6.453  0.00  0.00    -0.354 N 
ATOM      2  N   UNL     1       4.599   5.393   5.046  0.00  0.00    -0.372 N 
ATOM      3  N   UNL     1       3.307   4.021   6.355  0.00  0.00    -0.372 N 
ATOM      4  C   UNL     1       3.633   5.257   5.962  0.00  0.00    +0.166 C 
ATOM      5  H   UNL     1       3.339   7.256   6.137  0.00  0.00    +0.163 HD
ATOM      6  H   UNL     1       5.073   4.590   4.655  0.00  0.00    +0.159 HD
ATOM      7  H   UNL     1       4.879   6.302   4.698  0.00  0.00    +0.159 HD
ATOM      8  H   UNL     1       2.590   3.851   7.047  0.00  0.00    +0.159 HD
ATOM      9  H   UNL     1       3.778   3.206   5.984  0.00  0.00    +0.159 HD
ENDROOT
BRANCH   1  10
ATOM     10  C   UNL     1       1.924   6.304   7.414  0.00  0.00    +0.151 C 
BRANCH  10  11
ATOM     11  C   UNL     1       0.933   7.383   7.072  0.00  0.00    -0.028 A 
ATOM     12  C   UNL     1       1.023   8.072   5.854  0.00  0.00    +0.005 A 
ATOM     13  C   UNL     1      -0.101   7.716   7.960  0.00  0.00    +0.005 A 
ATOM     14  C   UNL     1       0.085   9.053   5.523  0.00  0.00    +0.000 A 
ATOM     15  C   UNL     1      -1.035   8.697   7.626  0.00  0.00    +0.000 A 
ATOM     16  C   UNL     1      -0.943   9.363   6.407  0.00  0.00    +0.000 A 
ENDBRANCH  10  11
ENDBRANCH   1  10
TORSDOF 2
ENDMDL
MODEL 3
REMARK VINA RESULT:    -5.529      1.238      2.326
REMARK INTER + INTRA:          -6.315
REMARK INTER:                  -6.442
REMARK INTRA:                   0.127
REMARK UNBOUND:                -0.140
REMARK  Name = 1550473
REMARK  2 active torsions:
REMARK  status: ('A' for Active; 'I' for Inactive)
REMARK    1  A    between atoms: N_1  and  C_4
REMARK    2  A    between atoms: C_4  and  C_5
REMARK                            x       y       z     vdW  Elec       q    Type
REMARK                         _______ _______ _______ _____ _____    ______ ____
ROOT
ATOM      1  N   UNL     1       5.331   3.125   4.362  0.00  0.00    -0.354 N 
ATOM      2  N   UNL     1       6.975   4.688   3.897  0.00  0.00    -0.372 N 
ATOM      3  N   UNL     1       4.979   4.809   2.772  0.00  0.00    -0.372 N 
ATOM      4  C   UNL     1       5.749   4.198   3.678  0.00  0.00    +0.166 C 
ATOM      5  H   UNL     1       5.974   2.688   5.013  0.00  0.00    +0.163 HD
ATOM      6  H   UNL     1       7.317   5.498   3.398  0.00  0.00    +0.159 HD
ATOM      7  H   UNL     1       7.599   4.277   4.581  0.00  0.00    +0.159 HD
ATOM      8  H   UNL     1       4.046   4.485   2.556  0.00  0.00    +0.159 HD
ATOM      9  H   UNL     1       5.308   5.615   2.254  0.00  0.00    +0.159 HD
ENDROOT
BRANCH   1  10
ATOM     10  C   UNL     1       3.995   2.545   4.238  0.00  0.00    +0.151 C 
BRANCH  10  11
ATOM     11  C   UNL     1       4.022   1.467   3.190  0.00  0.00    -0.028 A 
ATOM     12  C   UNL     1       5.173   1.255   2.417  0.00  0.00    +0.005 A 
ATOM     13  C   UNL     1       2.903   0.649   2.970  0.00  0.00    +0.005 A 
ATOM     14  C   UNL     1       5.210   0.234   1.464  0.00  0.00    +0.000 A 
ATOM     15  C   UNL     1       2.943  -0.369   2.017  0.00  0.00    +0.000 A 
ATOM     16  C   UNL     1       4.098  -0.578   1.266  0.00  0.00    +0.000 A 
ENDBRANCH  10  11
ENDBRANCH   1  10
TORSDOF 2
ENDMDL
MODEL 4
REMARK VINA RESULT:    -5.480      2.222      3.363
REMARK INTER + INTRA:          -6.260
REMARK INTER:                  -6.138
REMARK INTRA:                  -0.122
REMARK UNBOUND:                -0.140
REMARK  Name = 1550473
REMARK  2 active torsions:
REMARK  status: ('A' for Active; 'I' for Inactive)
REMARK    1  A    between atoms: N_1  and  C_4
REMARK    2  A    between atoms: C_4  and  C_5
REMARK                            x       y       z     vdW  Elec       q    Type
REMARK                         _______ _______ _______ _____ _____    ______ ____
ROOT
ATOM      1  N   UNL     1       3.662   3.701   4.789  0.00  0.00    -0.354 N 
ATOM      2  N   UNL     1       3.809   5.684   5.978  0.00  0.00    -0.372 N 
ATOM      3  N   UNL     1       2.639   3.931   6.885  0.00  0.00    -0.372 N 
ATOM      4  C   UNL     1       3.367   4.424   5.878  0.00  0.00    +0.166 C 
ATOM      5  H   UNL     1       4.192   4.143   4.047  0.00  0.00    +0.163 HD
ATOM      6  H   UNL     1       3.606   6.252   6.789  0.00  0.00    +0.159 HD
ATOM      7  H   UNL     1       4.378   6.107   5.255  0.00  0.00    +0.159 HD
ATOM      8  H   UNL     1       2.271   2.989   6.869  0.00  0.00    +0.159 HD
ATOM      9  H   UNL     1       2.415   4.488   7.700  0.00  0.00    +0.159 HD
ENDROOT
BRANCH   1  10
ATOM     10  C   UNL     1       3.275   2.303   4.607  0.00  0.00    +0.151 C 
BRANCH  10  11
ATOM     11  C   UNL     1       4.081   1.713   3.482  0.00  0.00    -0.028 A 
ATOM     12  C   UNL     1       5.335   2.246   3.149  0.00  0.00    +0.005 A 
ATOM     13  C   UNL     1       3.599   0.617   2.750  0.00  0.00    +0.005 A 
ATOM     14  C   UNL     1       6.097   1.680   2.125  0.00  0.00    +0.000 A 
ATOM     15  C   UNL     1       4.363   0.055   1.728  0.00  0.00    +0.000 A 
ATOM     16  C   UNL     1       5.613   0.585   1.417  0.00  0.00    +0.000 A 
ENDBRANCH  10  11
ENDBRANCH   1  10
TORSDOF 2
ENDMDL
MODEL 5
REMARK VINA RESULT:    -5.302      1.876      2.251
REMARK INTER + INTRA:          -6.062
REMARK INTER:                  -5.970
REMARK INTRA:                  -0.093
REMARK UNBOUND:                -0.140
REMARK  Name = 1550473
REMARK  2 active torsions:
REMARK  status: ('A' for Active; 'I' for Inactive)
REMARK    1  A    between atoms: N_1  and  C_4
REMARK    2  A    between atoms: C_4  and  C_5
REMARK                            x       y       z     vdW  Elec       q    Type
REMARK                         _______ _______ _______ _____ _____    ______ ____
ROOT
ATOM      1  N   UNL     1       3.791   2.702   3.165  0.00  0.00    -0.354 N 
ATOM      2  N   UNL     1       4.962   4.681   2.892  0.00  0.00    -0.372 N 
ATOM      3  N   UNL     1       4.435   3.989   5.015  0.00  0.00    -0.372 N 
ATOM      4  C   UNL     1       4.388   3.778   3.695  0.00  0.00    +0.166 C 
ATOM      5  H   UNL     1       3.763   2.615   2.156  0.00  0.00    +0.163 HD
ATOM      6  H   UNL     1       5.424   5.501   3.263  0.00  0.00    +0.159 HD
ATOM      7  H   UNL     1       4.973   4.568   1.885  0.00  0.00    +0.159 HD
ATOM      8  H   UNL     1       4.015   3.348   5.675  0.00  0.00    +0.159 HD
ATOM      9  H   UNL     1       4.881   4.810   5.405  0.00  0.00    +0.159 HD
ENDROOT
BRANCH   1  10
ATOM     10  C   UNL     1       3.183   1.632   3.955  0.00  0.00    +0.151 C 
BRANCH  10  11
ATOM     11  C   UNL     1       2.519   0.653   3.026  0.00  0.00    -0.028 A 
ATOM     12  C   UNL     1       1.125   0.651   2.870  0.00  0.00    +0.005 A 
ATOM     13  C   UNL     1       3.280  -0.272   2.295  0.00  0.00    +0.005 A 
ATOM     14  C   UNL     1       0.511  -0.238   1.985  0.00  0.00    +0.000 A 
ATOM     15  C   UNL     1       2.663  -1.159   1.413  0.00  0.00    +0.000 A 
ATOM     16  C   UNL     1       1.279  -1.140   1.257  0.00  0.00    +0.000 A 
ENDBRANCH  10  11
ENDBRANCH   1  10
TORSDOF 2
ENDMDL
MODEL 6
REMARK VINA RESULT:    -5.261      3.355      4.791
REMARK INTER + INTRA:          -6.016
REMARK INTER:                  -5.912
REMARK INTRA:                  -0.104
REMARK UNBOUND:                -0.140
REMARK  Name = 1550473
REMARK  2 active torsions:
REMARK  status: ('A' for Active; 'I' for Inactive)
REMARK    1  A    between atoms: N_1  and  C_4
REMARK    2  A    between atoms: C_4  and  C_5
REMARK                            x       y       z     vdW  Elec       q    Type
REMARK                         _______ _______ _______ _____ _____    ______ ____
ROOT
ATOM      1  N   UNL     1       1.097   1.251   2.800  0.00  0.00    -0.354 N 
ATOM      2  N   UNL     1      -0.964   2.126   2.209  0.00  0.00    -0.372 N 
ATOM      3  N   UNL     1      -0.676  -0.150   2.178  0.00  0.00    -0.372 N 
ATOM      4  C   UNL     1      -0.168   1.067   2.399  0.00  0.00    +0.166 C 
ATOM      5  H   UNL     1       1.430   2.201   2.921  0.00  0.00    +0.163 HD
ATOM      6  H   UNL     1      -1.924   2.019   1.911  0.00  0.00    +0.159 HD
ATOM      7  H   UNL     1      -0.642   3.072   2.375  0.00  0.00    +0.159 HD
ATOM      8  H   UNL     1      -0.125  -0.989   2.298  0.00  0.00    +0.159 HD
ATOM      9  H   UNL     1      -1.631  -0.278   1.868  0.00  0.00    +0.159 HD
ENDROOT
BRANCH   1  10
ATOM     10  C   UNL     1       2.030   0.163   3.088  0.00  0.00    +0.151 C 
BRANCH  10  11
ATOM     11  C   UNL     1       3.415   0.583   2.679  0.00  0.00    -0.028 A 
ATOM     12  C   UNL     1       4.056   1.649   3.327  0.00  0.00    +0.005 A 
ATOM     13  C   UNL     1       4.094  -0.085   1.648  0.00  0.00    +0.005 A 
ATOM     14  C   UNL     1       5.354   2.020   2.968  0.00  0.00    +0.000 A 
ATOM     15  C   UNL     1       5.390   0.289   1.292  0.00  0.00    +0.000 A 
ATOM     16  C   UNL     1       6.020   1.340   1.954  0.00  0.00    +0.000 A 
ENDBRANCH  10  11
ENDBRANCH   1  10
TORSDOF 2
ENDMDL
MODEL 7
REMARK VINA RESULT:    -5.173      6.835      8.668
REMARK INTER + INTRA:          -5.917
REMARK INTER:                  -5.801
REMARK INTRA:                  -0.116
REMARK UNBOUND:                -0.140
REMARK  Name = 1550473
REMARK  2 active torsions:
REMARK  status: ('A' for Active; 'I' for Inactive)
REMARK    1  A    between atoms: N_1  and  C_4
REMARK    2  A    between atoms: C_4  and  C_5
REMARK                            x       y       z     vdW  Elec       q    Type
REMARK                         _______ _______ _______ _____ _____    ______ ____
ROOT
ATOM      1  N   UNL     1       2.164   5.603   5.454  0.00  0.00    -0.354 N 
ATOM      2  N   UNL     1       3.037   4.278   3.767  0.00  0.00    -0.372 N 
ATOM      3  N   UNL     1       4.471   5.229   5.286  0.00  0.00    -0.372 N 
ATOM      4  C   UNL     1       3.221   5.047   4.848  0.00  0.00    +0.166 C 
ATOM      5  H   UNL     1       1.245   5.451   5.055  0.00  0.00    +0.163 HD
ATOM      6  H   UNL     1       3.815   3.842   3.291  0.00  0.00    +0.159 HD
ATOM      7  H   UNL     1       2.113   4.091   3.397  0.00  0.00    +0.159 HD
ATOM      8  H   UNL     1       4.678   5.802   6.093  0.00  0.00    +0.159 HD
ATOM      9  H   UNL     1       5.264   4.810   4.815  0.00  0.00    +0.159 HD
ENDROOT
BRANCH   1  10
ATOM     10  C   UNL     1       2.250   6.412   6.668  0.00  0.00    +0.151 C 
BRANCH  10  11
ATOM     11  C   UNL     1       1.093   7.372   6.703  0.00  0.00    -0.028 A 
ATOM     12  C   UNL     1       0.243   7.422   7.817  0.00  0.00    +0.005 A 
ATOM     13  C   UNL     1       0.844   8.238   5.626  0.00  0.00    +0.005 A 
ATOM     14  C   UNL     1      -0.815   8.334   7.862  0.00  0.00    +0.000 A 
ATOM     15  C   UNL     1      -0.213   9.146   5.675  0.00  0.00    +0.000 A 
ATOM     16  C   UNL     1      -1.040   9.196   6.794  0.00  0.00    +0.000 A 
ENDBRANCH  10  11
ENDBRANCH   1  10
TORSDOF 2
ENDMDL
MODEL 8
REMARK VINA RESULT:    -5.071      2.856      3.641
REMARK INTER + INTRA:          -5.803
REMARK INTER:                  -5.678
REMARK INTRA:                  -0.125
REMARK UNBOUND:                -0.140
REMARK  Name = 1550473
REMARK  2 active torsions:
REMARK  status: ('A' for Active; 'I' for Inactive)
REMARK    1  A    between atoms: N_1  and  C_4
REMARK    2  A    between atoms: C_4  and  C_5
REMARK                            x       y       z     vdW  Elec       q    Type
REMARK                         _______ _______ _______ _____ _____    ______ ____
ROOT
ATOM      1  N   UNL     1       2.993   2.863   4.354  0.00  0.00    -0.354 N 
ATOM      2  N   UNL     1       3.650   4.256   6.083  0.00  0.00    -0.372 N 
ATOM      3  N   UNL     1       4.527   2.139   5.971  0.00  0.00    -0.372 N 
ATOM      4  C   UNL     1       3.721   3.075   5.459  0.00  0.00    +0.166 C 
ATOM      5  H   UNL     1       2.378   3.602   4.033  0.00  0.00    +0.163 HD
ATOM      6  H   UNL     1       4.189   4.446   6.917  0.00  0.00    +0.159 HD
ATOM      7  H   UNL     1       3.069   5.009   5.735  0.00  0.00    +0.159 HD
ATOM      8  H   UNL     1       4.621   1.224   5.550  0.00  0.00    +0.159 HD
ATOM      9  H   UNL     1       5.066   2.306   6.811  0.00  0.00    +0.159 HD
ENDROOT
BRANCH   1  10
ATOM     10  C   UNL     1       3.039   1.631   3.568  0.00  0.00    +0.151 C 
BRANCH  10  11
ATOM     11  C   UNL     1       1.675   1.364   2.994  0.00  0.00    -0.028 A 
ATOM     12  C   UNL     1       1.279   0.056   2.678  0.00  0.00    +0.005 A 
ATOM     13  C   UNL     1       0.772   2.414   2.768  0.00  0.00    +0.005 A 
ATOM     14  C   UNL     1       0.002  -0.196   2.172  0.00  0.00    +0.000 A 
ATOM     15  C   UNL     1      -0.502   2.159   2.262  0.00  0.00    +0.000 A 
ATOM     16  C   UNL     1      -0.888   0.853   1.967  0.00  0.00    +0.000 A 
ENDBRANCH  10  11
ENDBRANCH   1  10
TORSDOF 2
ENDMDL
MODEL 9
REMARK VINA RESULT:    -4.950      4.620      6.602
REMARK INTER + INTRA:          -5.668
REMARK INTER:                  -5.516
REMARK INTRA:                  -0.153
REMARK UNBOUND:                -0.140
REMARK  Name = 1550473
REMARK  2 active torsions:
REMARK  status: ('A' for Active; 'I' for Inactive)
REMARK    1  A    between atoms: N_1  and  C_4
REMARK    2  A    between atoms: C_4  and  C_5
REMARK                            x       y       z     vdW  Elec       q    Type
REMARK                         _______ _______ _______ _____ _____    ______ ____
ROOT
ATOM      1  N   UNL     1       4.517   4.331   4.745  0.00  0.00    -0.354 N 
ATOM      2  N   UNL     1       6.668   4.776   4.011  0.00  0.00    -0.372 N 
ATOM      3  N   UNL     1       4.968   4.690   2.473  0.00  0.00    -0.372 N 
ATOM      4  C   UNL     1       5.369   4.596   3.746  0.00  0.00    +0.166 C 
ATOM      5  H   UNL     1       4.889   4.243   5.684  0.00  0.00    +0.163 HD
ATOM      6  H   UNL     1       7.334   4.980   3.278  0.00  0.00    +0.159 HD
ATOM      7  H   UNL     1       7.030   4.732   4.956  0.00  0.00    +0.159 HD
ATOM      8  H   UNL     1       4.001   4.559   2.206  0.00  0.00    +0.159 HD
ATOM      9  H   UNL     1       5.621   4.882   1.724  0.00  0.00    +0.159 HD
ENDROOT
BRANCH   1  10
ATOM     10  C   UNL     1       3.075   4.172   4.569  0.00  0.00    +0.151 C 
BRANCH  10  11
ATOM     11  C   UNL     1       2.368   5.310   5.253  0.00  0.00    -0.028 A 
ATOM     12  C   UNL     1       2.919   5.906   6.396  0.00  0.00    +0.005 A 
ATOM     13  C   UNL     1       1.150   5.801   4.758  0.00  0.00    +0.005 A 
ATOM     14  C   UNL     1       2.278   6.983   7.014  0.00  0.00    +0.000 A 
ATOM     15  C   UNL     1       0.513   6.875   5.378  0.00  0.00    +0.000 A 
ATOM     16  C   UNL     1       1.078   7.468   6.504  0.00  0.00    +0.000 A 
ENDBRANCH  10  11
ENDBRANCH   1  10
TORSDOF 2
ENDMDL
