MODEL 1
REMARK VINA RESULT:    -5.585      0.000      0.000
REMARK INTER + INTRA:          -6.380
REMARK INTER:                  -6.238
REMARK INTRA:                  -0.142
REMARK UNBOUND:                -0.142
REMARK  Name = 1550473
REMARK  2 active torsions:
REMARK  status: ('A' for Active; 'I' for Inactive)
REMARK    1  A    between atoms: N_1  and  C_4
REMARK    2  A    between atoms: C_4  and  C_5
REMARK                            x       y       z     vdW  Elec       q    Type
REMARK                         _______ _______ _______ _____ _____    ______ ____
ROOT
ATOM      1  N   UNL     1       3.896   7.220  -6.996  0.00  0.00    -0.354 N 
ATOM      2  N   UNL     1       1.867   7.910  -6.119  0.00  0.00    -0.372 N 
ATOM      3  N   UNL     1       3.166   6.461  -4.902  0.00  0.00    -0.372 N 
ATOM      4  C   UNL     1       2.990   7.190  -6.009  0.00  0.00    +0.166 C 
ATOM      5  H   UNL     1       3.690   7.768  -7.822  0.00  0.00    +0.163 HD
ATOM      6  H   UNL     1       1.167   7.910  -5.389  0.00  0.00    +0.159 HD
ATOM      7  H   UNL     1       1.684   8.493  -6.926  0.00  0.00    +0.159 HD
ATOM      8  H   UNL     1       3.989   5.892  -4.761  0.00  0.00    +0.159 HD
ATOM      9  H   UNL     1       2.471   6.440  -4.166  0.00  0.00    +0.159 HD
ENDROOT
BRANCH   1  10
ATOM     10  C   UNL     1       5.177   6.515  -6.951  0.00  0.00    +0.151 C 
BRANCH  10  11
ATOM     11  C   UNL     1       5.379   5.781  -8.248  0.00  0.00    -0.028 A 
ATOM     12  C   UNL     1       6.613   5.183  -8.542  0.00  0.00    +0.005 A 
ATOM     13  C   UNL     1       4.339   5.675  -9.184  0.00  0.00    +0.005 A 
ATOM     14  C   UNL     1       6.792   4.475  -9.733  0.00  0.00    +0.000 A 
ATOM     15  C   UNL     1       4.522   4.969 -10.372  0.00  0.00    +0.000 A 
ATOM     16  C   UNL     1       5.748   4.367 -10.646  0.00  0.00    +0.000 A 
ENDBRANCH  10  11
ENDBRANCH   1  10
TORSDOF 2
ENDMDL
MODEL 2
REMARK VINA RESULT:    -5.483      1.060      1.995
REMARK INTER + INTRA:          -6.266
REMARK INTER:                  -6.135
REMARK INTRA:                  -0.131
REMARK UNBOUND:                -0.142
REMARK  Name = 1550473
REMARK  2 active torsions:
REMARK  status: ('A' for Active; 'I' for Inactive)
REMARK    1  A    between atoms: N_1  and  C_4
REMARK    2  A    between atoms: C_4  and  C_5
REMARK                            x       y       z     vdW  Elec       q    Type
REMARK                         _______ _______ _______ _____ _____    ______ ____
ROOT
ATOM      1  N   UNL     1       4.323   6.609  -6.019  0.00  0.00    -0.354 N 
ATOM      2  N   UNL     1       4.053   6.168  -3.761  0.00  0.00    -0.372 N 
ATOM      3  N   UNL     1       2.189   6.338  -5.089  0.00  0.00    -0.372 N 
ATOM      4  C   UNL     1       3.520   6.375  -4.972  0.00  0.00    +0.166 C 
ATOM      5  H   UNL     1       5.323   6.654  -5.858  0.00  0.00    +0.163 HD
ATOM      6  H   UNL     1       3.472   5.985  -2.953  0.00  0.00    +0.159 HD
ATOM      7  H   UNL     1       5.054   6.168  -3.612  0.00  0.00    +0.159 HD
ATOM      8  H   UNL     1       1.725   6.492  -5.974  0.00  0.00    +0.159 HD
ATOM      9  H   UNL     1       1.591   6.168  -4.290  0.00  0.00    +0.159 HD
ENDROOT
BRANCH   1  10
ATOM     10  C   UNL     1       3.847   6.793  -7.389  0.00  0.00    +0.151 C 
BRANCH  10  11
ATOM     11  C   UNL     1       4.704   5.981  -8.320  0.00  0.00    -0.028 A 
ATOM     12  C   UNL     1       4.182   5.500  -9.530  0.00  0.00    +0.005 A 
ATOM     13  C   UNL     1       6.039   5.692  -8.000  0.00  0.00    +0.005 A 
ATOM     14  C   UNL     1       4.986   4.771 -10.409  0.00  0.00    +0.000 A 
ATOM     15  C   UNL     1       6.838   4.963  -8.880  0.00  0.00    +0.000 A 
ATOM     16  C   UNL     1       6.312   4.504 -10.086  0.00  0.00    +0.000 A 
ENDBRANCH  10  11
ENDBRANCH   1  10
TORSDOF 2
ENDMDL
MODEL 3
REMARK VINA RESULT:    -5.432     28.229     28.987
REMARK INTER + INTRA:          -6.210
REMARK INTER:                  -6.050
REMARK INTRA:                  -0.160
REMARK UNBOUND:                -0.142
REMARK  Name = 1550473
REMARK  2 active torsions:
REMARK  status: ('A' for Active; 'I' for Inactive)
REMARK    1  A    between atoms: N_1  and  C_4
REMARK    2  A    between atoms: C_4  and  C_5
REMARK                            x       y       z     vdW  Elec       q    Type
REMARK                         _______ _______ _______ _____ _____    ______ ____
ROOT
ATOM      1  N   UNL     1     -16.295 -14.481  -7.943  0.00  0.00    -0.354 N 
ATOM      2  N   UNL     1     -16.340 -16.266  -6.468  0.00  0.00    -0.372 N 
ATOM      3  N   UNL     1     -14.989 -14.472  -5.997  0.00  0.00    -0.372 N 
ATOM      4  C   UNL     1     -15.873 -15.060  -6.811  0.00  0.00    +0.166 C 
ATOM      5  H   UNL     1     -16.942 -14.992  -8.532  0.00  0.00    +0.163 HD
ATOM      6  H   UNL     1     -16.043 -16.726  -5.618  0.00  0.00    +0.159 HD
ATOM      7  H   UNL     1     -17.022 -16.754  -7.036  0.00  0.00    +0.159 HD
ATOM      8  H   UNL     1     -14.594 -13.564  -6.202  0.00  0.00    +0.159 HD
ATOM      9  H   UNL     1     -14.670 -14.922  -5.148  0.00  0.00    +0.159 HD
ENDROOT
BRANCH   1  10
ATOM     10  C   UNL     1     -15.888 -13.147  -8.380  0.00  0.00    +0.151 C 
BRANCH  10  11
ATOM     11  C   UNL     1     -17.016 -12.183  -8.131  0.00  0.00    -0.028 A 
ATOM     12  C   UNL     1     -16.751 -10.838  -7.835  0.00  0.00    +0.005 A 
ATOM     13  C   UNL     1     -18.352 -12.608  -8.196  0.00  0.00    +0.005 A 
ATOM     14  C   UNL     1     -17.798  -9.937  -7.633  0.00  0.00    +0.000 A 
ATOM     15  C   UNL     1     -19.395 -11.705  -7.992  0.00  0.00    +0.000 A 
ATOM     16  C   UNL     1     -19.118 -10.369  -7.714  0.00  0.00    +0.000 A 
ENDBRANCH  10  11
ENDBRANCH   1  10
TORSDOF 2
ENDMDL
MODEL 4
REMARK VINA RESULT:    -5.368     11.850     13.282
REMARK INTER + INTRA:          -6.138
REMARK INTER:                  -6.005
REMARK INTRA:                  -0.133
REMARK UNBOUND:                -0.142
REMARK  Name = 1550473
REMARK  2 active torsions:
REMARK  status: ('A' for Active; 'I' for Inactive)
REMARK    1  A    between atoms: N_1  and  C_4
REMARK    2  A    between atoms: C_4  and  C_5
REMARK                            x       y       z     vdW  Elec       q    Type
REMARK                         _______ _______ _______ _____ _____    ______ ____
ROOT
ATOM      1  N   UNL     1      11.160  -5.751 -10.289  0.00  0.00    -0.354 N 
ATOM      2  N   UNL     1      12.706  -6.734 -11.706  0.00  0.00    -0.372 N 
ATOM      3  N   UNL     1      12.867  -4.486 -11.277  0.00  0.00    -0.372 N 
ATOM      4  C   UNL     1      12.235  -5.648 -11.082  0.00  0.00    +0.166 C 
ATOM      5  H   UNL     1      10.708  -6.654 -10.206  0.00  0.00    +0.163 HD
ATOM      6  H   UNL     1      13.517  -6.687 -12.308  0.00  0.00    +0.159 HD
ATOM      7  H   UNL     1      12.280  -7.645 -11.585  0.00  0.00    +0.159 HD
ATOM      8  H   UNL     1      12.558  -3.628 -10.840  0.00  0.00    +0.159 HD
ATOM      9  H   UNL     1      13.673  -4.417 -11.885  0.00  0.00    +0.159 HD
ENDROOT
BRANCH   1  10
ATOM     10  C   UNL     1      10.600  -4.640  -9.521  0.00  0.00    +0.151 C 
BRANCH  10  11
ATOM     11  C   UNL     1       9.106  -4.796  -9.449  0.00  0.00    -0.028 A 
ATOM     12  C   UNL     1       8.485  -5.946  -9.959  0.00  0.00    +0.005 A 
ATOM     13  C   UNL     1       8.307  -3.802  -8.865  0.00  0.00    +0.005 A 
ATOM     14  C   UNL     1       7.101  -6.105  -9.865  0.00  0.00    +0.000 A 
ATOM     15  C   UNL     1       6.925  -3.965  -8.773  0.00  0.00    +0.000 A 
ATOM     16  C   UNL     1       6.322  -5.117  -9.271  0.00  0.00    +0.000 A 
ENDBRANCH  10  11
ENDBRANCH   1  10
TORSDOF 2
ENDMDL
MODEL 5
REMARK VINA RESULT:    -5.149     27.808     28.509
REMARK INTER + INTRA:          -5.893
REMARK INTER:                  -5.751
REMARK INTRA:                  -0.142
REMARK UNBOUND:                -0.142
REMARK  Name = 1550473
REMARK  2 active torsions:
REMARK  status: ('A' for Active; 'I' for Inactive)
REMARK    1  A    between atoms: N_1  and  C_4
REMARK    2  A    between atoms: C_4  and  C_5
REMARK                            x       y       z     vdW  Elec       q    Type
REMARK                         _______ _______ _______ _____ _____    ______ ____
ROOT
ATOM      1  N   UNL     1     -19.522 -10.941  -5.906  0.00  0.00    -0.354 N 
ATOM      2  N   UNL     1     -19.421 -10.000  -3.792  0.00  0.00    -0.372 N 
ATOM      3  N   UNL     1     -18.422  -8.904  -5.542  0.00  0.00    -0.372 N 
ATOM      4  C   UNL     1     -19.121  -9.952  -5.095  0.00  0.00    +0.166 C 
ATOM      5  H   UNL     1     -20.023 -11.723  -5.500  0.00  0.00    +0.163 HD
ATOM      6  H   UNL     1     -19.135  -9.267  -3.156  0.00  0.00    +0.159 HD
ATOM      7  H   UNL     1     -19.961 -10.761  -3.397  0.00  0.00    +0.159 HD
ATOM      8  H   UNL     1     -18.158  -8.811  -6.514  0.00  0.00    +0.159 HD
ATOM      9  H   UNL     1     -18.116  -8.166  -4.920  0.00  0.00    +0.159 HD
ENDROOT
BRANCH   1  10
ATOM     10  C   UNL     1     -19.293 -10.958  -7.350  0.00  0.00    +0.151 C 
BRANCH  10  11
ATOM     11  C   UNL     1     -18.032 -11.723  -7.638  0.00  0.00    -0.028 A 
ATOM     12  C   UNL     1     -18.037 -13.125  -7.652  0.00  0.00    +0.005 A 
ATOM     13  C   UNL     1     -16.828 -11.051  -7.904  0.00  0.00    +0.005 A 
ATOM     14  C   UNL     1     -16.872 -13.836  -7.949  0.00  0.00    +0.000 A 
ATOM     15  C   UNL     1     -15.667 -11.765  -8.200  0.00  0.00    +0.000 A 
ATOM     16  C   UNL     1     -15.690 -13.157  -8.225  0.00  0.00    +0.000 A 
ENDBRANCH  10  11
ENDBRANCH   1  10
TORSDOF 2
ENDMDL
MODEL 6
REMARK VINA RESULT:    -4.920      2.016      2.134
REMARK INTER + INTRA:          -5.637
REMARK INTER:                  -5.526
REMARK INTRA:                  -0.112
REMARK UNBOUND:                -0.142
REMARK  Name = 1550473
REMARK  2 active torsions:
REMARK  status: ('A' for Active; 'I' for Inactive)
REMARK    1  A    between atoms: N_1  and  C_4
REMARK    2  A    between atoms: C_4  and  C_5
REMARK                            x       y       z     vdW  Elec       q    Type
REMARK                         _______ _______ _______ _____ _____    ______ ____
ROOT
ATOM      1  N   UNL     1       6.043   7.090  -7.809  0.00  0.00    -0.354 N 
ATOM      2  N   UNL     1       5.491   9.119  -6.838  0.00  0.00    -0.372 N 
ATOM      3  N   UNL     1       5.922   7.320  -5.480  0.00  0.00    -0.372 N 
ATOM      4  C   UNL     1       5.823   7.828  -6.713  0.00  0.00    +0.166 C 
ATOM      5  H   UNL     1       5.922   7.527  -8.716  0.00  0.00    +0.163 HD
ATOM      6  H   UNL     1       5.322   9.702  -6.029  0.00  0.00    +0.159 HD
ATOM      7  H   UNL     1       5.415   9.565  -7.744  0.00  0.00    +0.159 HD
ATOM      8  H   UNL     1       6.163   6.351  -5.318  0.00  0.00    +0.159 HD
ATOM      9  H   UNL     1       5.746   7.884  -4.659  0.00  0.00    +0.159 HD
ENDROOT
BRANCH   1  10
ATOM     10  C   UNL     1       6.461   5.690  -7.782  0.00  0.00    +0.151 C 
BRANCH  10  11
ATOM     11  C   UNL     1       6.149   5.058  -9.110  0.00  0.00    -0.028 A 
ATOM     12  C   UNL     1       7.146   4.385  -9.831  0.00  0.00    +0.005 A 
ATOM     13  C   UNL     1       4.855   5.123  -9.650  0.00  0.00    +0.005 A 
ATOM     14  C   UNL     1       6.849   3.771 -11.050  0.00  0.00    +0.000 A 
ATOM     15  C   UNL     1       4.562   4.510 -10.869  0.00  0.00    +0.000 A 
ATOM     16  C   UNL     1       5.559   3.832 -11.567  0.00  0.00    +0.000 A 
ENDBRANCH  10  11
ENDBRANCH   1  10
TORSDOF 2
ENDMDL
MODEL 7
REMARK VINA RESULT:    -4.891      9.034     10.122
REMARK INTER + INTRA:          -5.605
REMARK INTER:                  -5.488
REMARK INTRA:                  -0.117
REMARK UNBOUND:                -0.142
REMARK  Name = 1550473
REMARK  2 active torsions:
REMARK  status: ('A' for Active; 'I' for Inactive)
REMARK    1  A    between atoms: N_1  and  C_4
REMARK    2  A    between atoms: C_4  and  C_5
REMARK                            x       y       z     vdW  Elec       q    Type
REMARK                         _______ _______ _______ _____ _____    ______ ____
ROOT
ATOM      1  N   UNL     1      10.839   3.145  -2.342  0.00  0.00    -0.354 N 
ATOM      2  N   UNL     1      12.372   4.754  -1.689  0.00  0.00    -0.372 N 
ATOM      3  N   UNL     1      12.706   3.643  -3.669  0.00  0.00    -0.372 N 
ATOM      4  C   UNL     1      11.964   3.836  -2.573  0.00  0.00    +0.166 C 
ATOM      5  H   UNL     1      10.338   3.317  -1.478  0.00  0.00    +0.163 HD
ATOM      6  H   UNL     1      13.214   5.293  -1.838  0.00  0.00    +0.159 HD
ATOM      7  H   UNL     1      11.844   4.956  -0.849  0.00  0.00    +0.159 HD
ATOM      8  H   UNL     1      12.456   2.960  -4.372  0.00  0.00    +0.159 HD
ATOM      9  H   UNL     1      13.559   4.164  -3.830  0.00  0.00    +0.159 HD
ENDROOT
BRANCH   1  10
ATOM     10  C   UNL     1      10.279   2.161  -3.267  0.00  0.00    +0.151 C 
BRANCH  10  11
ATOM     11  C   UNL     1       9.839   0.951  -2.490  0.00  0.00    -0.028 A 
ATOM     12  C   UNL     1       9.001   1.089  -1.374  0.00  0.00    +0.005 A 
ATOM     13  C   UNL     1      10.252  -0.335  -2.868  0.00  0.00    +0.005 A 
ATOM     14  C   UNL     1       8.567  -0.037  -0.670  0.00  0.00    +0.000 A 
ATOM     15  C   UNL     1       9.817  -1.457  -2.162  0.00  0.00    +0.000 A 
ATOM     16  C   UNL     1       8.973  -1.308  -1.065  0.00  0.00    +0.000 A 
ENDBRANCH  10  11
ENDBRANCH   1  10
TORSDOF 2
ENDMDL
MODEL 8
REMARK VINA RESULT:    -4.723     27.927     28.780
REMARK INTER + INTRA:          -5.418
REMARK INTER:                  -5.281
REMARK INTRA:                  -0.136
REMARK UNBOUND:                -0.142
REMARK  Name = 1550473
REMARK  2 active torsions:
REMARK  status: ('A' for Active; 'I' for Inactive)
REMARK    1  A    between atoms: N_1  and  C_4
REMARK    2  A    between atoms: C_4  and  C_5
REMARK                            x       y       z     vdW  Elec       q    Type
REMARK                         _______ _______ _______ _____ _____    ______ ____
ROOT
ATOM      1  N   UNL     1     -18.973 -11.007  -2.816  0.00  0.00    -0.354 N 
ATOM      2  N   UNL     1     -18.367 -10.940  -0.582  0.00  0.00    -0.372 N 
ATOM      3  N   UNL     1     -20.299  -9.891  -1.239  0.00  0.00    -0.372 N 
ATOM      4  C   UNL     1     -19.219 -10.611  -1.560  0.00  0.00    +0.166 C 
ATOM      5  H   UNL     1     -18.121 -11.525  -2.999  0.00  0.00    +0.163 HD
ATOM      6  H   UNL     1     -18.528 -10.658   0.376  0.00  0.00    +0.159 HD
ATOM      7  H   UNL     1     -17.540 -11.497  -0.760  0.00  0.00    +0.159 HD
ATOM      8  H   UNL     1     -20.978  -9.606  -1.932  0.00  0.00    +0.159 HD
ATOM      9  H   UNL     1     -20.471  -9.590  -0.288  0.00  0.00    +0.159 HD
ENDROOT
BRANCH   1  10
ATOM     10  C   UNL     1     -19.865 -10.748  -3.945  0.00  0.00    +0.151 C 
BRANCH  10  11
ATOM     11  C   UNL     1     -19.044 -10.327  -5.133  0.00  0.00    -0.028 A 
ATOM     12  C   UNL     1     -19.393 -10.747  -6.424  0.00  0.00    +0.005 A 
ATOM     13  C   UNL     1     -17.920  -9.502  -4.974  0.00  0.00    +0.005 A 
ATOM     14  C   UNL     1     -18.649 -10.331  -7.531  0.00  0.00    +0.000 A 
ATOM     15  C   UNL     1     -17.179  -9.090  -6.081  0.00  0.00    +0.000 A 
ATOM     16  C   UNL     1     -17.546  -9.503  -7.360  0.00  0.00    +0.000 A 
ENDBRANCH  10  11
ENDBRANCH   1  10
TORSDOF 2
ENDMDL
MODEL 9
REMARK VINA RESULT:    -4.625     27.710     28.496
REMARK INTER + INTRA:          -5.308
REMARK INTER:                  -5.164
REMARK INTRA:                  -0.144
REMARK UNBOUND:                -0.142
REMARK  Name = 1550473
REMARK  2 active torsions:
REMARK  status: ('A' for Active; 'I' for Inactive)
REMARK    1  A    between atoms: N_1  and  C_4
REMARK    2  A    between atoms: C_4  and  C_5
REMARK                            x       y       z     vdW  Elec       q    Type
REMARK                         _______ _______ _______ _____ _____    ______ ____
ROOT
ATOM      1  N   UNL     1     -16.787 -14.030  -6.101  0.00  0.00    -0.354 N 
ATOM      2  N   UNL     1     -15.889 -15.863  -7.197  0.00  0.00    -0.372 N 
ATOM      3  N   UNL     1     -14.679 -14.871  -5.519  0.00  0.00    -0.372 N 
ATOM      4  C   UNL     1     -15.789 -14.909  -6.263  0.00  0.00    +0.166 C 
ATOM      5  H   UNL     1     -17.589 -14.093  -6.718  0.00  0.00    +0.163 HD
ATOM      6  H   UNL     1     -15.154 -16.542  -7.340  0.00  0.00    +0.159 HD
ATOM      7  H   UNL     1     -16.712 -15.952  -7.781  0.00  0.00    +0.159 HD
ATOM      8  H   UNL     1     -14.538 -14.172  -4.801  0.00  0.00    +0.159 HD
ATOM      9  H   UNL     1     -13.926 -15.535  -5.655  0.00  0.00    +0.159 HD
ENDROOT
BRANCH   1  10
ATOM     10  C   UNL     1     -16.799 -12.986  -5.078  0.00  0.00    +0.151 C 
BRANCH  10  11
ATOM     11  C   UNL     1     -17.122 -11.668  -5.725  0.00  0.00    -0.028 A 
ATOM     12  C   UNL     1     -17.251 -10.507  -4.949  0.00  0.00    +0.005 A 
ATOM     13  C   UNL     1     -17.293 -11.572  -7.115  0.00  0.00    +0.005 A 
ATOM     14  C   UNL     1     -17.521  -9.276  -5.553  0.00  0.00    +0.000 A 
ATOM     15  C   UNL     1     -17.564 -10.341  -7.714  0.00  0.00    +0.000 A 
ATOM     16  C   UNL     1     -17.675  -9.194  -6.933  0.00  0.00    +0.000 A 
ENDBRANCH  10  11
ENDBRANCH   1  10
TORSDOF 2
ENDMDL
