MODEL 1
REMARK VINA RESULT:    -5.399      0.000      0.000
REMARK INTER + INTRA:          -6.157
REMARK INTER:                  -6.030
REMARK INTRA:                  -0.127
REMARK UNBOUND:                -0.127
REMARK  Name = 1550473
REMARK  2 active torsions:
REMARK  status: ('A' for Active; 'I' for Inactive)
REMARK    1  A    between atoms: N_1  and  C_4
REMARK    2  A    between atoms: C_4  and  C_5
REMARK                            x       y       z     vdW  Elec       q    Type
REMARK                         _______ _______ _______ _____ _____    ______ ____
ROOT
ATOM      1  N   UNL     1       7.507  -0.696   4.881  0.00  0.00    -0.354 N 
ATOM      2  N   UNL     1       8.899   0.787   3.774  0.00  0.00    -0.372 N 
ATOM      3  N   UNL     1       8.326   1.220   5.953  0.00  0.00    -0.372 N 
ATOM      4  C   UNL     1       8.235   0.429   4.879  0.00  0.00    +0.166 C 
ATOM      5  H   UNL     1       7.454  -1.236   4.025  0.00  0.00    +0.163 HD
ATOM      6  H   UNL     1       9.459   1.628   3.744  0.00  0.00    +0.159 HD
ATOM      7  H   UNL     1       8.882   0.221   2.935  0.00  0.00    +0.159 HD
ATOM      8  H   UNL     1       7.844   1.009   6.817  0.00  0.00    +0.159 HD
ATOM      9  H   UNL     1       8.872   2.073   5.939  0.00  0.00    +0.159 HD
ENDROOT
BRANCH   1  10
ATOM     10  C   UNL     1       6.789  -1.203   6.049  0.00  0.00    +0.151 C 
BRANCH  10  11
ATOM     11  C   UNL     1       7.162  -2.644   6.268  0.00  0.00    -0.028 A 
ATOM     12  C   UNL     1       7.455  -3.116   7.555  0.00  0.00    +0.005 A 
ATOM     13  C   UNL     1       7.217  -3.543   5.191  0.00  0.00    +0.005 A 
ATOM     14  C   UNL     1       7.772  -4.460   7.763  0.00  0.00    +0.000 A 
ATOM     15  C   UNL     1       7.535  -4.884   5.403  0.00  0.00    +0.000 A 
ATOM     16  C   UNL     1       7.810  -5.343   6.688  0.00  0.00    +0.000 A 
ENDBRANCH  10  11
ENDBRANCH   1  10
TORSDOF 2
ENDMDL
MODEL 2
REMARK VINA RESULT:    -5.095      8.339      9.245
REMARK INTER + INTRA:          -5.818
REMARK INTER:                  -5.702
REMARK INTRA:                  -0.116
REMARK UNBOUND:                -0.127
REMARK  Name = 1550473
REMARK  2 active torsions:
REMARK  status: ('A' for Active; 'I' for Inactive)
REMARK    1  A    between atoms: N_1  and  C_4
REMARK    2  A    between atoms: C_4  and  C_5
REMARK                            x       y       z     vdW  Elec       q    Type
REMARK                         _______ _______ _______ _____ _____    ______ ____
ROOT
ATOM      1  N   UNL     1      12.077   5.092   9.506  0.00  0.00    -0.354 N 
ATOM      2  N   UNL     1      11.504   7.179   8.681  0.00  0.00    -0.372 N 
ATOM      3  N   UNL     1      11.098   5.326   7.390  0.00  0.00    -0.372 N 
ATOM      4  C   UNL     1      11.563   5.851   8.529  0.00  0.00    +0.166 C 
ATOM      5  H   UNL     1      12.440   5.553  10.332  0.00  0.00    +0.163 HD
ATOM      6  H   UNL     1      11.119   7.777   7.962  0.00  0.00    +0.159 HD
ATOM      7  H   UNL     1      11.826   7.633   9.527  0.00  0.00    +0.159 HD
ATOM      8  H   UNL     1      11.119   4.331   7.211  0.00  0.00    +0.159 HD
ATOM      9  H   UNL     1      10.719   5.909   6.654  0.00  0.00    +0.159 HD
ENDROOT
BRANCH   1  10
ATOM     10  C   UNL     1      12.137   3.633   9.462  0.00  0.00    +0.151 C 
BRANCH  10  11
ATOM     11  C   UNL     1      12.651   3.122  10.780  0.00  0.00    -0.028 A 
ATOM     12  C   UNL     1      12.361   3.806  11.970  0.00  0.00    +0.005 A 
ATOM     13  C   UNL     1      13.424   1.953  10.847  0.00  0.00    +0.005 A 
ATOM     14  C   UNL     1      12.813   3.316  13.198  0.00  0.00    +0.000 A 
ATOM     15  C   UNL     1      13.874   1.468  12.075  0.00  0.00    +0.000 A 
ATOM     16  C   UNL     1      13.566   2.148  13.250  0.00  0.00    +0.000 A 
ENDBRANCH  10  11
ENDBRANCH   1  10
TORSDOF 2
ENDMDL
MODEL 3
REMARK VINA RESULT:    -4.797      1.765      2.472
REMARK INTER + INTRA:          -5.485
REMARK INTER:                  -5.385
REMARK INTRA:                  -0.101
REMARK UNBOUND:                -0.127
REMARK  Name = 1550473
REMARK  2 active torsions:
REMARK  status: ('A' for Active; 'I' for Inactive)
REMARK    1  A    between atoms: N_1  and  C_4
REMARK    2  A    between atoms: C_4  and  C_5
REMARK                            x       y       z     vdW  Elec       q    Type
REMARK                         _______ _______ _______ _____ _____    ______ ____
ROOT
ATOM      1  N   UNL     1       8.454  -2.119   4.620  0.00  0.00    -0.354 N 
ATOM      2  N   UNL     1       9.853  -1.212   3.013  0.00  0.00    -0.372 N 
ATOM      3  N   UNL     1       7.658  -1.608   2.476  0.00  0.00    -0.372 N 
ATOM      4  C   UNL     1       8.644  -1.653   3.379  0.00  0.00    +0.166 C 
ATOM      5  H   UNL     1       9.249  -2.154   5.248  0.00  0.00    +0.163 HD
ATOM      6  H   UNL     1      10.026  -0.851   2.085  0.00  0.00    +0.159 HD
ATOM      7  H   UNL     1      10.635  -1.206   3.657  0.00  0.00    +0.159 HD
ATOM      8  H   UNL     1       6.724  -1.931   2.687  0.00  0.00    +0.159 HD
ATOM      9  H   UNL     1       7.814  -1.262   1.538  0.00  0.00    +0.159 HD
ENDROOT
BRANCH   1  10
ATOM     10  C   UNL     1       7.163  -2.573   5.135  0.00  0.00    +0.151 C 
BRANCH  10  11
ATOM     11  C   UNL     1       7.396  -3.591   6.217  0.00  0.00    -0.028 A 
ATOM     12  C   UNL     1       7.558  -4.946   5.896  0.00  0.00    +0.005 A 
ATOM     13  C   UNL     1       7.461  -3.206   7.565  0.00  0.00    +0.005 A 
ATOM     14  C   UNL     1       7.804  -5.888   6.897  0.00  0.00    +0.000 A 
ATOM     15  C   UNL     1       7.706  -4.149   8.562  0.00  0.00    +0.000 A 
ATOM     16  C   UNL     1       7.880  -5.490   8.228  0.00  0.00    +0.000 A 
ENDBRANCH  10  11
ENDBRANCH   1  10
TORSDOF 2
ENDMDL
MODEL 4
REMARK VINA RESULT:    -4.675     20.974     21.912
REMARK INTER + INTRA:          -5.348
REMARK INTER:                  -5.217
REMARK INTRA:                  -0.131
REMARK UNBOUND:                -0.127
REMARK  Name = 1550473
REMARK  2 active torsions:
REMARK  status: ('A' for Active; 'I' for Inactive)
REMARK    1  A    between atoms: N_1  and  C_4
REMARK    2  A    between atoms: C_4  and  C_5
REMARK                            x       y       z     vdW  Elec       q    Type
REMARK                         _______ _______ _______ _____ _____    ______ ____
ROOT
ATOM      1  N   UNL     1     -13.928   0.977  -2.502  0.00  0.00    -0.354 N 
ATOM      2  N   UNL     1     -15.248  -0.401  -3.816  0.00  0.00    -0.372 N 
ATOM      3  N   UNL     1     -13.527   0.755  -4.800  0.00  0.00    -0.372 N 
ATOM      4  C   UNL     1     -14.224   0.454  -3.699  0.00  0.00    +0.166 C 
ATOM      5  H   UNL     1     -14.514   0.732  -1.712  0.00  0.00    +0.163 HD
ATOM      6  H   UNL     1     -15.493  -0.814  -4.706  0.00  0.00    +0.159 HD
ATOM      7  H   UNL     1     -15.803  -0.679  -3.016  0.00  0.00    +0.159 HD
ATOM      8  H   UNL     1     -12.747   1.398  -4.781  0.00  0.00    +0.159 HD
ATOM      9  H   UNL     1     -13.764   0.361  -5.702  0.00  0.00    +0.159 HD
ENDROOT
BRANCH   1  10
ATOM     10  C   UNL     1     -12.801   1.874  -2.258  0.00  0.00    +0.151 C 
BRANCH  10  11
ATOM     11  C   UNL     1     -11.922   1.280  -1.192  0.00  0.00    -0.028 A 
ATOM     12  C   UNL     1     -10.929   2.055  -0.574  0.00  0.00    +0.005 A 
ATOM     13  C   UNL     1     -12.080  -0.056  -0.793  0.00  0.00    +0.005 A 
ATOM     14  C   UNL     1     -10.132   1.512   0.436  0.00  0.00    +0.000 A 
ATOM     15  C   UNL     1     -11.281  -0.595   0.216  0.00  0.00    +0.000 A 
ATOM     16  C   UNL     1     -10.309   0.190   0.832  0.00  0.00    +0.000 A 
ENDBRANCH  10  11
ENDBRANCH   1  10
TORSDOF 2
ENDMDL
MODEL 5
REMARK VINA RESULT:    -4.566      1.851      2.340
REMARK INTER + INTRA:          -5.227
REMARK INTER:                  -5.076
REMARK INTRA:                  -0.151
REMARK UNBOUND:                -0.127
REMARK  Name = 1550473
REMARK  2 active torsions:
REMARK  status: ('A' for Active; 'I' for Inactive)
REMARK    1  A    between atoms: N_1  and  C_4
REMARK    2  A    between atoms: C_4  and  C_5
REMARK                            x       y       z     vdW  Elec       q    Type
REMARK                         _______ _______ _______ _____ _____    ______ ____
ROOT
ATOM      1  N   UNL     1       7.484  -1.862   3.876  0.00  0.00    -0.354 N 
ATOM      2  N   UNL     1       8.497  -1.892   1.793  0.00  0.00    -0.372 N 
ATOM      3  N   UNL     1       8.786  -0.057   3.141  0.00  0.00    -0.372 N 
ATOM      4  C   UNL     1       8.250  -1.267   2.951  0.00  0.00    +0.166 C 
ATOM      5  H   UNL     1       7.082  -2.767   3.659  0.00  0.00    +0.163 HD
ATOM      6  H   UNL     1       9.074  -1.470   1.078  0.00  0.00    +0.159 HD
ATOM      7  H   UNL     1       8.132  -2.816   1.597  0.00  0.00    +0.159 HD
ATOM      8  H   UNL     1       8.633   0.469   3.991  0.00  0.00    +0.159 HD
ATOM      9  H   UNL     1       9.357   0.387   2.432  0.00  0.00    +0.159 HD
ENDROOT
BRANCH   1  10
ATOM     10  C   UNL     1       7.198  -1.291   5.191  0.00  0.00    +0.151 C 
BRANCH  10  11
ATOM     11  C   UNL     1       7.883  -2.117   6.244  0.00  0.00    -0.028 A 
ATOM     12  C   UNL     1       7.132  -2.896   7.137  0.00  0.00    +0.005 A 
ATOM     13  C   UNL     1       9.282  -2.130   6.352  0.00  0.00    +0.005 A 
ATOM     14  C   UNL     1       7.768  -3.687   8.097  0.00  0.00    +0.000 A 
ATOM     15  C   UNL     1       9.913  -2.921   7.311  0.00  0.00    +0.000 A 
ATOM     16  C   UNL     1       9.156  -3.701   8.182  0.00  0.00    +0.000 A 
ENDBRANCH  10  11
ENDBRANCH   1  10
TORSDOF 2
ENDMDL
MODEL 6
REMARK VINA RESULT:    -4.479     18.335     19.567
REMARK INTER + INTRA:          -5.130
REMARK INTER:                  -4.992
REMARK INTRA:                  -0.138
REMARK UNBOUND:                -0.127
REMARK  Name = 1550473
REMARK  2 active torsions:
REMARK  status: ('A' for Active; 'I' for Inactive)
REMARK    1  A    between atoms: N_1  and  C_4
REMARK    2  A    between atoms: C_4  and  C_5
REMARK                            x       y       z     vdW  Elec       q    Type
REMARK                         _______ _______ _______ _____ _____    ______ ____
ROOT
ATOM      1  N   UNL     1      16.187   7.903  17.651  0.00  0.00    -0.354 N 
ATOM      2  N   UNL     1      14.574   8.601  16.142  0.00  0.00    -0.372 N 
ATOM      3  N   UNL     1      14.150   6.763  17.450  0.00  0.00    -0.372 N 
ATOM      4  C   UNL     1      14.980   7.749  17.092  0.00  0.00    +0.166 C 
ATOM      5  H   UNL     1      16.782   8.653  17.314  0.00  0.00    +0.163 HD
ATOM      6  H   UNL     1      13.667   8.512  15.705  0.00  0.00    +0.159 HD
ATOM      7  H   UNL     1      15.152   9.376  15.840  0.00  0.00    +0.159 HD
ATOM      8  H   UNL     1      14.399   6.084  18.156  0.00  0.00    +0.159 HD
ATOM      9  H   UNL     1      13.243   6.651  17.015  0.00  0.00    +0.159 HD
ENDROOT
BRANCH   1  10
ATOM     10  C   UNL     1      16.702   7.063  18.731  0.00  0.00    +0.151 C 
BRANCH  10  11
ATOM     11  C   UNL     1      17.381   7.935  19.751  0.00  0.00    -0.028 A 
ATOM     12  C   UNL     1      18.370   7.406  20.593  0.00  0.00    +0.005 A 
ATOM     13  C   UNL     1      17.044   9.291  19.876  0.00  0.00    +0.005 A 
ATOM     14  C   UNL     1      19.023   8.223  21.520  0.00  0.00    +0.000 A 
ATOM     15  C   UNL     1      17.697  10.103  20.803  0.00  0.00    +0.000 A 
ATOM     16  C   UNL     1      18.688   9.569  21.624  0.00  0.00    +0.000 A 
ENDBRANCH  10  11
ENDBRANCH   1  10
TORSDOF 2
ENDMDL
MODEL 7
REMARK VINA RESULT:    -4.423     17.858     18.989
REMARK INTER + INTRA:          -5.067
REMARK INTER:                  -4.946
REMARK INTRA:                  -0.122
REMARK UNBOUND:                -0.127
REMARK  Name = 1550473
REMARK  2 active torsions:
REMARK  status: ('A' for Active; 'I' for Inactive)
REMARK    1  A    between atoms: N_1  and  C_4
REMARK    2  A    between atoms: C_4  and  C_5
REMARK                            x       y       z     vdW  Elec       q    Type
REMARK                         _______ _______ _______ _____ _____    ______ ____
ROOT
ATOM      1  N   UNL     1      15.453   7.484  17.978  0.00  0.00    -0.354 N 
ATOM      2  N   UNL     1      13.911   6.452  16.592  0.00  0.00    -0.372 N 
ATOM      3  N   UNL     1      14.651   8.556  16.055  0.00  0.00    -0.372 N 
ATOM      4  C   UNL     1      14.682   7.506  16.883  0.00  0.00    +0.166 C 
ATOM      5  H   UNL     1      15.408   6.671  18.582  0.00  0.00    +0.163 HD
ATOM      6  H   UNL     1      13.322   6.438  15.771  0.00  0.00    +0.159 HD
ATOM      7  H   UNL     1      13.903   5.622  17.172  0.00  0.00    +0.159 HD
ATOM      8  H   UNL     1      15.205   9.386  16.221  0.00  0.00    +0.159 HD
ATOM      9  H   UNL     1      14.059   8.566  15.234  0.00  0.00    +0.159 HD
ENDROOT
BRANCH   1  10
ATOM     10  C   UNL     1      16.369   8.559  18.356  0.00  0.00    +0.151 C 
BRANCH  10  11
ATOM     11  C   UNL     1      17.283   8.066  19.443  0.00  0.00    -0.028 A 
ATOM     12  C   UNL     1      17.898   8.970  20.322  0.00  0.00    +0.005 A 
ATOM     13  C   UNL     1      17.535   6.694  19.605  0.00  0.00    +0.005 A 
ATOM     14  C   UNL     1      18.723   8.511  21.351  0.00  0.00    +0.000 A 
ATOM     15  C   UNL     1      18.360   6.240  20.633  0.00  0.00    +0.000 A 
ATOM     16  C   UNL     1      18.952   7.148  21.507  0.00  0.00    +0.000 A 
ENDBRANCH  10  11
ENDBRANCH   1  10
TORSDOF 2
ENDMDL
MODEL 8
REMARK VINA RESULT:    -4.421      8.713      9.659
REMARK INTER + INTRA:          -5.065
REMARK INTER:                  -4.926
REMARK INTRA:                  -0.139
REMARK UNBOUND:                -0.127
REMARK  Name = 1550473
REMARK  2 active torsions:
REMARK  status: ('A' for Active; 'I' for Inactive)
REMARK    1  A    between atoms: N_1  and  C_4
REMARK    2  A    between atoms: C_4  and  C_5
REMARK                            x       y       z     vdW  Elec       q    Type
REMARK                         _______ _______ _______ _____ _____    ______ ____
ROOT
ATOM      1  N   UNL     1      12.924   3.166  10.337  0.00  0.00    -0.354 N 
ATOM      2  N   UNL     1      12.839   2.713   8.068  0.00  0.00    -0.372 N 
ATOM      3  N   UNL     1      10.874   2.867   9.243  0.00  0.00    -0.372 N 
ATOM      4  C   UNL     1      12.210   2.918   9.231  0.00  0.00    +0.166 C 
ATOM      5  H   UNL     1      13.935   3.161  10.268  0.00  0.00    +0.163 HD
ATOM      6  H   UNL     1      12.326   2.527   7.216  0.00  0.00    +0.159 HD
ATOM      7  H   UNL     1      13.848   2.754   7.993  0.00  0.00    +0.159 HD
ATOM      8  H   UNL     1      10.340   3.008  10.090  0.00  0.00    +0.159 HD
ATOM      9  H   UNL     1      10.344   2.671   8.403  0.00  0.00    +0.159 HD
ENDROOT
BRANCH   1  10
ATOM     10  C   UNL     1      12.335   3.456  11.643  0.00  0.00    +0.151 C 
BRANCH  10  11
ATOM     11  C   UNL     1      13.087   2.697  12.701  0.00  0.00    -0.028 A 
ATOM     12  C   UNL     1      13.036   3.105  14.042  0.00  0.00    +0.005 A 
ATOM     13  C   UNL     1      13.847   1.565  12.370  0.00  0.00    +0.005 A 
ATOM     14  C   UNL     1      13.710   2.382  15.030  0.00  0.00    +0.000 A 
ATOM     15  C   UNL     1      14.519   0.847  13.359  0.00  0.00    +0.000 A 
ATOM     16  C   UNL     1      14.449   1.254  14.689  0.00  0.00    +0.000 A 
ENDBRANCH  10  11
ENDBRANCH   1  10
TORSDOF 2
ENDMDL
MODEL 9
REMARK VINA RESULT:    -4.371     21.226     22.134
REMARK INTER + INTRA:          -5.009
REMARK INTER:                  -4.854
REMARK INTRA:                  -0.155
REMARK UNBOUND:                -0.127
REMARK  Name = 1550473
REMARK  2 active torsions:
REMARK  status: ('A' for Active; 'I' for Inactive)
REMARK    1  A    between atoms: N_1  and  C_4
REMARK    2  A    between atoms: C_4  and  C_5
REMARK                            x       y       z     vdW  Elec       q    Type
REMARK                         _______ _______ _______ _____ _____    ______ ____
ROOT
ATOM      1  N   UNL     1     -15.679   1.506   5.271  0.00  0.00    -0.354 N 
ATOM      2  N   UNL     1     -16.516   2.638   3.432  0.00  0.00    -0.372 N 
ATOM      3  N   UNL     1     -16.026   3.823   5.334  0.00  0.00    -0.372 N 
ATOM      4  C   UNL     1     -16.068   2.650   4.693  0.00  0.00    +0.166 C 
ATOM      5  H   UNL     1     -15.764   0.646   4.742  0.00  0.00    +0.163 HD
ATOM      6  H   UNL     1     -16.813   3.486   2.968  0.00  0.00    +0.159 HD
ATOM      7  H   UNL     1     -16.557   1.783   2.889  0.00  0.00    +0.159 HD
ATOM      8  H   UNL     1     -15.703   3.900   6.289  0.00  0.00    +0.159 HD
ATOM      9  H   UNL     1     -16.330   4.681   4.891  0.00  0.00    +0.159 HD
ENDROOT
BRANCH   1  10
ATOM     10  C   UNL     1     -15.125   1.420   6.621  0.00  0.00    +0.151 C 
BRANCH  10  11
ATOM     11  C   UNL     1     -13.671   1.048   6.533  0.00  0.00    -0.028 A 
ATOM     12  C   UNL     1     -13.206   0.235   5.489  0.00  0.00    +0.005 A 
ATOM     13  C   UNL     1     -12.751   1.511   7.486  0.00  0.00    +0.005 A 
ATOM     14  C   UNL     1     -11.850  -0.086   5.389  0.00  0.00    +0.000 A 
ATOM     15  C   UNL     1     -11.398   1.188   7.383  0.00  0.00    +0.000 A 
ATOM     16  C   UNL     1     -10.948   0.392   6.334  0.00  0.00    +0.000 A 
ENDBRANCH  10  11
ENDBRANCH   1  10
TORSDOF 2
ENDMDL
