MODEL 1
REMARK VINA RESULT:    -4.868      0.000      0.000
REMARK INTER + INTRA:          -5.599
REMARK INTER:                  -5.437
REMARK INTRA:                  -0.161
REMARK UNBOUND:                -0.161
REMARK  Name = 1550473
REMARK  2 active torsions:
REMARK  status: ('A' for Active; 'I' for Inactive)
REMARK    1  A    between atoms: N_1  and  C_4
REMARK    2  A    between atoms: C_4  and  C_5
REMARK                            x       y       z     vdW  Elec       q    Type
REMARK                         _______ _______ _______ _____ _____    ______ ____
ROOT
ATOM      1  N   UNL     1      -7.900  -7.412  13.828  0.00  0.00    -0.354 N 
ATOM      2  N   UNL     1     -10.202  -7.292  13.597  0.00  0.00    -0.372 N 
ATOM      3  N   UNL     1      -9.314  -8.781  15.100  0.00  0.00    -0.372 N 
ATOM      4  C   UNL     1      -9.123  -7.831  14.178  0.00  0.00    +0.166 C 
ATOM      5  H   UNL     1      -7.822  -6.710  13.101  0.00  0.00    +0.163 HD
ATOM      6  H   UNL     1     -11.137  -7.586  13.843  0.00  0.00    +0.159 HD
ATOM      7  H   UNL     1     -10.122  -6.558  12.904  0.00  0.00    +0.159 HD
ATOM      8  H   UNL     1      -8.542  -9.233  15.571  0.00  0.00    +0.159 HD
ATOM      9  H   UNL     1     -10.243  -9.097  15.351  0.00  0.00    +0.159 HD
ENDROOT
BRANCH   1  10
ATOM     10  C   UNL     1      -6.664  -7.896  14.439  0.00  0.00    +0.151 C 
BRANCH  10  11
ATOM     11  C   UNL     1      -5.962  -8.808  13.471  0.00  0.00    -0.028 A 
ATOM     12  C   UNL     1      -5.265  -9.935  13.931  0.00  0.00    +0.005 A 
ATOM     13  C   UNL     1      -5.994  -8.553  12.091  0.00  0.00    +0.005 A 
ATOM     14  C   UNL     1      -4.639 -10.799  13.029  0.00  0.00    +0.000 A 
ATOM     15  C   UNL     1      -5.366  -9.418  11.194  0.00  0.00    +0.000 A 
ATOM     16  C   UNL     1      -4.691 -10.542  11.664  0.00  0.00    +0.000 A 
ENDBRANCH  10  11
ENDBRANCH   1  10
TORSDOF 2
ENDMDL
MODEL 2
REMARK VINA RESULT:    -4.834     20.768     22.102
REMARK INTER + INTRA:          -5.560
REMARK INTER:                  -5.453
REMARK INTRA:                  -0.107
REMARK UNBOUND:                -0.161
REMARK  Name = 1550473
REMARK  2 active torsions:
REMARK  status: ('A' for Active; 'I' for Inactive)
REMARK    1  A    between atoms: N_1  and  C_4
REMARK    2  A    between atoms: C_4  and  C_5
REMARK                            x       y       z     vdW  Elec       q    Type
REMARK                         _______ _______ _______ _____ _____    ______ ____
ROOT
ATOM      1  N   UNL     1      -1.315   9.694  20.974  0.00  0.00    -0.354 N 
ATOM      2  N   UNL     1      -0.771   7.765  22.134  0.00  0.00    -0.372 N 
ATOM      3  N   UNL     1      -2.191   7.615  20.339  0.00  0.00    -0.372 N 
ATOM      4  C   UNL     1      -1.431   8.370  21.140  0.00  0.00    +0.166 C 
ATOM      5  H   UNL     1      -0.748  10.214  21.633  0.00  0.00    +0.163 HD
ATOM      6  H   UNL     1      -0.836   6.767  22.282  0.00  0.00    +0.159 HD
ATOM      7  H   UNL     1      -0.167   8.281  22.764  0.00  0.00    +0.159 HD
ATOM      8  H   UNL     1      -2.720   8.011  19.573  0.00  0.00    +0.159 HD
ATOM      9  H   UNL     1      -2.279   6.616  20.478  0.00  0.00    +0.159 HD
ENDROOT
BRANCH   1  10
ATOM     10  C   UNL     1      -1.950  10.441  19.889  0.00  0.00    +0.151 C 
BRANCH  10  11
ATOM     11  C   UNL     1      -1.168  11.700  19.636  0.00  0.00    -0.028 A 
ATOM     12  C   UNL     1      -0.791  12.530  20.701  0.00  0.00    +0.005 A 
ATOM     13  C   UNL     1      -0.795  12.064  18.333  0.00  0.00    +0.005 A 
ATOM     14  C   UNL     1      -0.038  13.684  20.469  0.00  0.00    +0.000 A 
ATOM     15  C   UNL     1      -0.044  13.217  18.106  0.00  0.00    +0.000 A 
ATOM     16  C   UNL     1       0.336  14.026  19.174  0.00  0.00    +0.000 A 
ENDBRANCH  10  11
ENDBRANCH   1  10
TORSDOF 2
ENDMDL
MODEL 3
REMARK VINA RESULT:    -4.810     30.587     31.336
REMARK INTER + INTRA:          -5.533
REMARK INTER:                  -5.400
REMARK INTRA:                  -0.133
REMARK UNBOUND:                -0.161
REMARK  Name = 1550473
REMARK  2 active torsions:
REMARK  status: ('A' for Active; 'I' for Inactive)
REMARK    1  A    between atoms: N_1  and  C_4
REMARK    2  A    between atoms: C_4  and  C_5
REMARK                            x       y       z     vdW  Elec       q    Type
REMARK                         _______ _______ _______ _____ _____    ______ ____
ROOT
ATOM      1  N   UNL     1      -1.966  20.595   1.803  0.00  0.00    -0.354 N 
ATOM      2  N   UNL     1      -1.705  19.747  -0.337  0.00  0.00    -0.372 N 
ATOM      3  N   UNL     1       0.083  19.701   1.100  0.00  0.00    -0.372 N 
ATOM      4  C   UNL     1      -1.195  20.020   0.870  0.00  0.00    +0.166 C 
ATOM      5  H   UNL     1      -2.918  20.839   1.556  0.00  0.00    +0.163 HD
ATOM      6  H   UNL     1      -1.148  19.310  -1.059  0.00  0.00    +0.159 HD
ATOM      7  H   UNL     1      -2.670  19.950  -0.566  0.00  0.00    +0.159 HD
ATOM      8  H   UNL     1       0.530  19.886   1.989  0.00  0.00    +0.159 HD
ATOM      9  H   UNL     1       0.660  19.275   0.386  0.00  0.00    +0.159 HD
ENDROOT
BRANCH   1  10
ATOM     10  C   UNL     1      -1.523  20.884   3.165  0.00  0.00    +0.151 C 
BRANCH  10  11
ATOM     11  C   UNL     1      -2.628  20.539   4.125  0.00  0.00    -0.028 A 
ATOM     12  C   UNL     1      -2.360  20.381   5.492  0.00  0.00    +0.005 A 
ATOM     13  C   UNL     1      -3.947  20.375   3.674  0.00  0.00    +0.005 A 
ATOM     14  C   UNL     1      -3.392  20.089   6.388  0.00  0.00    +0.000 A 
ATOM     15  C   UNL     1      -4.974  20.084   4.571  0.00  0.00    +0.000 A 
ATOM     16  C   UNL     1      -4.696  19.943   5.929  0.00  0.00    +0.000 A 
ENDBRANCH  10  11
ENDBRANCH   1  10
TORSDOF 2
ENDMDL
MODEL 4
REMARK VINA RESULT:    -4.766     16.685     17.968
REMARK INTER + INTRA:          -5.485
REMARK INTER:                  -5.309
REMARK INTRA:                  -0.176
REMARK UNBOUND:                -0.161
REMARK  Name = 1550473
REMARK  2 active torsions:
REMARK  status: ('A' for Active; 'I' for Inactive)
REMARK    1  A    between atoms: N_1  and  C_4
REMARK    2  A    between atoms: C_4  and  C_5
REMARK                            x       y       z     vdW  Elec       q    Type
REMARK                         _______ _______ _______ _____ _____    ______ ____
ROOT
ATOM      1  N   UNL     1     -12.110  -3.780  -3.987  0.00  0.00    -0.354 N 
ATOM      2  N   UNL     1     -12.628  -1.661  -3.209  0.00  0.00    -0.372 N 
ATOM      3  N   UNL     1     -10.981  -2.859  -2.152  0.00  0.00    -0.372 N 
ATOM      4  C   UNL     1     -11.901  -2.781  -3.119  0.00  0.00    +0.166 C 
ATOM      5  H   UNL     1     -12.844  -3.671  -4.678  0.00  0.00    +0.163 HD
ATOM      6  H   UNL     1     -12.490  -0.889  -2.570  0.00  0.00    +0.159 HD
ATOM      7  H   UNL     1     -13.329  -1.536  -3.929  0.00  0.00    +0.159 HD
ATOM      8  H   UNL     1     -10.403  -3.679  -2.027  0.00  0.00    +0.159 HD
ATOM      9  H   UNL     1     -10.836  -2.101  -1.496  0.00  0.00    +0.159 HD
ENDROOT
BRANCH   1  10
ATOM     10  C   UNL     1     -11.336  -5.019  -4.009  0.00  0.00    +0.151 C 
BRANCH  10  11
ATOM     11  C   UNL     1     -12.164  -6.126  -3.417  0.00  0.00    -0.028 A 
ATOM     12  C   UNL     1     -12.976  -6.924  -4.236  0.00  0.00    +0.005 A 
ATOM     13  C   UNL     1     -12.137  -6.386  -2.038  0.00  0.00    +0.005 A 
ATOM     14  C   UNL     1     -13.722  -7.972  -3.690  0.00  0.00    +0.000 A 
ATOM     15  C   UNL     1     -12.884  -7.432  -1.497  0.00  0.00    +0.000 A 
ATOM     16  C   UNL     1     -13.675  -8.226  -2.324  0.00  0.00    +0.000 A 
ENDBRANCH  10  11
ENDBRANCH   1  10
TORSDOF 2
ENDMDL
MODEL 5
REMARK VINA RESULT:    -4.720     33.581     34.436
REMARK INTER + INTRA:          -5.433
REMARK INTER:                  -5.261
REMARK INTRA:                  -0.172
REMARK UNBOUND:                -0.161
REMARK  Name = 1550473
REMARK  2 active torsions:
REMARK  status: ('A' for Active; 'I' for Inactive)
REMARK    1  A    between atoms: N_1  and  C_4
REMARK    2  A    between atoms: C_4  and  C_5
REMARK                            x       y       z     vdW  Elec       q    Type
REMARK                         _______ _______ _______ _____ _____    ______ ____
ROOT
ATOM      1  N   UNL     1      10.851   4.440 -12.101  0.00  0.00    -0.354 N 
ATOM      2  N   UNL     1       9.695   2.483 -12.548  0.00  0.00    -0.372 N 
ATOM      3  N   UNL     1      11.232   3.237 -14.076  0.00  0.00    -0.372 N 
ATOM      4  C   UNL     1      10.602   3.400 -12.908  0.00  0.00    +0.166 C 
ATOM      5  H   UNL     1      10.318   4.522 -11.243  0.00  0.00    +0.163 HD
ATOM      6  H   UNL     1       9.488   1.686 -13.135  0.00  0.00    +0.159 HD
ATOM      7  H   UNL     1       9.197   2.544 -11.669  0.00  0.00    +0.159 HD
ATOM      8  H   UNL     1      11.923   3.896 -14.408  0.00  0.00    +0.159 HD
ATOM      9  H   UNL     1      11.031   2.452 -14.683  0.00  0.00    +0.159 HD
ENDROOT
BRANCH   1  10
ATOM     10  C   UNL     1      11.858   5.464 -12.375  0.00  0.00    +0.151 C 
BRANCH  10  11
ATOM     11  C   UNL     1      12.999   5.301 -11.409  0.00  0.00    -0.028 A 
ATOM     12  C   UNL     1      14.050   4.416 -11.692  0.00  0.00    +0.005 A 
ATOM     13  C   UNL     1      13.038   6.034 -10.213  0.00  0.00    +0.005 A 
ATOM     14  C   UNL     1      15.125   4.287 -10.809  0.00  0.00    +0.000 A 
ATOM     15  C   UNL     1      14.113   5.901  -9.334  0.00  0.00    +0.000 A 
ATOM     16  C   UNL     1      15.157   5.030  -9.633  0.00  0.00    +0.000 A 
ENDBRANCH  10  11
ENDBRANCH   1  10
TORSDOF 2
ENDMDL
MODEL 6
REMARK VINA RESULT:    -4.713     18.031     19.292
REMARK INTER + INTRA:          -5.425
REMARK INTER:                  -5.311
REMARK INTRA:                  -0.114
REMARK UNBOUND:                -0.161
REMARK  Name = 1550473
REMARK  2 active torsions:
REMARK  status: ('A' for Active; 'I' for Inactive)
REMARK    1  A    between atoms: N_1  and  C_4
REMARK    2  A    between atoms: C_4  and  C_5
REMARK                            x       y       z     vdW  Elec       q    Type
REMARK                         _______ _______ _______ _____ _____    ______ ____
ROOT
ATOM      1  N   UNL     1     -11.866  -4.050  -3.607  0.00  0.00    -0.354 N 
ATOM      2  N   UNL     1     -11.571  -1.969  -2.634  0.00  0.00    -0.372 N 
ATOM      3  N   UNL     1     -11.237  -3.847  -1.359  0.00  0.00    -0.372 N 
ATOM      4  C   UNL     1     -11.560  -3.304  -2.537  0.00  0.00    +0.166 C 
ATOM      5  H   UNL     1     -12.132  -3.578  -4.463  0.00  0.00    +0.163 HD
ATOM      6  H   UNL     1     -11.341  -1.380  -1.845  0.00  0.00    +0.159 HD
ATOM      7  H   UNL     1     -11.792  -1.500  -3.504  0.00  0.00    +0.159 HD
ATOM      8  H   UNL     1     -11.216  -4.848  -1.218  0.00  0.00    +0.159 HD
ATOM      9  H   UNL     1     -11.015  -3.274  -0.554  0.00  0.00    +0.159 HD
ENDROOT
BRANCH   1  10
ATOM     10  C   UNL     1     -11.831  -5.512  -3.622  0.00  0.00    +0.151 C 
BRANCH  10  11
ATOM     11  C   UNL     1     -12.028  -5.993  -5.033  0.00  0.00    -0.028 A 
ATOM     12  C   UNL     1     -12.813  -7.126  -5.296  0.00  0.00    +0.005 A 
ATOM     13  C   UNL     1     -11.436  -5.319  -6.112  0.00  0.00    +0.005 A 
ATOM     14  C   UNL     1     -13.020  -7.556  -6.608  0.00  0.00    +0.000 A 
ATOM     15  C   UNL     1     -11.645  -5.752  -7.421  0.00  0.00    +0.000 A 
ATOM     16  C   UNL     1     -12.439  -6.869  -7.669  0.00  0.00    +0.000 A 
ENDBRANCH  10  11
ENDBRANCH   1  10
TORSDOF 2
ENDMDL
MODEL 7
REMARK VINA RESULT:    -4.698     22.299     23.571
REMARK INTER + INTRA:          -5.408
REMARK INTER:                  -5.288
REMARK INTRA:                  -0.120
REMARK UNBOUND:                -0.161
REMARK  Name = 1550473
REMARK  2 active torsions:
REMARK  status: ('A' for Active; 'I' for Inactive)
REMARK    1  A    between atoms: N_1  and  C_4
REMARK    2  A    between atoms: C_4  and  C_5
REMARK                            x       y       z     vdW  Elec       q    Type
REMARK                         _______ _______ _______ _____ _____    ______ ____
ROOT
ATOM      1  N   UNL     1     -12.898 -17.684  -8.436  0.00  0.00    -0.354 N 
ATOM      2  N   UNL     1     -11.720 -19.124  -9.815  0.00  0.00    -0.372 N 
ATOM      3  N   UNL     1     -13.775 -19.774  -9.029  0.00  0.00    -0.372 N 
ATOM      4  C   UNL     1     -12.808 -18.853  -9.083  0.00  0.00    +0.166 C 
ATOM      5  H   UNL     1     -12.117 -17.040  -8.493  0.00  0.00    +0.163 HD
ATOM      6  H   UNL     1     -11.625 -19.997 -10.317  0.00  0.00    +0.159 HD
ATOM      7  H   UNL     1     -10.961 -18.460  -9.908  0.00  0.00    +0.159 HD
ATOM      8  H   UNL     1     -14.619 -19.633  -8.490  0.00  0.00    +0.159 HD
ATOM      9  H   UNL     1     -13.694 -20.658  -9.515  0.00  0.00    +0.159 HD
ENDROOT
BRANCH   1  10
ATOM     10  C   UNL     1     -14.063 -17.269  -7.656  0.00  0.00    +0.151 C 
BRANCH  10  11
ATOM     11  C   UNL     1     -13.787 -15.926  -7.038  0.00  0.00    -0.028 A 
ATOM     12  C   UNL     1     -12.789 -15.092  -7.562  0.00  0.00    +0.005 A 
ATOM     13  C   UNL     1     -14.525 -15.479  -5.931  0.00  0.00    +0.005 A 
ATOM     14  C   UNL     1     -12.552 -13.832  -7.007  0.00  0.00    +0.000 A 
ATOM     15  C   UNL     1     -14.285 -14.221  -5.378  0.00  0.00    +0.000 A 
ATOM     16  C   UNL     1     -13.301 -13.397  -5.918  0.00  0.00    +0.000 A 
ENDBRANCH  10  11
ENDBRANCH   1  10
TORSDOF 2
ENDMDL
MODEL 8
REMARK VINA RESULT:    -4.543     32.723     33.651
REMARK INTER + INTRA:          -5.235
REMARK INTER:                  -5.087
REMARK INTRA:                  -0.148
REMARK UNBOUND:                -0.161
REMARK  Name = 1550473
REMARK  2 active torsions:
REMARK  status: ('A' for Active; 'I' for Inactive)
REMARK    1  A    between atoms: N_1  and  C_4
REMARK    2  A    between atoms: C_4  and  C_5
REMARK                            x       y       z     vdW  Elec       q    Type
REMARK                         _______ _______ _______ _____ _____    ______ ____
ROOT
ATOM      1  N   UNL     1      11.498   6.547 -11.558  0.00  0.00    -0.354 N 
ATOM      2  N   UNL     1      12.209   7.876  -9.800  0.00  0.00    -0.372 N 
ATOM      3  N   UNL     1      12.936   5.703  -9.912  0.00  0.00    -0.372 N 
ATOM      4  C   UNL     1      12.211   6.697 -10.434  0.00  0.00    +0.166 C 
ATOM      5  H   UNL     1      10.945   7.331 -11.886  0.00  0.00    +0.163 HD
ATOM      6  H   UNL     1      12.740   8.021  -8.952  0.00  0.00    +0.159 HD
ATOM      7  H   UNL     1      11.692   8.672 -10.155  0.00  0.00    +0.159 HD
ATOM      8  H   UNL     1      12.974   4.787 -10.338  0.00  0.00    +0.159 HD
ATOM      9  H   UNL     1      13.464   5.824  -9.057  0.00  0.00    +0.159 HD
ENDROOT
BRANCH   1  10
ATOM     10  C   UNL     1      11.474   5.321 -12.354  0.00  0.00    +0.151 C 
BRANCH  10  11
ATOM     11  C   UNL     1      10.071   4.780 -12.382  0.00  0.00    -0.028 A 
ATOM     12  C   UNL     1       8.972   5.649 -12.311  0.00  0.00    +0.005 A 
ATOM     13  C   UNL     1       9.834   3.401 -12.486  0.00  0.00    +0.005 A 
ATOM     14  C   UNL     1       7.669   5.149 -12.368  0.00  0.00    +0.000 A 
ATOM     15  C   UNL     1       8.531   2.906 -12.542  0.00  0.00    +0.000 A 
ATOM     16  C   UNL     1       7.449   3.781 -12.485  0.00  0.00    +0.000 A 
ENDBRANCH  10  11
ENDBRANCH   1  10
TORSDOF 2
ENDMDL
MODEL 9
REMARK VINA RESULT:    -4.498      3.646      5.293
REMARK INTER + INTRA:          -5.186
REMARK INTER:                  -5.046
REMARK INTRA:                  -0.140
REMARK UNBOUND:                -0.161
REMARK  Name = 1550473
REMARK  2 active torsions:
REMARK  status: ('A' for Active; 'I' for Inactive)
REMARK    1  A    between atoms: N_1  and  C_4
REMARK    2  A    between atoms: C_4  and  C_5
REMARK                            x       y       z     vdW  Elec       q    Type
REMARK                         _______ _______ _______ _____ _____    ______ ____
ROOT
ATOM      1  N   UNL     1      -5.288 -12.047  11.777  0.00  0.00    -0.354 N 
ATOM      2  N   UNL     1      -3.222 -13.069  11.553  0.00  0.00    -0.372 N 
ATOM      3  N   UNL     1      -3.571 -11.038  10.543  0.00  0.00    -0.372 N 
ATOM      4  C   UNL     1      -4.040 -12.042  11.291  0.00  0.00    +0.166 C 
ATOM      5  H   UNL     1      -5.593 -12.852  12.312  0.00  0.00    +0.163 HD
ATOM      6  H   UNL     1      -2.273 -13.091  11.203  0.00  0.00    +0.159 HD
ATOM      7  H   UNL     1      -3.514 -13.850  12.127  0.00  0.00    +0.159 HD
ATOM      8  H   UNL     1      -4.140 -10.237  10.304  0.00  0.00    +0.159 HD
ATOM      9  H   UNL     1      -2.628 -11.048  10.174  0.00  0.00    +0.159 HD
ENDROOT
BRANCH   1  10
ATOM     10  C   UNL     1      -6.241 -10.954  11.595  0.00  0.00    +0.151 C 
BRANCH  10  11
ATOM     11  C   UNL     1      -6.171 -10.038  12.785  0.00  0.00    -0.028 A 
ATOM     12  C   UNL     1      -6.420  -8.665  12.642  0.00  0.00    +0.005 A 
ATOM     13  C   UNL     1      -5.862 -10.537  14.060  0.00  0.00    +0.005 A 
ATOM     14  C   UNL     1      -6.385  -7.818  13.753  0.00  0.00    +0.000 A 
ATOM     15  C   UNL     1      -5.827  -9.688  15.166  0.00  0.00    +0.000 A 
ATOM     16  C   UNL     1      -6.091  -8.329  15.012  0.00  0.00    +0.000 A 
ENDBRANCH  10  11
ENDBRANCH   1  10
TORSDOF 2
ENDMDL
