MODEL 1
REMARK VINA RESULT:    -5.319      0.000      0.000
REMARK INTER + INTRA:          -6.065
REMARK INTER:                  -5.941
REMARK INTRA:                  -0.123
REMARK UNBOUND:                -0.123
REMARK  Name = 1550473
REMARK  2 active torsions:
REMARK  status: ('A' for Active; 'I' for Inactive)
REMARK    1  A    between atoms: N_1  and  C_4
REMARK    2  A    between atoms: C_4  and  C_5
REMARK                            x       y       z     vdW  Elec       q    Type
REMARK                         _______ _______ _______ _____ _____    ______ ____
ROOT
ATOM      1  N   UNL     1     -14.857 -15.659  -0.772  0.00  0.00    -0.354 N 
ATOM      2  N   UNL     1     -15.051 -15.471   1.529  0.00  0.00    -0.372 N 
ATOM      3  N   UNL     1     -15.180 -17.552   0.571  0.00  0.00    -0.372 N 
ATOM      4  C   UNL     1     -15.029 -16.231   0.427  0.00  0.00    +0.166 C 
ATOM      5  H   UNL     1     -14.779 -14.650  -0.816  0.00  0.00    +0.163 HD
ATOM      6  H   UNL     1     -15.175 -15.875   2.447  0.00  0.00    +0.159 HD
ATOM      7  H   UNL     1     -14.926 -14.467   1.485  0.00  0.00    +0.159 HD
ATOM      8  H   UNL     1     -15.178 -18.181  -0.221  0.00  0.00    +0.159 HD
ATOM      9  H   UNL     1     -15.317 -17.974   1.481  0.00  0.00    +0.159 HD
ENDROOT
BRANCH   1  10
ATOM     10  C   UNL     1     -14.764 -16.403  -2.027  0.00  0.00    +0.151 C 
BRANCH  10  11
ATOM     11  C   UNL     1     -14.064 -15.552  -3.051  0.00  0.00    -0.028 A 
ATOM     12  C   UNL     1     -13.091 -14.621  -2.658  0.00  0.00    +0.005 A 
ATOM     13  C   UNL     1     -14.366 -15.676  -4.416  0.00  0.00    +0.005 A 
ATOM     14  C   UNL     1     -12.420 -13.852  -3.612  0.00  0.00    +0.000 A 
ATOM     15  C   UNL     1     -13.694 -14.905  -5.365  0.00  0.00    +0.000 A 
ATOM     16  C   UNL     1     -12.719 -13.996  -4.963  0.00  0.00    +0.000 A 
ENDBRANCH  10  11
ENDBRANCH   1  10
TORSDOF 2
ENDMDL
MODEL 2
REMARK VINA RESULT:    -5.291      2.195      3.088
REMARK INTER + INTRA:          -6.033
REMARK INTER:                  -5.881
REMARK INTRA:                  -0.152
REMARK UNBOUND:                -0.123
REMARK  Name = 1550473
REMARK  2 active torsions:
REMARK  status: ('A' for Active; 'I' for Inactive)
REMARK    1  A    between atoms: N_1  and  C_4
REMARK    2  A    between atoms: C_4  and  C_5
REMARK                            x       y       z     vdW  Elec       q    Type
REMARK                         _______ _______ _______ _____ _____    ______ ____
ROOT
ATOM      1  N   UNL     1     -15.225 -17.536  -2.498  0.00  0.00    -0.354 N 
ATOM      2  N   UNL     1     -14.744 -19.718  -1.890  0.00  0.00    -0.372 N 
ATOM      3  N   UNL     1     -15.283 -19.269  -4.074  0.00  0.00    -0.372 N 
ATOM      4  C   UNL     1     -15.088 -18.827  -2.827  0.00  0.00    +0.166 C 
ATOM      5  H   UNL     1     -15.093 -17.270  -1.529  0.00  0.00    +0.163 HD
ATOM      6  H   UNL     1     -14.630 -20.699  -2.109  0.00  0.00    +0.159 HD
ATOM      7  H   UNL     1     -14.567 -19.442  -0.931  0.00  0.00    +0.159 HD
ATOM      8  H   UNL     1     -15.550 -18.648  -4.826  0.00  0.00    +0.159 HD
ATOM      9  H   UNL     1     -15.185 -20.248  -4.311  0.00  0.00    +0.159 HD
ENDROOT
BRANCH   1  10
ATOM     10  C   UNL     1     -15.544 -16.477  -3.454  0.00  0.00    +0.151 C 
BRANCH  10  11
ATOM     11  C   UNL     1     -14.350 -15.576  -3.605  0.00  0.00    -0.028 A 
ATOM     12  C   UNL     1     -13.910 -15.184  -4.878  0.00  0.00    +0.005 A 
ATOM     13  C   UNL     1     -13.657 -15.105  -2.479  0.00  0.00    +0.005 A 
ATOM     14  C   UNL     1     -12.819 -14.323  -5.019  0.00  0.00    +0.000 A 
ATOM     15  C   UNL     1     -12.567 -14.246  -2.624  0.00  0.00    +0.000 A 
ATOM     16  C   UNL     1     -12.150 -13.853  -3.893  0.00  0.00    +0.000 A 
ENDBRANCH  10  11
ENDBRANCH   1  10
TORSDOF 2
ENDMDL
MODEL 3
REMARK VINA RESULT:    -5.161     14.482     15.869
REMARK INTER + INTRA:          -5.888
REMARK INTER:                  -5.759
REMARK INTRA:                  -0.129
REMARK UNBOUND:                -0.123
REMARK  Name = 1550473
REMARK  2 active torsions:
REMARK  status: ('A' for Active; 'I' for Inactive)
REMARK    1  A    between atoms: N_1  and  C_4
REMARK    2  A    between atoms: C_4  and  C_5
REMARK                            x       y       z     vdW  Elec       q    Type
REMARK                         _______ _______ _______ _____ _____    ______ ____
ROOT
ATOM      1  N   UNL     1     -12.172  -0.872  -3.810  0.00  0.00    -0.354 N 
ATOM      2  N   UNL     1     -13.241  -0.925  -5.864  0.00  0.00    -0.372 N 
ATOM      3  N   UNL     1     -13.109  -2.857  -4.632  0.00  0.00    -0.372 N 
ATOM      4  C   UNL     1     -12.834  -1.554  -4.754  0.00  0.00    +0.166 C 
ATOM      5  H   UNL     1     -11.968   0.106  -3.976  0.00  0.00    +0.163 HD
ATOM      6  H   UNL     1     -13.745  -1.413  -6.592  0.00  0.00    +0.159 HD
ATOM      7  H   UNL     1     -13.076   0.063  -6.007  0.00  0.00    +0.159 HD
ATOM      8  H   UNL     1     -12.824  -3.390  -3.821  0.00  0.00    +0.159 HD
ATOM      9  H   UNL     1     -13.603  -3.365  -5.355  0.00  0.00    +0.159 HD
ENDROOT
BRANCH   1  10
ATOM     10  C   UNL     1     -11.733  -1.450  -2.541  0.00  0.00    +0.151 C 
BRANCH  10  11
ATOM     11  C   UNL     1     -11.666  -0.364  -1.503  0.00  0.00    -0.028 A 
ATOM     12  C   UNL     1     -10.860  -0.515  -0.366  0.00  0.00    +0.005 A 
ATOM     13  C   UNL     1     -12.403   0.820  -1.654  0.00  0.00    +0.005 A 
ATOM     14  C   UNL     1     -10.774   0.507   0.584  0.00  0.00    +0.000 A 
ATOM     15  C   UNL     1     -12.316   1.837  -0.703  0.00  0.00    +0.000 A 
ATOM     16  C   UNL     1     -11.500   1.681   0.414  0.00  0.00    +0.000 A 
ENDBRANCH  10  11
ENDBRANCH   1  10
TORSDOF 2
ENDMDL
MODEL 4
REMARK VINA RESULT:    -5.133     17.996     19.326
REMARK INTER + INTRA:          -5.856
REMARK INTER:                  -5.714
REMARK INTRA:                  -0.143
REMARK UNBOUND:                -0.123
REMARK  Name = 1550473
REMARK  2 active torsions:
REMARK  status: ('A' for Active; 'I' for Inactive)
REMARK    1  A    between atoms: N_1  and  C_4
REMARK    2  A    between atoms: C_4  and  C_5
REMARK                            x       y       z     vdW  Elec       q    Type
REMARK                         _______ _______ _______ _____ _____    ______ ____
ROOT
ATOM      1  N   UNL     1      -8.549   3.480  -0.156  0.00  0.00    -0.354 N 
ATOM      2  N   UNL     1      -7.856   5.307   1.086  0.00  0.00    -0.372 N 
ATOM      3  N   UNL     1      -7.617   5.362  -1.195  0.00  0.00    -0.372 N 
ATOM      4  C   UNL     1      -8.011   4.705  -0.099  0.00  0.00    +0.166 C 
ATOM      5  H   UNL     1      -8.799   3.023   0.713  0.00  0.00    +0.163 HD
ATOM      6  H   UNL     1      -7.457   6.233   1.161  0.00  0.00    +0.159 HD
ATOM      7  H   UNL     1      -8.150   4.867   1.950  0.00  0.00    +0.159 HD
ATOM      8  H   UNL     1      -7.701   4.961  -2.119  0.00  0.00    +0.159 HD
ATOM      9  H   UNL     1      -7.204   6.285  -1.140  0.00  0.00    +0.159 HD
ENDROOT
BRANCH   1  10
ATOM     10  C   UNL     1      -8.810   2.758  -1.401  0.00  0.00    +0.151 C 
BRANCH  10  11
ATOM     11  C   UNL     1     -10.227   2.255  -1.389  0.00  0.00    -0.028 A 
ATOM     12  C   UNL     1     -10.711   1.466  -2.442  0.00  0.00    +0.005 A 
ATOM     13  C   UNL     1     -11.089   2.560  -0.324  0.00  0.00    +0.005 A 
ATOM     14  C   UNL     1     -12.018   0.973  -2.417  0.00  0.00    +0.000 A 
ATOM     15  C   UNL     1     -12.393   2.066  -0.303  0.00  0.00    +0.000 A 
ATOM     16  C   UNL     1     -12.857   1.271  -1.348  0.00  0.00    +0.000 A 
ENDBRANCH  10  11
ENDBRANCH   1  10
TORSDOF 2
ENDMDL
MODEL 5
REMARK VINA RESULT:    -5.099     36.788     38.154
REMARK INTER + INTRA:          -5.819
REMARK INTER:                  -5.685
REMARK INTRA:                  -0.133
REMARK UNBOUND:                -0.123
REMARK  Name = 1550473
REMARK  2 active torsions:
REMARK  status: ('A' for Active; 'I' for Inactive)
REMARK    1  A    between atoms: N_1  and  C_4
REMARK    2  A    between atoms: C_4  and  C_5
REMARK                            x       y       z     vdW  Elec       q    Type
REMARK                         _______ _______ _______ _____ _____    ______ ____
ROOT
ATOM      1  N   UNL     1      14.979   7.729   0.835  0.00  0.00    -0.354 N 
ATOM      2  N   UNL     1      16.689   6.167   0.806  0.00  0.00    -0.372 N 
ATOM      3  N   UNL     1      15.115   6.119  -0.863  0.00  0.00    -0.372 N 
ATOM      4  C   UNL     1      15.581   6.681   0.257  0.00  0.00    +0.166 C 
ATOM      5  H   UNL     1      15.365   8.090   1.700  0.00  0.00    +0.163 HD
ATOM      6  H   UNL     1      17.167   5.379   0.391  0.00  0.00    +0.159 HD
ATOM      7  H   UNL     1      17.099   6.559   1.645  0.00  0.00    +0.159 HD
ATOM      8  H   UNL     1      14.280   6.456  -1.323  0.00  0.00    +0.159 HD
ATOM      9  H   UNL     1      15.573   5.322  -1.287  0.00  0.00    +0.159 HD
ENDROOT
BRANCH   1  10
ATOM     10  C   UNL     1      13.799   8.397   0.289  0.00  0.00    +0.151 C 
BRANCH  10  11
ATOM     11  C   UNL     1      13.886   9.868   0.585  0.00  0.00    -0.028 A 
ATOM     12  C   UNL     1      12.743  10.678   0.516  0.00  0.00    +0.005 A 
ATOM     13  C   UNL     1      15.109  10.459   0.942  0.00  0.00    +0.005 A 
ATOM     14  C   UNL     1      12.818  12.039   0.821  0.00  0.00    +0.000 A 
ATOM     15  C   UNL     1      15.180  11.818   1.244  0.00  0.00    +0.000 A 
ATOM     16  C   UNL     1      14.034  12.608   1.186  0.00  0.00    +0.000 A 
ENDBRANCH  10  11
ENDBRANCH   1  10
TORSDOF 2
ENDMDL
MODEL 6
REMARK VINA RESULT:    -5.095     36.408     37.523
REMARK INTER + INTRA:          -5.814
REMARK INTER:                  -5.729
REMARK INTRA:                  -0.085
REMARK UNBOUND:                -0.123
REMARK  Name = 1550473
REMARK  2 active torsions:
REMARK  status: ('A' for Active; 'I' for Inactive)
REMARK    1  A    between atoms: N_1  and  C_4
REMARK    2  A    between atoms: C_4  and  C_5
REMARK                            x       y       z     vdW  Elec       q    Type
REMARK                         _______ _______ _______ _____ _____    ______ ____
ROOT
ATOM      1  N   UNL     1      16.084   7.741   0.844  0.00  0.00    -0.354 N 
ATOM      2  N   UNL     1      16.961   6.078  -0.509  0.00  0.00    -0.372 N 
ATOM      3  N   UNL     1      15.232   5.558   0.907  0.00  0.00    -0.372 N 
ATOM      4  C   UNL     1      16.085   6.468   0.424  0.00  0.00    +0.166 C 
ATOM      5  H   UNL     1      16.776   8.374   0.461  0.00  0.00    +0.163 HD
ATOM      6  H   UNL     1      16.983   5.126  -0.848  0.00  0.00    +0.159 HD
ATOM      7  H   UNL     1      17.621   6.725  -0.924  0.00  0.00    +0.159 HD
ATOM      8  H   UNL     1      14.550   5.787   1.617  0.00  0.00    +0.159 HD
ATOM      9  H   UNL     1      15.247   4.597   0.589  0.00  0.00    +0.159 HD
ENDROOT
BRANCH   1  10
ATOM     10  C   UNL     1      15.136   8.280   1.817  0.00  0.00    +0.151 C 
BRANCH  10  11
ATOM     11  C   UNL     1      14.124   9.129   1.099  0.00  0.00    -0.028 A 
ATOM     12  C   UNL     1      13.941  10.473   1.455  0.00  0.00    +0.005 A 
ATOM     13  C   UNL     1      13.348   8.597   0.058  0.00  0.00    +0.005 A 
ATOM     14  C   UNL     1      13.023  11.271   0.768  0.00  0.00    +0.000 A 
ATOM     15  C   UNL     1      12.432   9.396  -0.625  0.00  0.00    +0.000 A 
ATOM     16  C   UNL     1      12.271  10.733  -0.272  0.00  0.00    +0.000 A 
ENDBRANCH  10  11
ENDBRANCH   1  10
TORSDOF 2
ENDMDL
MODEL 7
REMARK VINA RESULT:    -4.977      3.723      5.160
REMARK INTER + INTRA:          -5.682
REMARK INTER:                  -5.588
REMARK INTRA:                  -0.095
REMARK UNBOUND:                -0.123
REMARK  Name = 1550473
REMARK  2 active torsions:
REMARK  status: ('A' for Active; 'I' for Inactive)
REMARK    1  A    between atoms: N_1  and  C_4
REMARK    2  A    between atoms: C_4  and  C_5
REMARK                            x       y       z     vdW  Elec       q    Type
REMARK                         _______ _______ _______ _____ _____    ______ ____
ROOT
ATOM      1  N   UNL     1     -16.083 -15.048  -5.910  0.00  0.00    -0.354 N 
ATOM      2  N   UNL     1     -17.933 -14.308  -7.091  0.00  0.00    -0.372 N 
ATOM      3  N   UNL     1     -16.442 -15.711  -8.129  0.00  0.00    -0.372 N 
ATOM      4  C   UNL     1     -16.806 -15.029  -7.038  0.00  0.00    +0.166 C 
ATOM      5  H   UNL     1     -16.397 -14.485  -5.127  0.00  0.00    +0.163 HD
ATOM      6  H   UNL     1     -18.501 -14.277  -7.928  0.00  0.00    +0.159 HD
ATOM      7  H   UNL     1     -18.268 -13.783  -6.293  0.00  0.00    +0.159 HD
ATOM      8  H   UNL     1     -15.599 -16.269  -8.155  0.00  0.00    +0.159 HD
ATOM      9  H   UNL     1     -16.991 -15.683  -8.979  0.00  0.00    +0.159 HD
ENDROOT
BRANCH   1  10
ATOM     10  C   UNL     1     -14.870 -15.843  -5.730  0.00  0.00    +0.151 C 
BRANCH  10  11
ATOM     11  C   UNL     1     -14.060 -15.256  -4.607  0.00  0.00    -0.028 A 
ATOM     12  C   UNL     1     -14.301 -15.640  -3.279  0.00  0.00    +0.005 A 
ATOM     13  C   UNL     1     -13.047 -14.320  -4.864  0.00  0.00    +0.005 A 
ATOM     14  C   UNL     1     -13.530 -15.117  -2.238  0.00  0.00    +0.000 A 
ATOM     15  C   UNL     1     -12.279 -13.800  -3.821  0.00  0.00    +0.000 A 
ATOM     16  C   UNL     1     -12.519 -14.201  -2.509  0.00  0.00    +0.000 A 
ENDBRANCH  10  11
ENDBRANCH   1  10
TORSDOF 2
ENDMDL
MODEL 8
REMARK VINA RESULT:    -4.965     37.680     38.984
REMARK INTER + INTRA:          -5.669
REMARK INTER:                  -5.573
REMARK INTRA:                  -0.097
REMARK UNBOUND:                -0.123
REMARK  Name = 1550473
REMARK  2 active torsions:
REMARK  status: ('A' for Active; 'I' for Inactive)
REMARK    1  A    between atoms: N_1  and  C_4
REMARK    2  A    between atoms: C_4  and  C_5
REMARK                            x       y       z     vdW  Elec       q    Type
REMARK                         _______ _______ _______ _____ _____    ______ ____
ROOT
ATOM      1  N   UNL     1      14.498  11.836   0.260  0.00  0.00    -0.354 N 
ATOM      2  N   UNL     1      14.808  13.998   1.032  0.00  0.00    -0.372 N 
ATOM      3  N   UNL     1      12.845  12.916   1.522  0.00  0.00    -0.372 N 
ATOM      4  C   UNL     1      14.045  12.902   0.934  0.00  0.00    +0.166 C 
ATOM      5  H   UNL     1      15.404  11.900  -0.189  0.00  0.00    +0.163 HD
ATOM      6  H   UNL     1      14.495  14.816   1.537  0.00  0.00    +0.159 HD
ATOM      7  H   UNL     1      15.733  14.042   0.621  0.00  0.00    +0.159 HD
ATOM      8  H   UNL     1      12.218  12.123   1.480  0.00  0.00    +0.159 HD
ATOM      9  H   UNL     1      12.509  13.730   2.022  0.00  0.00    +0.159 HD
ENDROOT
BRANCH   1  10
ATOM     10  C   UNL     1      13.768  10.575   0.139  0.00  0.00    +0.151 C 
BRANCH  10  11
ATOM     11  C   UNL     1      14.499   9.510   0.909  0.00  0.00    -0.028 A 
ATOM     12  C   UNL     1      14.125   8.163   0.789  0.00  0.00    +0.005 A 
ATOM     13  C   UNL     1      15.568   9.840   1.755  0.00  0.00    +0.005 A 
ATOM     14  C   UNL     1      14.823   7.170   1.481  0.00  0.00    +0.000 A 
ATOM     15  C   UNL     1      16.262   8.845   2.444  0.00  0.00    +0.000 A 
ATOM     16  C   UNL     1      15.890   7.510   2.305  0.00  0.00    +0.000 A 
ENDBRANCH  10  11
ENDBRANCH   1  10
TORSDOF 2
ENDMDL
MODEL 9
REMARK VINA RESULT:    -4.862     21.946     22.827
REMARK INTER + INTRA:          -5.554
REMARK INTER:                  -5.458
REMARK INTRA:                  -0.096
REMARK UNBOUND:                -0.123
REMARK  Name = 1550473
REMARK  2 active torsions:
REMARK  status: ('A' for Active; 'I' for Inactive)
REMARK    1  A    between atoms: N_1  and  C_4
REMARK    2  A    between atoms: C_4  and  C_5
REMARK                            x       y       z     vdW  Elec       q    Type
REMARK                         _______ _______ _______ _____ _____    ______ ____
ROOT
ATOM      1  N   UNL     1       8.570 -14.500   3.491  0.00  0.00    -0.354 N 
ATOM      2  N   UNL     1       9.046 -12.676   4.837  0.00  0.00    -0.372 N 
ATOM      3  N   UNL     1      10.414 -14.515   4.937  0.00  0.00    -0.372 N 
ATOM      4  C   UNL     1       9.342 -13.911   4.413  0.00  0.00    +0.166 C 
ATOM      5  H   UNL     1       7.754 -14.001   3.156  0.00  0.00    +0.163 HD
ATOM      6  H   UNL     1       9.612 -12.205   5.529  0.00  0.00    +0.159 HD
ATOM      7  H   UNL     1       8.256 -12.161   4.467  0.00  0.00    +0.159 HD
ATOM      8  H   UNL     1      10.688 -15.450   4.664  0.00  0.00    +0.159 HD
ATOM      9  H   UNL     1      10.986 -14.065   5.639  0.00  0.00    +0.159 HD
ENDROOT
BRANCH   1  10
ATOM     10  C   UNL     1       8.836 -15.821   2.924  0.00  0.00    +0.151 C 
BRANCH  10  11
ATOM     11  C   UNL     1       7.946 -16.032   1.730  0.00  0.00    -0.028 A 
ATOM     12  C   UNL     1       6.812 -16.852   1.824  0.00  0.00    +0.005 A 
ATOM     13  C   UNL     1       8.227 -15.410   0.504  0.00  0.00    +0.005 A 
ATOM     14  C   UNL     1       5.968 -17.024   0.724  0.00  0.00    +0.000 A 
ATOM     15  C   UNL     1       7.383 -15.585  -0.592  0.00  0.00    +0.000 A 
ATOM     16  C   UNL     1       6.252 -16.390  -0.481  0.00  0.00    +0.000 A 
ENDBRANCH  10  11
ENDBRANCH   1  10
TORSDOF 2
ENDMDL
