MODEL 1
REMARK VINA RESULT:    -6.258      0.000      0.000
REMARK INTER + INTRA:          -7.145
REMARK INTER:                  -6.990
REMARK INTRA:                  -0.155
REMARK UNBOUND:                -0.155
REMARK  Name = 1550473
REMARK  2 active torsions:
REMARK  status: ('A' for Active; 'I' for Inactive)
REMARK    1  A    between atoms: N_1  and  C_4
REMARK    2  A    between atoms: C_4  and  C_5
REMARK                            x       y       z     vdW  Elec       q    Type
REMARK                         _______ _______ _______ _____ _____    ______ ____
ROOT
ATOM      1  N   UNL     1      -9.491   8.430  10.379  0.00  0.00    -0.354 N 
ATOM      2  N   UNL     1     -10.998  10.060   9.717  0.00  0.00    -0.372 N 
ATOM      3  N   UNL     1      -9.129  10.688  10.891  0.00  0.00    -0.372 N 
ATOM      4  C   UNL     1      -9.861   9.716  10.335  0.00  0.00    +0.166 C 
ATOM      5  H   UNL     1     -10.105   7.738   9.964  0.00  0.00    +0.163 HD
ATOM      6  H   UNL     1     -11.301  11.023   9.665  0.00  0.00    +0.159 HD
ATOM      7  H   UNL     1     -11.586   9.371   9.264  0.00  0.00    +0.159 HD
ATOM      8  H   UNL     1      -8.264  10.494  11.378  0.00  0.00    +0.159 HD
ATOM      9  H   UNL     1      -9.421  11.656  10.860  0.00  0.00    +0.159 HD
ENDROOT
BRANCH   1  10
ATOM     10  C   UNL     1      -8.245   7.957  10.980  0.00  0.00    +0.151 C 
BRANCH  10  11
ATOM     11  C   UNL     1      -7.237   7.713   9.892  0.00  0.00    -0.028 A 
ATOM     12  C   UNL     1      -5.865   7.858  10.147  0.00  0.00    +0.005 A 
ATOM     13  C   UNL     1      -7.645   7.329   8.606  0.00  0.00    +0.005 A 
ATOM     14  C   UNL     1      -4.926   7.602   9.145  0.00  0.00    +0.000 A 
ATOM     15  C   UNL     1      -6.705   7.076   7.607  0.00  0.00    +0.000 A 
ATOM     16  C   UNL     1      -5.345   7.210   7.878  0.00  0.00    +0.000 A 
ENDBRANCH  10  11
ENDBRANCH   1  10
TORSDOF 2
ENDMDL
MODEL 2
REMARK VINA RESULT:    -5.791     21.731     23.147
REMARK INTER + INTRA:          -6.623
REMARK INTER:                  -6.485
REMARK INTRA:                  -0.138
REMARK UNBOUND:                -0.155
REMARK  Name = 1550473
REMARK  2 active torsions:
REMARK  status: ('A' for Active; 'I' for Inactive)
REMARK    1  A    between atoms: N_1  and  C_4
REMARK    2  A    between atoms: C_4  and  C_5
REMARK                            x       y       z     vdW  Elec       q    Type
REMARK                         _______ _______ _______ _____ _____    ______ ____
ROOT
ATOM      1  N   UNL     1     -14.428  -1.316 -11.204  0.00  0.00    -0.354 N 
ATOM      2  N   UNL     1     -13.901  -3.215 -12.421  0.00  0.00    -0.372 N 
ATOM      3  N   UNL     1     -15.229  -1.612 -13.386  0.00  0.00    -0.372 N 
ATOM      4  C   UNL     1     -14.525  -2.034 -12.331  0.00  0.00    +0.166 C 
ATOM      5  H   UNL     1     -13.904  -1.706 -10.428  0.00  0.00    +0.163 HD
ATOM      6  H   UNL     1     -13.953  -3.777 -13.260  0.00  0.00    +0.159 HD
ATOM      7  H   UNL     1     -13.340  -3.581 -11.661  0.00  0.00    +0.159 HD
ATOM      8  H   UNL     1     -15.728  -0.732 -13.380  0.00  0.00    +0.159 HD
ATOM      9  H   UNL     1     -15.303  -2.166 -14.230  0.00  0.00    +0.159 HD
ENDROOT
BRANCH   1  10
ATOM     10  C   UNL     1     -15.025   0.006 -11.023  0.00  0.00    +0.151 C 
BRANCH  10  11
ATOM     11  C   UNL     1     -14.009   0.922 -10.398  0.00  0.00    -0.028 A 
ATOM     12  C   UNL     1     -12.642   0.761 -10.670  0.00  0.00    +0.005 A 
ATOM     13  C   UNL     1     -14.407   1.955  -9.536  0.00  0.00    +0.005 A 
ATOM     14  C   UNL     1     -11.701   1.630 -10.114  0.00  0.00    +0.000 A 
ATOM     15  C   UNL     1     -13.463   2.820  -8.982  0.00  0.00    +0.000 A 
ATOM     16  C   UNL     1     -12.111   2.659  -9.273  0.00  0.00    +0.000 A 
ENDBRANCH  10  11
ENDBRANCH   1  10
TORSDOF 2
ENDMDL
MODEL 3
REMARK VINA RESULT:    -5.764     37.332     39.038
REMARK INTER + INTRA:          -6.592
REMARK INTER:                  -6.420
REMARK INTRA:                  -0.172
REMARK UNBOUND:                -0.155
REMARK  Name = 1550473
REMARK  2 active torsions:
REMARK  status: ('A' for Active; 'I' for Inactive)
REMARK    1  A    between atoms: N_1  and  C_4
REMARK    2  A    between atoms: C_4  and  C_5
REMARK                            x       y       z     vdW  Elec       q    Type
REMARK                         _______ _______ _______ _____ _____    ______ ____
ROOT
ATOM      1  N   UNL     1       8.010 -14.465 -18.976  0.00  0.00    -0.354 N 
ATOM      2  N   UNL     1       8.022 -13.489 -21.077  0.00  0.00    -0.372 N 
ATOM      3  N   UNL     1       9.914 -14.558 -20.340  0.00  0.00    -0.372 N 
ATOM      4  C   UNL     1       8.652 -14.178 -20.117  0.00  0.00    +0.166 C 
ATOM      5  H   UNL     1       7.064 -14.122 -18.857  0.00  0.00    +0.163 HD
ATOM      6  H   UNL     1       8.479 -13.261 -21.949  0.00  0.00    +0.159 HD
ATOM      7  H   UNL     1       7.061 -13.187 -20.973  0.00  0.00    +0.159 HD
ATOM      8  H   UNL     1      10.447 -15.076 -19.653  0.00  0.00    +0.159 HD
ATOM      9  H   UNL     1      10.392 -14.329 -21.202  0.00  0.00    +0.159 HD
ENDROOT
BRANCH   1  10
ATOM     10  C   UNL     1       8.588 -15.256 -17.891  0.00  0.00    +0.151 C 
BRANCH  10  11
ATOM     11  C   UNL     1       8.953 -14.340 -16.756  0.00  0.00    -0.028 A 
ATOM     12  C   UNL     1      10.283 -14.234 -16.326  0.00  0.00    +0.005 A 
ATOM     13  C   UNL     1       7.973 -13.570 -16.110  0.00  0.00    +0.005 A 
ATOM     14  C   UNL     1      10.628 -13.361 -15.291  0.00  0.00    +0.000 A 
ATOM     15  C   UNL     1       8.321 -12.699 -15.077  0.00  0.00    +0.000 A 
ATOM     16  C   UNL     1       9.648 -12.593 -14.670  0.00  0.00    +0.000 A 
ENDBRANCH  10  11
ENDBRANCH   1  10
TORSDOF 2
ENDMDL
MODEL 4
REMARK VINA RESULT:    -5.732     20.160     21.770
REMARK INTER + INTRA:          -6.557
REMARK INTER:                  -6.429
REMARK INTRA:                  -0.128
REMARK UNBOUND:                -0.155
REMARK  Name = 1550473
REMARK  2 active torsions:
REMARK  status: ('A' for Active; 'I' for Inactive)
REMARK    1  A    between atoms: N_1  and  C_4
REMARK    2  A    between atoms: C_4  and  C_5
REMARK                            x       y       z     vdW  Elec       q    Type
REMARK                         _______ _______ _______ _____ _____    ______ ____
ROOT
ATOM      1  N   UNL     1      -0.396  -6.637  -2.439  0.00  0.00    -0.354 N 
ATOM      2  N   UNL     1      -1.761  -5.985  -0.684  0.00  0.00    -0.372 N 
ATOM      3  N   UNL     1      -0.167  -4.524  -1.452  0.00  0.00    -0.372 N 
ATOM      4  C   UNL     1      -0.764  -5.717  -1.537  0.00  0.00    +0.166 C 
ATOM      5  H   UNL     1      -0.868  -7.534  -2.431  0.00  0.00    +0.163 HD
ATOM      6  H   UNL     1      -2.063  -5.310   0.005  0.00  0.00    +0.159 HD
ATOM      7  H   UNL     1      -2.262  -6.865  -0.710  0.00  0.00    +0.159 HD
ATOM      8  H   UNL     1       0.595  -4.262  -2.062  0.00  0.00    +0.159 HD
ATOM      9  H   UNL     1      -0.447  -3.839  -0.761  0.00  0.00    +0.159 HD
ENDROOT
BRANCH   1  10
ATOM     10  C   UNL     1       0.641  -6.425  -3.447  0.00  0.00    +0.151 C 
BRANCH  10  11
ATOM     11  C   UNL     1       0.119  -6.862  -4.788  0.00  0.00    -0.028 A 
ATOM     12  C   UNL     1       0.457  -6.153  -5.949  0.00  0.00    +0.005 A 
ATOM     13  C   UNL     1      -0.709  -7.989  -4.904  0.00  0.00    +0.005 A 
ATOM     14  C   UNL     1      -0.002  -6.576  -7.199  0.00  0.00    +0.000 A 
ATOM     15  C   UNL     1      -1.166  -8.409  -6.153  0.00  0.00    +0.000 A 
ATOM     16  C   UNL     1      -0.811  -7.703  -7.300  0.00  0.00    +0.000 A 
ENDBRANCH  10  11
ENDBRANCH   1  10
TORSDOF 2
ENDMDL
MODEL 5
REMARK VINA RESULT:    -5.460     20.370     22.046
REMARK INTER + INTRA:          -6.253
REMARK INTER:                  -6.108
REMARK INTRA:                  -0.145
REMARK UNBOUND:                -0.155
REMARK  Name = 1550473
REMARK  2 active torsions:
REMARK  status: ('A' for Active; 'I' for Inactive)
REMARK    1  A    between atoms: N_1  and  C_4
REMARK    2  A    between atoms: C_4  and  C_5
REMARK                            x       y       z     vdW  Elec       q    Type
REMARK                         _______ _______ _______ _____ _____    ______ ____
ROOT
ATOM      1  N   UNL     1       1.341  -6.239  -2.588  0.00  0.00    -0.354 N 
ATOM      2  N   UNL     1       1.747  -7.291  -0.564  0.00  0.00    -0.372 N 
ATOM      3  N   UNL     1      -0.127  -5.984  -0.779  0.00  0.00    -0.372 N 
ATOM      4  C   UNL     1       0.982  -6.496  -1.323  0.00  0.00    +0.166 C 
ATOM      5  H   UNL     1       2.210  -6.634  -2.931  0.00  0.00    +0.163 HD
ATOM      6  H   UNL     1       1.499  -7.506   0.392  0.00  0.00    +0.159 HD
ATOM      7  H   UNL     1       2.590  -7.721  -0.925  0.00  0.00    +0.159 HD
ATOM      8  H   UNL     1      -0.744  -5.373  -1.297  0.00  0.00    +0.159 HD
ATOM      9  H   UNL     1      -0.386  -6.178   0.180  0.00  0.00    +0.159 HD
ENDROOT
BRANCH   1  10
ATOM     10  C   UNL     1       0.551  -5.431  -3.514  0.00  0.00    +0.151 C 
BRANCH  10  11
ATOM     11  C   UNL     1       0.159  -6.277  -4.694  0.00  0.00    -0.028 A 
ATOM     12  C   UNL     1      -0.573  -7.459  -4.511  0.00  0.00    +0.005 A 
ATOM     13  C   UNL     1       0.513  -5.899  -5.998  0.00  0.00    +0.005 A 
ATOM     14  C   UNL     1      -0.962  -8.230  -5.609  0.00  0.00    +0.000 A 
ATOM     15  C   UNL     1       0.123  -6.671  -7.092  0.00  0.00    +0.000 A 
ATOM     16  C   UNL     1      -0.617  -7.835  -6.897  0.00  0.00    +0.000 A 
ENDBRANCH  10  11
ENDBRANCH   1  10
TORSDOF 2
ENDMDL
MODEL 6
REMARK VINA RESULT:    -5.390     21.150     22.442
REMARK INTER + INTRA:          -6.175
REMARK INTER:                  -6.012
REMARK INTRA:                  -0.164
REMARK UNBOUND:                -0.155
REMARK  Name = 1550473
REMARK  2 active torsions:
REMARK  status: ('A' for Active; 'I' for Inactive)
REMARK    1  A    between atoms: N_1  and  C_4
REMARK    2  A    between atoms: C_4  and  C_5
REMARK                            x       y       z     vdW  Elec       q    Type
REMARK                         _______ _______ _______ _____ _____    ______ ____
ROOT
ATOM      1  N   UNL     1      -5.200  -4.008  -7.632  0.00  0.00    -0.354 N 
ATOM      2  N   UNL     1      -6.613  -3.391  -9.361  0.00  0.00    -0.372 N 
ATOM      3  N   UNL     1      -4.589  -2.330  -9.149  0.00  0.00    -0.372 N 
ATOM      4  C   UNL     1      -5.456  -3.245  -8.703  0.00  0.00    +0.166 C 
ATOM      5  H   UNL     1      -5.911  -4.662  -7.326  0.00  0.00    +0.163 HD
ATOM      6  H   UNL     1      -6.832  -2.832 -10.174  0.00  0.00    +0.159 HD
ATOM      7  H   UNL     1      -7.302  -4.078  -9.080  0.00  0.00    +0.159 HD
ATOM      8  H   UNL     1      -3.701  -2.167  -8.694  0.00  0.00    +0.159 HD
ATOM      9  H   UNL     1      -4.796  -1.752  -9.955  0.00  0.00    +0.159 HD
ENDROOT
BRANCH   1  10
ATOM     10  C   UNL     1      -3.948  -3.966  -6.878  0.00  0.00    +0.151 C 
BRANCH  10  11
ATOM     11  C   UNL     1      -3.168  -5.222  -7.151  0.00  0.00    -0.028 A 
ATOM     12  C   UNL     1      -3.687  -6.474  -6.791  0.00  0.00    +0.005 A 
ATOM     13  C   UNL     1      -1.912  -5.167  -7.774  0.00  0.00    +0.005 A 
ATOM     14  C   UNL     1      -2.976  -7.644  -7.071  0.00  0.00    +0.000 A 
ATOM     15  C   UNL     1      -1.205  -6.337  -8.050  0.00  0.00    +0.000 A 
ATOM     16  C   UNL     1      -1.738  -7.575  -7.701  0.00  0.00    +0.000 A 
ENDBRANCH  10  11
ENDBRANCH   1  10
TORSDOF 2
ENDMDL
MODEL 7
REMARK VINA RESULT:    -5.292     37.593     39.131
REMARK INTER + INTRA:          -6.065
REMARK INTER:                  -5.960
REMARK INTRA:                  -0.106
REMARK UNBOUND:                -0.155
REMARK  Name = 1550473
REMARK  2 active torsions:
REMARK  status: ('A' for Active; 'I' for Inactive)
REMARK    1  A    between atoms: N_1  and  C_4
REMARK    2  A    between atoms: C_4  and  C_5
REMARK                            x       y       z     vdW  Elec       q    Type
REMARK                         _______ _______ _______ _____ _____    ______ ____
ROOT
ATOM      1  N   UNL     1       7.721 -15.073 -18.997  0.00  0.00    -0.354 N 
ATOM      2  N   UNL     1       7.778 -14.827 -21.300  0.00  0.00    -0.372 N 
ATOM      3  N   UNL     1       6.759 -16.679 -20.407  0.00  0.00    -0.372 N 
ATOM      4  C   UNL     1       7.418 -15.530 -20.219  0.00  0.00    +0.166 C 
ATOM      5  H   UNL     1       8.248 -14.210 -18.923  0.00  0.00    +0.163 HD
ATOM      6  H   UNL     1       7.560 -15.145 -22.234  0.00  0.00    +0.159 HD
ATOM      7  H   UNL     1       8.265 -13.942 -21.221  0.00  0.00    +0.159 HD
ATOM      8  H   UNL     1       6.464 -17.259 -19.634  0.00  0.00    +0.159 HD
ATOM      9  H   UNL     1       6.542 -17.020 -21.335  0.00  0.00    +0.159 HD
ENDROOT
BRANCH   1  10
ATOM     10  C   UNL     1       7.327 -15.736 -17.755  0.00  0.00    +0.151 C 
BRANCH  10  11
ATOM     11  C   UNL     1       7.889 -14.969 -16.590  0.00  0.00    -0.028 A 
ATOM     12  C   UNL     1       7.729 -13.578 -16.509  0.00  0.00    +0.005 A 
ATOM     13  C   UNL     1       8.578 -15.628 -15.561  0.00  0.00    +0.005 A 
ATOM     14  C   UNL     1       8.224 -12.869 -15.412  0.00  0.00    +0.000 A 
ATOM     15  C   UNL     1       9.072 -14.917 -14.467  0.00  0.00    +0.000 A 
ATOM     16  C   UNL     1       8.893 -13.538 -14.392  0.00  0.00    +0.000 A 
ENDBRANCH  10  11
ENDBRANCH   1  10
TORSDOF 2
ENDMDL
MODEL 8
REMARK VINA RESULT:    -5.197     19.623     20.742
REMARK INTER + INTRA:          -5.960
REMARK INTER:                  -5.833
REMARK INTRA:                  -0.127
REMARK UNBOUND:                -0.155
REMARK  Name = 1550473
REMARK  2 active torsions:
REMARK  status: ('A' for Active; 'I' for Inactive)
REMARK    1  A    between atoms: N_1  and  C_4
REMARK    2  A    between atoms: C_4  and  C_5
REMARK                            x       y       z     vdW  Elec       q    Type
REMARK                         _______ _______ _______ _____ _____    ______ ____
ROOT
ATOM      1  N   UNL     1      -2.383  -5.424  -3.436  0.00  0.00    -0.354 N 
ATOM      2  N   UNL     1      -1.092  -5.152  -1.532  0.00  0.00    -0.372 N 
ATOM      3  N   UNL     1      -0.891  -7.092  -2.739  0.00  0.00    -0.372 N 
ATOM      4  C   UNL     1      -1.463  -5.894  -2.582  0.00  0.00    +0.166 C 
ATOM      5  H   UNL     1      -2.800  -4.521  -3.244  0.00  0.00    +0.163 HD
ATOM      6  H   UNL     1      -0.398  -5.478  -0.873  0.00  0.00    +0.159 HD
ATOM      7  H   UNL     1      -1.478  -4.230  -1.368  0.00  0.00    +0.159 HD
ATOM      8  H   UNL     1      -1.132  -7.704  -3.508  0.00  0.00    +0.159 HD
ATOM      9  H   UNL     1      -0.203  -7.442  -2.084  0.00  0.00    +0.159 HD
ENDROOT
BRANCH   1  10
ATOM     10  C   UNL     1      -2.817  -6.130  -4.640  0.00  0.00    +0.151 C 
BRANCH  10  11
ATOM     11  C   UNL     1      -3.291  -5.126  -5.654  0.00  0.00    -0.028 A 
ATOM     12  C   UNL     1      -4.263  -5.477  -6.602  0.00  0.00    +0.005 A 
ATOM     13  C   UNL     1      -2.776  -3.821  -5.668  0.00  0.00    +0.005 A 
ATOM     14  C   UNL     1      -4.726  -4.535  -7.525  0.00  0.00    +0.000 A 
ATOM     15  C   UNL     1      -3.240  -2.884  -6.592  0.00  0.00    +0.000 A 
ATOM     16  C   UNL     1      -4.216  -3.241  -7.519  0.00  0.00    +0.000 A 
ENDBRANCH  10  11
ENDBRANCH   1  10
TORSDOF 2
ENDMDL
MODEL 9
REMARK VINA RESULT:    -5.139     23.026     23.894
REMARK INTER + INTRA:          -5.894
REMARK INTER:                  -5.765
REMARK INTRA:                  -0.129
REMARK UNBOUND:                -0.155
REMARK  Name = 1550473
REMARK  2 active torsions:
REMARK  status: ('A' for Active; 'I' for Inactive)
REMARK    1  A    between atoms: N_1  and  C_4
REMARK    2  A    between atoms: C_4  and  C_5
REMARK                            x       y       z     vdW  Elec       q    Type
REMARK                         _______ _______ _______ _____ _____    ______ ____
ROOT
ATOM      1  N   UNL     1      -3.156  -9.644  -6.024  0.00  0.00    -0.354 N 
ATOM      2  N   UNL     1      -4.701 -10.975  -4.927  0.00  0.00    -0.372 N 
ATOM      3  N   UNL     1      -5.273 -10.045  -6.946  0.00  0.00    -0.372 N 
ATOM      4  C   UNL     1      -4.368 -10.211  -5.975  0.00  0.00    +0.166 C 
ATOM      5  H   UNL     1      -2.526  -9.784  -5.242  0.00  0.00    +0.163 HD
ATOM      6  H   UNL     1      -5.608 -11.419  -4.864  0.00  0.00    +0.159 HD
ATOM      7  H   UNL     1      -4.054 -11.151  -4.169  0.00  0.00    +0.159 HD
ATOM      8  H   UNL     1      -5.086  -9.476  -7.760  0.00  0.00    +0.159 HD
ATOM      9  H   UNL     1      -6.190 -10.471  -6.895  0.00  0.00    +0.159 HD
ENDROOT
BRANCH   1  10
ATOM     10  C   UNL     1      -2.675  -8.838  -7.146  0.00  0.00    +0.151 C 
BRANCH  10  11
ATOM     11  C   UNL     1      -1.583  -7.925  -6.662  0.00  0.00    -0.028 A 
ATOM     12  C   UNL     1      -1.265  -7.855  -5.297  0.00  0.00    +0.005 A 
ATOM     13  C   UNL     1      -0.858  -7.130  -7.563  0.00  0.00    +0.005 A 
ATOM     14  C   UNL     1      -0.231  -7.029  -4.851  0.00  0.00    +0.000 A 
ATOM     15  C   UNL     1       0.173  -6.306  -7.114  0.00  0.00    +0.000 A 
ATOM     16  C   UNL     1       0.488  -6.258  -5.758  0.00  0.00    +0.000 A 
ENDBRANCH  10  11
ENDBRANCH   1  10
TORSDOF 2
ENDMDL
