MODEL 1
REMARK VINA RESULT:    -5.211      0.000      0.000
REMARK INTER + INTRA:          -5.904
REMARK INTER:                  -5.821
REMARK INTRA:                  -0.084
REMARK UNBOUND:                -0.084
REMARK  Name = 1550473
REMARK  2 active torsions:
REMARK  status: ('A' for Active; 'I' for Inactive)
REMARK    1  A    between atoms: N_1  and  C_4
REMARK    2  A    between atoms: C_4  and  C_5
REMARK                            x       y       z     vdW  Elec       q    Type
REMARK                         _______ _______ _______ _____ _____    ______ ____
ROOT
ATOM      1  N   UNL     1      13.959  -3.307   8.287  0.00  0.00    -0.354 N 
ATOM      2  N   UNL     1      15.248  -1.414   8.631  0.00  0.00    -0.372 N 
ATOM      3  N   UNL     1      13.080  -1.432   9.384  0.00  0.00    -0.372 N 
ATOM      4  C   UNL     1      14.085  -2.062   8.766  0.00  0.00    +0.166 C 
ATOM      5  H   UNL     1      14.748  -3.718   7.802  0.00  0.00    +0.163 HD
ATOM      6  H   UNL     1      15.373  -0.475   8.985  0.00  0.00    +0.159 HD
ATOM      7  H   UNL     1      16.049  -1.844   8.186  0.00  0.00    +0.159 HD
ATOM      8  H   UNL     1      12.175  -1.865   9.513  0.00  0.00    +0.159 HD
ATOM      9  H   UNL     1      13.183  -0.488   9.735  0.00  0.00    +0.159 HD
ENDROOT
BRANCH   1  10
ATOM     10  C   UNL     1      12.753  -4.120   8.430  0.00  0.00    +0.151 C 
BRANCH  10  11
ATOM     11  C   UNL     1      13.024  -5.234   9.404  0.00  0.00    -0.028 A 
ATOM     12  C   UNL     1      14.221  -5.266  10.133  0.00  0.00    +0.005 A 
ATOM     13  C   UNL     1      12.084  -6.256   9.606  0.00  0.00    +0.005 A 
ATOM     14  C   UNL     1      14.460  -6.284  11.060  0.00  0.00    +0.000 A 
ATOM     15  C   UNL     1      12.327  -7.271  10.532  0.00  0.00    +0.000 A 
ATOM     16  C   UNL     1      13.514  -7.283  11.260  0.00  0.00    +0.000 A 
ENDBRANCH  10  11
ENDBRANCH   1  10
TORSDOF 2
ENDMDL
MODEL 2
REMARK VINA RESULT:    -4.835     28.080     29.606
REMARK INTER + INTRA:          -5.484
REMARK INTER:                  -5.329
REMARK INTRA:                  -0.155
REMARK UNBOUND:                -0.084
REMARK  Name = 1550473
REMARK  2 active torsions:
REMARK  status: ('A' for Active; 'I' for Inactive)
REMARK    1  A    between atoms: N_1  and  C_4
REMARK    2  A    between atoms: C_4  and  C_5
REMARK                            x       y       z     vdW  Elec       q    Type
REMARK                         _______ _______ _______ _____ _____    ______ ____
ROOT
ATOM      1  N   UNL     1      -0.724   9.695 -13.562  0.00  0.00    -0.354 N 
ATOM      2  N   UNL     1      -0.556  11.537 -14.956  0.00  0.00    -0.372 N 
ATOM      3  N   UNL     1      -2.535  11.153 -13.859  0.00  0.00    -0.372 N 
ATOM      4  C   UNL     1      -1.275  10.783 -14.116  0.00  0.00    +0.166 C 
ATOM      5  H   UNL     1       0.226   9.452 -13.821  0.00  0.00    +0.163 HD
ATOM      6  H   UNL     1      -0.944  12.366 -15.386  0.00  0.00    +0.159 HD
ATOM      7  H   UNL     1       0.407  11.318 -15.177  0.00  0.00    +0.159 HD
ATOM      8  H   UNL     1      -3.132  10.623 -13.238  0.00  0.00    +0.159 HD
ATOM      9  H   UNL     1      -2.945  11.972 -14.289  0.00  0.00    +0.159 HD
ENDROOT
BRANCH   1  10
ATOM     10  C   UNL     1      -1.403   8.837 -12.593  0.00  0.00    +0.151 C 
BRANCH  10  11
ATOM     11  C   UNL     1      -0.959   9.214 -11.207  0.00  0.00    -0.028 A 
ATOM     12  C   UNL     1      -1.829   9.068 -10.116  0.00  0.00    +0.005 A 
ATOM     13  C   UNL     1       0.333   9.711 -10.976  0.00  0.00    +0.005 A 
ATOM     14  C   UNL     1      -1.406   9.390  -8.824  0.00  0.00    +0.000 A 
ATOM     15  C   UNL     1       0.751  10.031  -9.685  0.00  0.00    +0.000 A 
ATOM     16  C   UNL     1      -0.118   9.868  -8.609  0.00  0.00    +0.000 A 
ENDBRANCH  10  11
ENDBRANCH   1  10
TORSDOF 2
ENDMDL
MODEL 3
REMARK VINA RESULT:    -4.805     31.011     32.278
REMARK INTER + INTRA:          -5.450
REMARK INTER:                  -5.273
REMARK INTRA:                  -0.177
REMARK UNBOUND:                -0.084
REMARK  Name = 1550473
REMARK  2 active torsions:
REMARK  status: ('A' for Active; 'I' for Inactive)
REMARK    1  A    between atoms: N_1  and  C_4
REMARK    2  A    between atoms: C_4  and  C_5
REMARK                            x       y       z     vdW  Elec       q    Type
REMARK                         _______ _______ _______ _____ _____    ______ ____
ROOT
ATOM      1  N   UNL     1      -1.396  10.276 -14.464  0.00  0.00    -0.354 N 
ATOM      2  N   UNL     1       0.486  10.889 -15.667  0.00  0.00    -0.372 N 
ATOM      3  N   UNL     1      -1.580  11.144 -16.633  0.00  0.00    -0.372 N 
ATOM      4  C   UNL     1      -0.844  10.766 -15.582  0.00  0.00    +0.166 C 
ATOM      5  H   UNL     1      -0.781   9.979 -13.714  0.00  0.00    +0.163 HD
ATOM      6  H   UNL     1       0.930  11.258 -16.497  0.00  0.00    +0.159 HD
ATOM      7  H   UNL     1       1.095  10.634 -14.899  0.00  0.00    +0.159 HD
ATOM      8  H   UNL     1      -2.589  11.072 -16.634  0.00  0.00    +0.159 HD
ATOM      9  H   UNL     1      -1.153  11.506 -17.476  0.00  0.00    +0.159 HD
ENDROOT
BRANCH   1  10
ATOM     10  C   UNL     1      -2.836  10.152 -14.249  0.00  0.00    +0.151 C 
BRANCH  10  11
ATOM     11  C   UNL     1      -3.236   8.712 -14.417  0.00  0.00    -0.028 A 
ATOM     12  C   UNL     1      -4.142   8.337 -15.419  0.00  0.00    +0.005 A 
ATOM     13  C   UNL     1      -2.708   7.717 -13.580  0.00  0.00    +0.005 A 
ATOM     14  C   UNL     1      -4.491   6.996 -15.595  0.00  0.00    +0.000 A 
ATOM     15  C   UNL     1      -3.059   6.379 -13.758  0.00  0.00    +0.000 A 
ATOM     16  C   UNL     1      -3.948   6.019 -14.767  0.00  0.00    +0.000 A 
ENDBRANCH  10  11
ENDBRANCH   1  10
TORSDOF 2
ENDMDL
MODEL 4
REMARK VINA RESULT:    -4.729     21.294     22.068
REMARK INTER + INTRA:          -5.366
REMARK INTER:                  -5.264
REMARK INTRA:                  -0.102
REMARK UNBOUND:                -0.084
REMARK  Name = 1550473
REMARK  2 active torsions:
REMARK  status: ('A' for Active; 'I' for Inactive)
REMARK    1  A    between atoms: N_1  and  C_4
REMARK    2  A    between atoms: C_4  and  C_5
REMARK                            x       y       z     vdW  Elec       q    Type
REMARK                         _______ _______ _______ _____ _____    ______ ____
ROOT
ATOM      1  N   UNL     1      -1.087   9.249  18.600  0.00  0.00    -0.354 N 
ATOM      2  N   UNL     1      -0.233  10.280  16.710  0.00  0.00    -0.372 N 
ATOM      3  N   UNL     1      -1.038  11.585  18.418  0.00  0.00    -0.372 N 
ATOM      4  C   UNL     1      -0.793  10.367  17.923  0.00  0.00    +0.166 C 
ATOM      5  H   UNL     1      -0.904   8.356  18.157  0.00  0.00    +0.163 HD
ATOM      6  H   UNL     1       0.003  11.107  16.177  0.00  0.00    +0.159 HD
ATOM      7  H   UNL     1      -0.009   9.387  16.289  0.00  0.00    +0.159 HD
ATOM      8  H   UNL     1      -1.464  11.718  19.325  0.00  0.00    +0.159 HD
ATOM      9  H   UNL     1      -0.820  12.423  17.895  0.00  0.00    +0.159 HD
ENDROOT
BRANCH   1  10
ATOM     10  C   UNL     1      -1.648   9.234  19.950  0.00  0.00    +0.151 C 
BRANCH  10  11
ATOM     11  C   UNL     1      -1.578   7.834  20.495  0.00  0.00    -0.028 A 
ATOM     12  C   UNL     1      -2.752   7.130  20.800  0.00  0.00    +0.005 A 
ATOM     13  C   UNL     1      -0.341   7.205  20.705  0.00  0.00    +0.005 A 
ATOM     14  C   UNL     1      -2.688   5.819  21.279  0.00  0.00    +0.000 A 
ATOM     15  C   UNL     1      -0.282   5.897  21.183  0.00  0.00    +0.000 A 
ATOM     16  C   UNL     1      -1.455   5.203  21.468  0.00  0.00    +0.000 A 
ENDBRANCH  10  11
ENDBRANCH   1  10
TORSDOF 2
ENDMDL
MODEL 5
REMARK VINA RESULT:    -4.694     39.954     41.162
REMARK INTER + INTRA:          -5.326
REMARK INTER:                  -5.195
REMARK INTRA:                  -0.132
REMARK UNBOUND:                -0.084
REMARK  Name = 1550473
REMARK  2 active torsions:
REMARK  status: ('A' for Active; 'I' for Inactive)
REMARK    1  A    between atoms: N_1  and  C_4
REMARK    2  A    between atoms: C_4  and  C_5
REMARK                            x       y       z     vdW  Elec       q    Type
REMARK                         _______ _______ _______ _____ _____    ______ ____
ROOT
ATOM      1  N   UNL     1       1.635  -8.667 -28.380  0.00  0.00    -0.354 N 
ATOM      2  N   UNL     1       1.254  -6.920 -26.909  0.00  0.00    -0.372 N 
ATOM      3  N   UNL     1       2.153  -8.871 -26.104  0.00  0.00    -0.372 N 
ATOM      4  C   UNL     1       1.684  -8.166 -27.139  0.00  0.00    +0.166 C 
ATOM      5  H   UNL     1       1.240  -8.092 -29.116  0.00  0.00    +0.163 HD
ATOM      6  H   UNL     1       1.282  -6.514 -25.983  0.00  0.00    +0.159 HD
ATOM      7  H   UNL     1       0.903  -6.331 -27.654  0.00  0.00    +0.159 HD
ATOM      8  H   UNL     1       2.487  -9.820 -26.210  0.00  0.00    +0.159 HD
ATOM      9  H   UNL     1       2.178  -8.486 -25.168  0.00  0.00    +0.159 HD
ENDROOT
BRANCH   1  10
ATOM     10  C   UNL     1       2.128  -9.994 -28.747  0.00  0.00    +0.151 C 
BRANCH  10  11
ATOM     11  C   UNL     1       1.109 -10.672 -29.621  0.00  0.00    -0.028 A 
ATOM     12  C   UNL     1       0.984 -12.069 -29.616  0.00  0.00    +0.005 A 
ATOM     13  C   UNL     1       0.262  -9.923 -30.452  0.00  0.00    +0.005 A 
ATOM     14  C   UNL     1       0.017 -12.697 -30.405  0.00  0.00    +0.000 A 
ATOM     15  C   UNL     1      -0.701 -10.554 -31.239  0.00  0.00    +0.000 A 
ATOM     16  C   UNL     1      -0.825 -11.941 -31.214  0.00  0.00    +0.000 A 
ENDBRANCH  10  11
ENDBRANCH   1  10
TORSDOF 2
ENDMDL
MODEL 6
REMARK VINA RESULT:    -4.692     29.077     30.730
REMARK INTER + INTRA:          -5.324
REMARK INTER:                  -5.187
REMARK INTRA:                  -0.137
REMARK UNBOUND:                -0.084
REMARK  Name = 1550473
REMARK  2 active torsions:
REMARK  status: ('A' for Active; 'I' for Inactive)
REMARK    1  A    between atoms: N_1  and  C_4
REMARK    2  A    between atoms: C_4  and  C_5
REMARK                            x       y       z     vdW  Elec       q    Type
REMARK                         _______ _______ _______ _____ _____    ______ ____
ROOT
ATOM      1  N   UNL     1      -0.927   9.469 -11.442  0.00  0.00    -0.354 N 
ATOM      2  N   UNL     1       0.449  11.066 -10.482  0.00  0.00    -0.372 N 
ATOM      3  N   UNL     1       1.405   9.267 -11.537  0.00  0.00    -0.372 N 
ATOM      4  C   UNL     1       0.302   9.921 -11.161  0.00  0.00    +0.166 C 
ATOM      5  H   UNL     1      -1.723   9.996 -11.102  0.00  0.00    +0.163 HD
ATOM      6  H   UNL     1       1.364  11.434 -10.259  0.00  0.00    +0.159 HD
ATOM      7  H   UNL     1      -0.348  11.615 -10.184  0.00  0.00    +0.159 HD
ATOM      8  H   UNL     1       1.363   8.394 -12.047  0.00  0.00    +0.159 HD
ATOM      9  H   UNL     1       2.330   9.613 -11.313  0.00  0.00    +0.159 HD
ENDROOT
BRANCH   1  10
ATOM     10  C   UNL     1      -1.196   8.262 -12.221  0.00  0.00    +0.151 C 
BRANCH  10  11
ATOM     11  C   UNL     1      -2.162   8.595 -13.325  0.00  0.00    -0.028 A 
ATOM     12  C   UNL     1      -2.898   7.582 -13.957  0.00  0.00    +0.005 A 
ATOM     13  C   UNL     1      -2.349   9.923 -13.740  0.00  0.00    +0.005 A 
ATOM     14  C   UNL     1      -3.817   7.895 -14.962  0.00  0.00    +0.000 A 
ATOM     15  C   UNL     1      -3.267  10.230 -14.744  0.00  0.00    +0.000 A 
ATOM     16  C   UNL     1      -4.002   9.216 -15.353  0.00  0.00    +0.000 A 
ENDBRANCH  10  11
ENDBRANCH   1  10
TORSDOF 2
ENDMDL
MODEL 7
REMARK VINA RESULT:    -4.614      2.230      3.038
REMARK INTER + INTRA:          -5.238
REMARK INTER:                  -5.072
REMARK INTRA:                  -0.165
REMARK UNBOUND:                -0.084
REMARK  Name = 1550473
REMARK  2 active torsions:
REMARK  status: ('A' for Active; 'I' for Inactive)
REMARK    1  A    between atoms: N_1  and  C_4
REMARK    2  A    between atoms: C_4  and  C_5
REMARK                            x       y       z     vdW  Elec       q    Type
REMARK                         _______ _______ _______ _____ _____    ______ ____
ROOT
ATOM      1  N   UNL     1      12.611  -6.434   8.274  0.00  0.00    -0.354 N 
ATOM      2  N   UNL     1      13.084  -5.777   6.104  0.00  0.00    -0.372 N 
ATOM      3  N   UNL     1      12.345  -4.205   7.602  0.00  0.00    -0.372 N 
ATOM      4  C   UNL     1      12.676  -5.474   7.342  0.00  0.00    +0.166 C 
ATOM      5  H   UNL     1      12.847  -7.382   8.005  0.00  0.00    +0.163 HD
ATOM      6  H   UNL     1      13.146  -5.073   5.381  0.00  0.00    +0.159 HD
ATOM      7  H   UNL     1      13.362  -6.717   5.850  0.00  0.00    +0.159 HD
ATOM      8  H   UNL     1      12.024  -3.912   8.515  0.00  0.00    +0.159 HD
ATOM      9  H   UNL     1      12.389  -3.488   6.889  0.00  0.00    +0.159 HD
ENDROOT
BRANCH   1  10
ATOM     10  C   UNL     1      12.231  -6.198   9.666  0.00  0.00    +0.151 C 
BRANCH  10  11
ATOM     11  C   UNL     1      13.448  -6.342  10.538  0.00  0.00    -0.028 A 
ATOM     12  C   UNL     1      14.383  -5.300  10.633  0.00  0.00    +0.005 A 
ATOM     13  C   UNL     1      13.669  -7.515  11.276  0.00  0.00    +0.005 A 
ATOM     14  C   UNL     1      15.497  -5.421  11.467  0.00  0.00    +0.000 A 
ATOM     15  C   UNL     1      14.784  -7.632  12.106  0.00  0.00    +0.000 A 
ATOM     16  C   UNL     1      15.696  -6.584  12.203  0.00  0.00    +0.000 A 
ENDBRANCH  10  11
ENDBRANCH   1  10
TORSDOF 2
ENDMDL
MODEL 8
REMARK VINA RESULT:    -4.582     14.916     16.277
REMARK INTER + INTRA:          -5.202
REMARK INTER:                  -5.094
REMARK INTRA:                  -0.108
REMARK UNBOUND:                -0.084
REMARK  Name = 1550473
REMARK  2 active torsions:
REMARK  status: ('A' for Active; 'I' for Inactive)
REMARK    1  A    between atoms: N_1  and  C_4
REMARK    2  A    between atoms: C_4  and  C_5
REMARK                            x       y       z     vdW  Elec       q    Type
REMARK                         _______ _______ _______ _____ _____    ______ ____
ROOT
ATOM      1  N   UNL     1      11.291   4.997  19.852  0.00  0.00    -0.354 N 
ATOM      2  N   UNL     1      11.311   2.824  20.654  0.00  0.00    -0.372 N 
ATOM      3  N   UNL     1      11.642   4.553  22.127  0.00  0.00    -0.372 N 
ATOM      4  C   UNL     1      11.415   4.140  20.875  0.00  0.00    +0.166 C 
ATOM      5  H   UNL     1      11.150   4.619  18.923  0.00  0.00    +0.163 HD
ATOM      6  H   UNL     1      11.397   2.154  21.407  0.00  0.00    +0.159 HD
ATOM      7  H   UNL     1      11.125   2.452  19.731  0.00  0.00    +0.159 HD
ATOM      8  H   UNL     1      11.737   5.533  22.359  0.00  0.00    +0.159 HD
ATOM      9  H   UNL     1      11.743   3.897  22.891  0.00  0.00    +0.159 HD
ENDROOT
BRANCH   1  10
ATOM     10  C   UNL     1      11.334   6.451  19.994  0.00  0.00    +0.151 C 
BRANCH  10  11
ATOM     11  C   UNL     1       9.938   6.965  20.211  0.00  0.00    -0.028 A 
ATOM     12  C   UNL     1       9.716   8.128  20.964  0.00  0.00    +0.005 A 
ATOM     13  C   UNL     1       8.832   6.297  19.662  0.00  0.00    +0.005 A 
ATOM     14  C   UNL     1       8.422   8.623  21.141  0.00  0.00    +0.000 A 
ATOM     15  C   UNL     1       7.542   6.794  19.842  0.00  0.00    +0.000 A 
ATOM     16  C   UNL     1       7.337   7.958  20.579  0.00  0.00    +0.000 A 
ENDBRANCH  10  11
ENDBRANCH   1  10
TORSDOF 2
ENDMDL
MODEL 9
REMARK VINA RESULT:    -4.534     29.089     30.714
REMARK INTER + INTRA:          -5.147
REMARK INTER:                  -5.005
REMARK INTRA:                  -0.142
REMARK UNBOUND:                -0.084
REMARK  Name = 1550473
REMARK  2 active torsions:
REMARK  status: ('A' for Active; 'I' for Inactive)
REMARK    1  A    between atoms: N_1  and  C_4
REMARK    2  A    between atoms: C_4  and  C_5
REMARK                            x       y       z     vdW  Elec       q    Type
REMARK                         _______ _______ _______ _____ _____    ______ ____
ROOT
ATOM      1  N   UNL     1      -1.179   8.857 -11.751  0.00  0.00    -0.354 N 
ATOM      2  N   UNL     1      -0.707  10.257  -9.968  0.00  0.00    -0.372 N 
ATOM      3  N   UNL     1      -1.719   8.240  -9.556  0.00  0.00    -0.372 N 
ATOM      4  C   UNL     1      -1.206   9.107 -10.436  0.00  0.00    +0.166 C 
ATOM      5  H   UNL     1      -0.805   9.568 -12.369  0.00  0.00    +0.163 HD
ATOM      6  H   UNL     1      -0.710  10.472  -8.980  0.00  0.00    +0.159 HD
ATOM      7  H   UNL     1      -0.291  10.946 -10.583  0.00  0.00    +0.159 HD
ATOM      8  H   UNL     1      -2.117   7.356  -9.845  0.00  0.00    +0.159 HD
ATOM      9  H   UNL     1      -1.742   8.442  -8.564  0.00  0.00    +0.159 HD
ENDROOT
BRANCH   1  10
ATOM     10  C   UNL     1      -1.648   7.612 -12.357  0.00  0.00    +0.151 C 
BRANCH  10  11
ATOM     11  C   UNL     1      -2.551   7.938 -13.515  0.00  0.00    -0.028 A 
ATOM     12  C   UNL     1      -2.685   9.261 -13.963  0.00  0.00    +0.005 A 
ATOM     13  C   UNL     1      -3.272   6.929 -14.171  0.00  0.00    +0.005 A 
ATOM     14  C   UNL     1      -3.500   9.560 -15.057  0.00  0.00    +0.000 A 
ATOM     15  C   UNL     1      -4.086   7.232 -15.263  0.00  0.00    +0.000 A 
ATOM     16  C   UNL     1      -4.197   8.548 -15.707  0.00  0.00    +0.000 A 
ENDBRANCH  10  11
ENDBRANCH   1  10
TORSDOF 2
ENDMDL
