MODEL 1
REMARK VINA RESULT:    -4.592      0.000      0.000
REMARK INTER + INTRA:          -5.266
REMARK INTER:                  -5.129
REMARK INTRA:                  -0.137
REMARK UNBOUND:                -0.137
REMARK  Name = 1550473
REMARK  2 active torsions:
REMARK  status: ('A' for Active; 'I' for Inactive)
REMARK    1  A    between atoms: N_1  and  C_4
REMARK    2  A    between atoms: C_4  and  C_5
REMARK                            x       y       z     vdW  Elec       q    Type
REMARK                         _______ _______ _______ _____ _____    ______ ____
ROOT
ATOM      1  N   UNL     1      15.748  -4.468  14.126  0.00  0.00    -0.354 N 
ATOM      2  N   UNL     1      17.763  -5.554  14.484  0.00  0.00    -0.372 N 
ATOM      3  N   UNL     1      17.750  -3.265  14.320  0.00  0.00    -0.372 N 
ATOM      4  C   UNL     1      17.075  -4.419  14.307  0.00  0.00    +0.166 C 
ATOM      5  H   UNL     1      15.300  -5.377  14.096  0.00  0.00    +0.163 HD
ATOM      6  H   UNL     1      18.764  -5.548  14.627  0.00  0.00    +0.159 HD
ATOM      7  H   UNL     1      17.305  -6.457  14.500  0.00  0.00    +0.159 HD
ATOM      8  H   UNL     1      17.290  -2.374  14.187  0.00  0.00    +0.159 HD
ATOM      9  H   UNL     1      18.754  -3.239  14.450  0.00  0.00    +0.159 HD
ENDROOT
BRANCH   1  10
ATOM     10  C   UNL     1      14.899  -3.288  13.978  0.00  0.00    +0.151 C 
BRANCH  10  11
ATOM     11  C   UNL     1      13.891  -3.540  12.892  0.00  0.00    -0.028 A 
ATOM     12  C   UNL     1      13.760  -4.817  12.325  0.00  0.00    +0.005 A 
ATOM     13  C   UNL     1      13.059  -2.510  12.429  0.00  0.00    +0.005 A 
ATOM     14  C   UNL     1      12.803  -5.059  11.336  0.00  0.00    +0.000 A 
ATOM     15  C   UNL     1      12.105  -2.756  11.442  0.00  0.00    +0.000 A 
ATOM     16  C   UNL     1      11.976  -4.031  10.897  0.00  0.00    +0.000 A 
ENDBRANCH  10  11
ENDBRANCH   1  10
TORSDOF 2
ENDMDL
MODEL 2
REMARK VINA RESULT:    -4.409     56.960     58.557
REMARK INTER + INTRA:          -5.062
REMARK INTER:                  -4.971
REMARK INTRA:                  -0.092
REMARK UNBOUND:                -0.137
REMARK  Name = 1550473
REMARK  2 active torsions:
REMARK  status: ('A' for Active; 'I' for Inactive)
REMARK    1  A    between atoms: N_1  and  C_4
REMARK    2  A    between atoms: C_4  and  C_5
REMARK                            x       y       z     vdW  Elec       q    Type
REMARK                         _______ _______ _______ _____ _____    ______ ____
ROOT
ATOM      1  N   UNL     1      -5.113 -27.561 -34.983  0.00  0.00    -0.354 N 
ATOM      2  N   UNL     1      -4.993 -27.358 -32.679  0.00  0.00    -0.372 N 
ATOM      3  N   UNL     1      -3.045 -27.443 -33.887  0.00  0.00    -0.372 N 
ATOM      4  C   UNL     1      -4.382 -27.456 -33.865  0.00  0.00    +0.166 C 
ATOM      5  H   UNL     1      -6.122 -27.595 -34.896  0.00  0.00    +0.163 HD
ATOM      6  H   UNL     1      -4.468 -27.274 -31.819  0.00  0.00    +0.159 HD
ATOM      7  H   UNL     1      -6.003 -27.346 -32.599  0.00  0.00    +0.159 HD
ATOM      8  H   UNL     1      -2.522 -27.520 -34.749  0.00  0.00    +0.159 HD
ATOM      9  H   UNL     1      -2.501 -27.372 -33.036  0.00  0.00    +0.159 HD
ENDROOT
BRANCH   1  10
ATOM     10  C   UNL     1      -4.545 -27.619 -36.329  0.00  0.00    +0.151 C 
BRANCH  10  11
ATOM     11  C   UNL     1      -5.633 -27.968 -37.306  0.00  0.00    -0.028 A 
ATOM     12  C   UNL     1      -5.867 -29.304 -37.664  0.00  0.00    +0.005 A 
ATOM     13  C   UNL     1      -6.438 -26.968 -37.873  0.00  0.00    +0.005 A 
ATOM     14  C   UNL     1      -6.897 -29.632 -38.549  0.00  0.00    +0.000 A 
ATOM     15  C   UNL     1      -7.465 -27.299 -38.757  0.00  0.00    +0.000 A 
ATOM     16  C   UNL     1      -7.696 -28.631 -39.092  0.00  0.00    +0.000 A 
ENDBRANCH  10  11
ENDBRANCH   1  10
TORSDOF 2
ENDMDL
MODEL 3
REMARK VINA RESULT:    -4.360      1.760      2.155
REMARK INTER + INTRA:          -5.007
REMARK INTER:                  -4.916
REMARK INTRA:                  -0.092
REMARK UNBOUND:                -0.137
REMARK  Name = 1550473
REMARK  2 active torsions:
REMARK  status: ('A' for Active; 'I' for Inactive)
REMARK    1  A    between atoms: N_1  and  C_4
REMARK    2  A    between atoms: C_4  and  C_5
REMARK                            x       y       z     vdW  Elec       q    Type
REMARK                         _______ _______ _______ _____ _____    ______ ____
ROOT
ATOM      1  N   UNL     1      16.672  -2.180  14.584  0.00  0.00    -0.354 N 
ATOM      2  N   UNL     1      18.862  -1.474  14.851  0.00  0.00    -0.372 N 
ATOM      3  N   UNL     1      17.642  -2.032  16.712  0.00  0.00    -0.372 N 
ATOM      4  C   UNL     1      17.710  -1.900  15.383  0.00  0.00    +0.166 C 
ATOM      5  H   UNL     1      16.779  -2.030  13.587  0.00  0.00    +0.163 HD
ATOM      6  H   UNL     1      19.663  -1.258  15.429  0.00  0.00    +0.159 HD
ATOM      7  H   UNL     1      18.980  -1.369  13.850  0.00  0.00    +0.159 HD
ATOM      8  H   UNL     1      16.799  -2.344  17.176  0.00  0.00    +0.159 HD
ATOM      9  H   UNL     1      18.429  -1.810  17.308  0.00  0.00    +0.159 HD
ENDROOT
BRANCH   1  10
ATOM     10  C   UNL     1      15.392  -2.702  15.058  0.00  0.00    +0.151 C 
BRANCH  10  11
ATOM     11  C   UNL     1      14.562  -3.119  13.875  0.00  0.00    -0.028 A 
ATOM     12  C   UNL     1      14.449  -4.472  13.527  0.00  0.00    +0.005 A 
ATOM     13  C   UNL     1      13.883  -2.165  13.102  0.00  0.00    +0.005 A 
ATOM     14  C   UNL     1      13.654  -4.863  12.446  0.00  0.00    +0.000 A 
ATOM     15  C   UNL     1      13.092  -2.559  12.023  0.00  0.00    +0.000 A 
ATOM     16  C   UNL     1      12.975  -3.908  11.697  0.00  0.00    +0.000 A 
ENDBRANCH  10  11
ENDBRANCH   1  10
TORSDOF 2
ENDMDL
MODEL 4
REMARK VINA RESULT:    -4.184      4.422      5.288
REMARK INTER + INTRA:          -4.810
REMARK INTER:                  -4.686
REMARK INTRA:                  -0.125
REMARK UNBOUND:                -0.137
REMARK  Name = 1550473
REMARK  2 active torsions:
REMARK  status: ('A' for Active; 'I' for Inactive)
REMARK    1  A    between atoms: N_1  and  C_4
REMARK    2  A    between atoms: C_4  and  C_5
REMARK                            x       y       z     vdW  Elec       q    Type
REMARK                         _______ _______ _______ _____ _____    ______ ____
ROOT
ATOM      1  N   UNL     1      16.922  -2.100  15.048  0.00  0.00    -0.354 N 
ATOM      2  N   UNL     1      17.485  -1.072  13.051  0.00  0.00    -0.372 N 
ATOM      3  N   UNL     1      19.042  -1.152  14.734  0.00  0.00    -0.372 N 
ATOM      4  C   UNL     1      17.815  -1.447  14.292  0.00  0.00    +0.166 C 
ATOM      5  H   UNL     1      15.998  -2.267  14.666  0.00  0.00    +0.163 HD
ATOM      6  H   UNL     1      18.139  -0.582  12.456  0.00  0.00    +0.159 HD
ATOM      7  H   UNL     1      16.577  -1.281  12.654  0.00  0.00    +0.159 HD
ATOM      8  H   UNL     1      19.351  -1.402  15.664  0.00  0.00    +0.159 HD
ATOM      9  H   UNL     1      19.707  -0.651  14.158  0.00  0.00    +0.159 HD
ENDROOT
BRANCH   1  10
ATOM     10  C   UNL     1      17.199  -2.599  16.394  0.00  0.00    +0.151 C 
BRANCH  10  11
ATOM     11  C   UNL     1      16.969  -4.085  16.423  0.00  0.00    -0.028 A 
ATOM     12  C   UNL     1      16.726  -4.744  17.637  0.00  0.00    +0.005 A 
ATOM     13  C   UNL     1      16.987  -4.839  15.240  0.00  0.00    +0.005 A 
ATOM     14  C   UNL     1      16.482  -6.119  17.662  0.00  0.00    +0.000 A 
ATOM     15  C   UNL     1      16.745  -6.212  15.268  0.00  0.00    +0.000 A 
ATOM     16  C   UNL     1      16.490  -6.852  16.479  0.00  0.00    +0.000 A 
ENDBRANCH  10  11
ENDBRANCH   1  10
TORSDOF 2
ENDMDL
MODEL 5
REMARK VINA RESULT:    -4.027     13.971     15.559
REMARK INTER + INTRA:          -4.635
REMARK INTER:                  -4.524
REMARK INTRA:                  -0.111
REMARK UNBOUND:                -0.137
REMARK  Name = 1550473
REMARK  2 active torsions:
REMARK  status: ('A' for Active; 'I' for Inactive)
REMARK    1  A    between atoms: N_1  and  C_4
REMARK    2  A    between atoms: C_4  and  C_5
REMARK                            x       y       z     vdW  Elec       q    Type
REMARK                         _______ _______ _______ _____ _____    ______ ____
ROOT
ATOM      1  N   UNL     1      11.288 -12.559   3.126  0.00  0.00    -0.354 N 
ATOM      2  N   UNL     1      10.305 -10.595   3.861  0.00  0.00    -0.372 N 
ATOM      3  N   UNL     1       9.580 -12.591   4.730  0.00  0.00    -0.372 N 
ATOM      4  C   UNL     1      10.396 -11.930   3.902  0.00  0.00    +0.166 C 
ATOM      5  H   UNL     1      11.857 -12.002   2.498  0.00  0.00    +0.163 HD
ATOM      6  H   UNL     1       9.644 -10.093   4.438  0.00  0.00    +0.159 HD
ATOM      7  H   UNL     1      10.907 -10.038   3.267  0.00  0.00    +0.159 HD
ATOM      8  H   UNL     1       9.594 -13.600   4.803  0.00  0.00    +0.159 HD
ATOM      9  H   UNL     1       8.903 -12.107   5.306  0.00  0.00    +0.159 HD
ENDROOT
BRANCH   1  10
ATOM     10  C   UNL     1      11.504 -14.005   3.134  0.00  0.00    +0.151 C 
BRANCH  10  11
ATOM     11  C   UNL     1      11.711 -14.479   1.722  0.00  0.00    -0.028 A 
ATOM     12  C   UNL     1      12.724 -13.925   0.927  0.00  0.00    +0.005 A 
ATOM     13  C   UNL     1      10.900 -15.486   1.176  0.00  0.00    +0.005 A 
ATOM     14  C   UNL     1      12.936 -14.386  -0.375  0.00  0.00    +0.000 A 
ATOM     15  C   UNL     1      11.114 -15.942  -0.124  0.00  0.00    +0.000 A 
ATOM     16  C   UNL     1      12.134 -15.394  -0.898  0.00  0.00    +0.000 A 
ENDBRANCH  10  11
ENDBRANCH   1  10
TORSDOF 2
ENDMDL
MODEL 6
REMARK VINA RESULT:    -3.996     12.194     13.210
REMARK INTER + INTRA:          -4.600
REMARK INTER:                  -4.474
REMARK INTRA:                  -0.126
REMARK UNBOUND:                -0.137
REMARK  Name = 1550473
REMARK  2 active torsions:
REMARK  status: ('A' for Active; 'I' for Inactive)
REMARK    1  A    between atoms: N_1  and  C_4
REMARK    2  A    between atoms: C_4  and  C_5
REMARK                            x       y       z     vdW  Elec       q    Type
REMARK                         _______ _______ _______ _____ _____    ______ ____
ROOT
ATOM      1  N   UNL     1      27.035  -2.716  20.328  0.00  0.00    -0.354 N 
ATOM      2  N   UNL     1      27.551  -2.562  22.580  0.00  0.00    -0.372 N 
ATOM      3  N   UNL     1      25.822  -3.922  21.930  0.00  0.00    -0.372 N 
ATOM      4  C   UNL     1      26.797  -3.069  21.598  0.00  0.00    +0.166 C 
ATOM      5  H   UNL     1      27.770  -2.042  20.145  0.00  0.00    +0.163 HD
ATOM      6  H   UNL     1      27.398  -2.813  23.548  0.00  0.00    +0.159 HD
ATOM      7  H   UNL     1      28.315  -1.924  22.391  0.00  0.00    +0.159 HD
ATOM      8  H   UNL     1      25.214  -4.336  21.236  0.00  0.00    +0.159 HD
ATOM      9  H   UNL     1      25.645  -4.176  22.893  0.00  0.00    +0.159 HD
ENDROOT
BRANCH   1  10
ATOM     10  C   UNL     1      26.306  -3.252  19.180  0.00  0.00    +0.151 C 
BRANCH  10  11
ATOM     11  C   UNL     1      25.620  -2.123  18.462  0.00  0.00    -0.028 A 
ATOM     12  C   UNL     1      25.050  -1.064  19.183  0.00  0.00    +0.005 A 
ATOM     13  C   UNL     1      25.541  -2.104  17.061  0.00  0.00    +0.005 A 
ATOM     14  C   UNL     1      24.438   0.001  18.516  0.00  0.00    +0.000 A 
ATOM     15  C   UNL     1      24.929  -1.040  16.399  0.00  0.00    +0.000 A 
ATOM     16  C   UNL     1      24.380   0.013  17.127  0.00  0.00    +0.000 A 
ENDBRANCH  10  11
ENDBRANCH   1  10
TORSDOF 2
ENDMDL
MODEL 7
REMARK VINA RESULT:    -3.808     11.501     12.085
REMARK INTER + INTRA:          -4.391
REMARK INTER:                  -4.229
REMARK INTRA:                  -0.162
REMARK UNBOUND:                -0.137
REMARK  Name = 1550473
REMARK  2 active torsions:
REMARK  status: ('A' for Active; 'I' for Inactive)
REMARK    1  A    between atoms: N_1  and  C_4
REMARK    2  A    between atoms: C_4  and  C_5
REMARK                            x       y       z     vdW  Elec       q    Type
REMARK                         _______ _______ _______ _____ _____    ______ ____
ROOT
ATOM      1  N   UNL     1      25.762  -4.640  18.103  0.00  0.00    -0.354 N 
ATOM      2  N   UNL     1      24.591  -6.505  17.385  0.00  0.00    -0.372 N 
ATOM      3  N   UNL     1      23.941  -5.466  19.325  0.00  0.00    -0.372 N 
ATOM      4  C   UNL     1      24.771  -5.525  18.278  0.00  0.00    +0.166 C 
ATOM      5  H   UNL     1      26.376  -4.757  17.304  0.00  0.00    +0.163 HD
ATOM      6  H   UNL     1      23.850  -7.185  17.489  0.00  0.00    +0.159 HD
ATOM      7  H   UNL     1      25.178  -6.593  16.564  0.00  0.00    +0.159 HD
ATOM      8  H   UNL     1      24.028  -4.754  20.037  0.00  0.00    +0.159 HD
ATOM      9  H   UNL     1      23.201  -6.144  19.453  0.00  0.00    +0.159 HD
ENDROOT
BRANCH   1  10
ATOM     10  C   UNL     1      26.010  -3.504  18.988  0.00  0.00    +0.151 C 
BRANCH  10  11
ATOM     11  C   UNL     1      25.452  -2.258  18.356  0.00  0.00    -0.028 A 
ATOM     12  C   UNL     1      24.919  -1.234  19.151  0.00  0.00    +0.005 A 
ATOM     13  C   UNL     1      25.459  -2.094  16.962  0.00  0.00    +0.005 A 
ATOM     14  C   UNL     1      24.428  -0.064  18.566  0.00  0.00    +0.000 A 
ATOM     15  C   UNL     1      24.967  -0.925  16.382  0.00  0.00    +0.000 A 
ATOM     16  C   UNL     1      24.454   0.091  17.184  0.00  0.00    +0.000 A 
ENDBRANCH  10  11
ENDBRANCH   1  10
TORSDOF 2
ENDMDL
MODEL 8
REMARK VINA RESULT:    -3.707     55.419     57.170
REMARK INTER + INTRA:          -4.278
REMARK INTER:                  -4.131
REMARK INTRA:                  -0.147
REMARK UNBOUND:                -0.137
REMARK  Name = 1550473
REMARK  2 active torsions:
REMARK  status: ('A' for Active; 'I' for Inactive)
REMARK    1  A    between atoms: N_1  and  C_4
REMARK    2  A    between atoms: C_4  and  C_5
REMARK                            x       y       z     vdW  Elec       q    Type
REMARK                         _______ _______ _______ _____ _____    ______ ____
ROOT
ATOM      1  N   UNL     1      -9.878 -19.800 -34.274  0.00  0.00    -0.354 N 
ATOM      2  N   UNL     1      -8.016 -19.495 -32.930  0.00  0.00    -0.372 N 
ATOM      3  N   UNL     1      -9.203 -17.655 -33.614  0.00  0.00    -0.372 N 
ATOM      4  C   UNL     1      -9.045 -18.983 -33.616  0.00  0.00    +0.166 C 
ATOM      5  H   UNL     1      -9.686 -20.795 -34.261  0.00  0.00    +0.163 HD
ATOM      6  H   UNL     1      -7.373 -18.904 -32.421  0.00  0.00    +0.159 HD
ATOM      7  H   UNL     1      -7.854 -20.494 -32.881  0.00  0.00    +0.159 HD
ATOM      8  H   UNL     1      -9.956 -17.204 -34.117  0.00  0.00    +0.159 HD
ATOM      9  H   UNL     1      -8.563 -17.045 -33.120  0.00  0.00    +0.159 HD
ENDROOT
BRANCH   1  10
ATOM     10  C   UNL     1     -11.060 -19.347 -35.006  0.00  0.00    +0.151 C 
BRANCH  10  11
ATOM     11  C   UNL     1     -11.002 -19.881 -36.410  0.00  0.00    -0.028 A 
ATOM     12  C   UNL     1      -9.992 -19.465 -37.289  0.00  0.00    +0.005 A 
ATOM     13  C   UNL     1     -11.953 -20.807 -36.866  0.00  0.00    +0.005 A 
ATOM     14  C   UNL     1      -9.921 -19.983 -38.585  0.00  0.00    +0.000 A 
ATOM     15  C   UNL     1     -11.878 -21.322 -38.161  0.00  0.00    +0.000 A 
ATOM     16  C   UNL     1     -10.861 -20.912 -39.019  0.00  0.00    +0.000 A 
ENDBRANCH  10  11
ENDBRANCH   1  10
TORSDOF 2
ENDMDL
MODEL 9
REMARK VINA RESULT:    -3.634     14.684     16.142
REMARK INTER + INTRA:          -4.196
REMARK INTER:                  -4.014
REMARK INTRA:                  -0.181
REMARK UNBOUND:                -0.137
REMARK  Name = 1550473
REMARK  2 active torsions:
REMARK  status: ('A' for Active; 'I' for Inactive)
REMARK    1  A    between atoms: N_1  and  C_4
REMARK    2  A    between atoms: C_4  and  C_5
REMARK                            x       y       z     vdW  Elec       q    Type
REMARK                         _______ _______ _______ _____ _____    ______ ____
ROOT
ATOM      1  N   UNL     1      12.619 -14.142   0.454  0.00  0.00    -0.354 N 
ATOM      2  N   UNL     1      12.553 -14.532  -1.828  0.00  0.00    -0.372 N 
ATOM      3  N   UNL     1      12.017 -16.242  -0.395  0.00  0.00    -0.372 N 
ATOM      4  C   UNL     1      12.396 -14.972  -0.573  0.00  0.00    +0.166 C 
ATOM      5  H   UNL     1      12.934 -13.200   0.253  0.00  0.00    +0.163 HD
ATOM      6  H   UNL     1      12.388 -15.134  -2.623  0.00  0.00    +0.159 HD
ATOM      7  H   UNL     1      12.823 -13.576  -2.027  0.00  0.00    +0.159 HD
ATOM      8  H   UNL     1      11.887 -16.637   0.527  0.00  0.00    +0.159 HD
ATOM      9  H   UNL     1      11.859 -16.863  -1.178  0.00  0.00    +0.159 HD
ENDROOT
BRANCH   1  10
ATOM     10  C   UNL     1      12.426 -14.507   1.857  0.00  0.00    +0.151 C 
BRANCH  10  11
ATOM     11  C   UNL     1      11.096 -13.980   2.322  0.00  0.00    -0.028 A 
ATOM     12  C   UNL     1      10.967 -12.650   2.747  0.00  0.00    +0.005 A 
ATOM     13  C   UNL     1       9.961 -14.805   2.336  0.00  0.00    +0.005 A 
ATOM     14  C   UNL     1       9.726 -12.151   3.151  0.00  0.00    +0.000 A 
ATOM     15  C   UNL     1       8.724 -14.304   2.741  0.00  0.00    +0.000 A 
ATOM     16  C   UNL     1       8.606 -12.976   3.146  0.00  0.00    +0.000 A 
ENDBRANCH  10  11
ENDBRANCH   1  10
TORSDOF 2
ENDMDL
