MODEL 1
REMARK VINA RESULT:    -6.688      0.000      0.000
REMARK INTER + INTRA:          -7.620
REMARK INTER:                  -7.470
REMARK INTRA:                  -0.150
REMARK UNBOUND:                -0.150
REMARK  Name = 1550473
REMARK  2 active torsions:
REMARK  status: ('A' for Active; 'I' for Inactive)
REMARK    1  A    between atoms: N_1  and  C_4
REMARK    2  A    between atoms: C_4  and  C_5
REMARK                            x       y       z     vdW  Elec       q    Type
REMARK                         _______ _______ _______ _____ _____    ______ ____
ROOT
ATOM      1  N   UNL     1     -15.672   1.630 -10.966  0.00  0.00    -0.354 N 
ATOM      2  N   UNL     1     -17.840   1.143 -10.313  0.00  0.00    -0.372 N 
ATOM      3  N   UNL     1     -16.378  -0.586 -10.683  0.00  0.00    -0.372 N 
ATOM      4  C   UNL     1     -16.615   0.729 -10.659  0.00  0.00    +0.166 C 
ATOM      5  H   UNL     1     -15.923   2.612 -10.958  0.00  0.00    +0.163 HD
ATOM      6  H   UNL     1     -18.571   0.487 -10.073  0.00  0.00    +0.159 HD
ATOM      7  H   UNL     1     -18.076   2.127 -10.262  0.00  0.00    +0.159 HD
ATOM      8  H   UNL     1     -15.476  -0.963 -10.941  0.00  0.00    +0.159 HD
ATOM      9  H   UNL     1     -17.100  -1.259 -10.457  0.00  0.00    +0.159 HD
ENDROOT
BRANCH   1  10
ATOM     10  C   UNL     1     -14.292   1.286 -11.303  0.00  0.00    +0.151 C 
BRANCH  10  11
ATOM     11  C   UNL     1     -13.419   1.525 -10.102  0.00  0.00    -0.028 A 
ATOM     12  C   UNL     1     -13.322   0.560  -9.089  0.00  0.00    +0.005 A 
ATOM     13  C   UNL     1     -12.681   2.712  -9.973  0.00  0.00    +0.005 A 
ATOM     14  C   UNL     1     -12.488   0.768  -7.988  0.00  0.00    +0.000 A 
ATOM     15  C   UNL     1     -11.851   2.916  -8.872  0.00  0.00    +0.000 A 
ATOM     16  C   UNL     1     -11.752   1.943  -7.881  0.00  0.00    +0.000 A 
ENDBRANCH  10  11
ENDBRANCH   1  10
TORSDOF 2
ENDMDL
MODEL 2
REMARK VINA RESULT:    -6.422      9.852     11.092
REMARK INTER + INTRA:          -7.323
REMARK INTER:                  -7.201
REMARK INTRA:                  -0.123
REMARK UNBOUND:                -0.150
REMARK  Name = 1550473
REMARK  2 active torsions:
REMARK  status: ('A' for Active; 'I' for Inactive)
REMARK    1  A    between atoms: N_1  and  C_4
REMARK    2  A    between atoms: C_4  and  C_5
REMARK                            x       y       z     vdW  Elec       q    Type
REMARK                         _______ _______ _______ _____ _____    ______ ____
ROOT
ATOM      1  N   UNL     1     -12.056  -6.780  -4.228  0.00  0.00    -0.354 N 
ATOM      2  N   UNL     1     -12.173  -4.900  -2.881  0.00  0.00    -0.372 N 
ATOM      3  N   UNL     1     -12.243  -6.974  -1.900  0.00  0.00    -0.372 N 
ATOM      4  C   UNL     1     -12.157  -6.232  -3.010  0.00  0.00    +0.166 C 
ATOM      5  H   UNL     1     -12.025  -6.164  -5.032  0.00  0.00    +0.163 HD
ATOM      6  H   UNL     1     -12.245  -4.458  -1.974  0.00  0.00    +0.159 HD
ATOM      7  H   UNL     1     -12.095  -4.286  -3.682  0.00  0.00    +0.159 HD
ATOM      8  H   UNL     1     -12.243  -7.984  -1.930  0.00  0.00    +0.159 HD
ATOM      9  H   UNL     1     -12.328  -6.550  -0.985  0.00  0.00    +0.159 HD
ENDROOT
BRANCH   1  10
ATOM     10  C   UNL     1     -11.976  -8.219  -4.473  0.00  0.00    +0.151 C 
BRANCH  10  11
ATOM     11  C   UNL     1     -12.040  -8.469  -5.955  0.00  0.00    -0.028 A 
ATOM     12  C   UNL     1     -11.779  -9.746  -6.474  0.00  0.00    +0.005 A 
ATOM     13  C   UNL     1     -12.367  -7.434  -6.845  0.00  0.00    +0.005 A 
ATOM     14  C   UNL     1     -11.868  -9.986  -7.847  0.00  0.00    +0.000 A 
ATOM     15  C   UNL     1     -12.453  -7.678  -8.216  0.00  0.00    +0.000 A 
ATOM     16  C   UNL     1     -12.207  -8.954  -8.716  0.00  0.00    +0.000 A 
ENDBRANCH  10  11
ENDBRANCH   1  10
TORSDOF 2
ENDMDL
MODEL 3
REMARK VINA RESULT:    -6.247      3.593      5.350
REMARK INTER + INTRA:          -7.128
REMARK INTER:                  -7.017
REMARK INTRA:                  -0.112
REMARK UNBOUND:                -0.150
REMARK  Name = 1550473
REMARK  2 active torsions:
REMARK  status: ('A' for Active; 'I' for Inactive)
REMARK    1  A    between atoms: N_1  and  C_4
REMARK    2  A    between atoms: C_4  and  C_5
REMARK                            x       y       z     vdW  Elec       q    Type
REMARK                         _______ _______ _______ _____ _____    ______ ____
ROOT
ATOM      1  N   UNL     1     -10.785   0.526  -9.748  0.00  0.00    -0.354 N 
ATOM      2  N   UNL     1      -8.656   0.471 -10.658  0.00  0.00    -0.372 N 
ATOM      3  N   UNL     1      -9.069   1.869  -8.886  0.00  0.00    -0.372 N 
ATOM      4  C   UNL     1      -9.517   0.958  -9.756  0.00  0.00    +0.166 C 
ATOM      5  H   UNL     1     -11.070  -0.143 -10.454  0.00  0.00    +0.163 HD
ATOM      6  H   UNL     1      -7.692   0.775 -10.686  0.00  0.00    +0.159 HD
ATOM      7  H   UNL     1      -8.932  -0.232 -11.333  0.00  0.00    +0.159 HD
ATOM      8  H   UNL     1      -9.670   2.280  -8.184  0.00  0.00    +0.159 HD
ATOM      9  H   UNL     1      -8.111   2.195  -8.906  0.00  0.00    +0.159 HD
ENDROOT
BRANCH   1  10
ATOM     10  C   UNL     1     -11.788   0.953  -8.774  0.00  0.00    +0.151 C 
BRANCH  10  11
ATOM     11  C   UNL     1     -13.149   0.892  -9.411  0.00  0.00    -0.028 A 
ATOM     12  C   UNL     1     -13.488   1.769 -10.452  0.00  0.00    +0.005 A 
ATOM     13  C   UNL     1     -14.102  -0.044  -8.982  0.00  0.00    +0.005 A 
ATOM     14  C   UNL     1     -14.741   1.693 -11.064  0.00  0.00    +0.000 A 
ATOM     15  C   UNL     1     -15.353  -0.117  -9.596  0.00  0.00    +0.000 A 
ATOM     16  C   UNL     1     -15.671   0.751 -10.638  0.00  0.00    +0.000 A 
ENDBRANCH  10  11
ENDBRANCH   1  10
TORSDOF 2
ENDMDL
MODEL 4
REMARK VINA RESULT:    -6.104      3.615      5.087
REMARK INTER + INTRA:          -6.968
REMARK INTER:                  -6.826
REMARK INTRA:                  -0.143
REMARK UNBOUND:                -0.150
REMARK  Name = 1550473
REMARK  2 active torsions:
REMARK  status: ('A' for Active; 'I' for Inactive)
REMARK    1  A    between atoms: N_1  and  C_4
REMARK    2  A    between atoms: C_4  and  C_5
REMARK                            x       y       z     vdW  Elec       q    Type
REMARK                         _______ _______ _______ _____ _____    ______ ____
ROOT
ATOM      1  N   UNL     1     -10.585   1.160 -10.553  0.00  0.00    -0.354 N 
ATOM      2  N   UNL     1      -8.579   0.099 -10.089  0.00  0.00    -0.372 N 
ATOM      3  N   UNL     1      -9.165   1.949  -8.864  0.00  0.00    -0.372 N 
ATOM      4  C   UNL     1      -9.455   1.079  -9.837  0.00  0.00    +0.166 C 
ATOM      5  H   UNL     1     -10.732   0.487 -11.297  0.00  0.00    +0.163 HD
ATOM      6  H   UNL     1      -7.720   0.011  -9.562  0.00  0.00    +0.159 HD
ATOM      7  H   UNL     1      -8.750  -0.599 -10.802  0.00  0.00    +0.159 HD
ATOM      8  H   UNL     1      -9.782   2.715  -8.628  0.00  0.00    +0.159 HD
ATOM      9  H   UNL     1      -8.304   1.884  -8.334  0.00  0.00    +0.159 HD
ENDROOT
BRANCH   1  10
ATOM     10  C   UNL     1     -11.630   2.156 -10.322  0.00  0.00    +0.151 C 
BRANCH  10  11
ATOM     11  C   UNL     1     -12.952   1.455 -10.173  0.00  0.00    -0.028 A 
ATOM     12  C   UNL     1     -13.127   0.465  -9.194  0.00  0.00    +0.005 A 
ATOM     13  C   UNL     1     -14.035   1.779 -11.004  0.00  0.00    +0.005 A 
ATOM     14  C   UNL     1     -14.363  -0.165  -9.035  0.00  0.00    +0.000 A 
ATOM     15  C   UNL     1     -15.268   1.147 -10.842  0.00  0.00    +0.000 A 
ATOM     16  C   UNL     1     -15.432   0.177  -9.857  0.00  0.00    +0.000 A 
ENDBRANCH  10  11
ENDBRANCH   1  10
TORSDOF 2
ENDMDL
MODEL 5
REMARK VINA RESULT:    -6.002      5.311      6.463
REMARK INTER + INTRA:          -6.854
REMARK INTER:                  -6.726
REMARK INTRA:                  -0.128
REMARK UNBOUND:                -0.150
REMARK  Name = 1550473
REMARK  2 active torsions:
REMARK  status: ('A' for Active; 'I' for Inactive)
REMARK    1  A    between atoms: N_1  and  C_4
REMARK    2  A    between atoms: C_4  and  C_5
REMARK                            x       y       z     vdW  Elec       q    Type
REMARK                         _______ _______ _______ _____ _____    ______ ____
ROOT
ATOM      1  N   UNL     1      -7.965   0.372 -10.210  0.00  0.00    -0.354 N 
ATOM      2  N   UNL     1      -5.785   0.735 -10.902  0.00  0.00    -0.372 N 
ATOM      3  N   UNL     1      -7.109  -0.695 -12.113  0.00  0.00    -0.372 N 
ATOM      4  C   UNL     1      -6.968   0.133 -11.072  0.00  0.00    +0.166 C 
ATOM      5  H   UNL     1      -7.785   0.987  -9.425  0.00  0.00    +0.163 HD
ATOM      6  H   UNL     1      -5.015   0.576 -11.538  0.00  0.00    +0.159 HD
ATOM      7  H   UNL     1      -5.622   1.384 -10.142  0.00  0.00    +0.159 HD
ATOM      8  H   UNL     1      -7.975  -1.185 -12.294  0.00  0.00    +0.159 HD
ATOM      9  H   UNL     1      -6.347  -0.876 -12.754  0.00  0.00    +0.159 HD
ENDROOT
BRANCH   1  10
ATOM     10  C   UNL     1      -9.309  -0.190 -10.337  0.00  0.00    +0.151 C 
BRANCH  10  11
ATOM     11  C   UNL     1     -10.276   0.670  -9.571  0.00  0.00    -0.028 A 
ATOM     12  C   UNL     1      -9.844   1.857  -8.961  0.00  0.00    +0.005 A 
ATOM     13  C   UNL     1     -11.626   0.306  -9.457  0.00  0.00    +0.005 A 
ATOM     14  C   UNL     1     -10.749   2.671  -8.275  0.00  0.00    +0.000 A 
ATOM     15  C   UNL     1     -12.526   1.122  -8.770  0.00  0.00    +0.000 A 
ATOM     16  C   UNL     1     -12.087   2.305  -8.182  0.00  0.00    +0.000 A 
ENDBRANCH  10  11
ENDBRANCH   1  10
TORSDOF 2
ENDMDL
MODEL 6
REMARK VINA RESULT:    -5.939     12.676     13.653
REMARK INTER + INTRA:          -6.783
REMARK INTER:                  -6.642
REMARK INTRA:                  -0.141
REMARK UNBOUND:                -0.150
REMARK  Name = 1550473
REMARK  2 active torsions:
REMARK  status: ('A' for Active; 'I' for Inactive)
REMARK    1  A    between atoms: N_1  and  C_4
REMARK    2  A    between atoms: C_4  and  C_5
REMARK                            x       y       z     vdW  Elec       q    Type
REMARK                         _______ _______ _______ _____ _____    ______ ____
ROOT
ATOM      1  N   UNL     1     -15.015 -11.590  -4.162  0.00  0.00    -0.354 N 
ATOM      2  N   UNL     1     -15.882 -13.257  -2.809  0.00  0.00    -0.372 N 
ATOM      3  N   UNL     1     -16.191 -13.398  -5.078  0.00  0.00    -0.372 N 
ATOM      4  C   UNL     1     -15.691 -12.738  -4.027  0.00  0.00    +0.166 C 
ATOM      5  H   UNL     1     -14.688 -11.123  -3.324  0.00  0.00    +0.163 HD
ATOM      6  H   UNL     1     -16.385 -14.124  -2.676  0.00  0.00    +0.159 HD
ATOM      7  H   UNL     1     -15.514 -12.812  -1.976  0.00  0.00    +0.159 HD
ATOM      8  H   UNL     1     -16.086 -13.056  -6.024  0.00  0.00    +0.159 HD
ATOM      9  H   UNL     1     -16.708 -14.261  -4.965  0.00  0.00    +0.159 HD
ENDROOT
BRANCH   1  10
ATOM     10  C   UNL     1     -14.706 -10.969  -5.449  0.00  0.00    +0.151 C 
BRANCH  10  11
ATOM     11  C   UNL     1     -13.245 -10.614  -5.485  0.00  0.00    -0.028 A 
ATOM     12  C   UNL     1     -12.464 -10.691  -4.322  0.00  0.00    +0.005 A 
ATOM     13  C   UNL     1     -12.634 -10.204  -6.680  0.00  0.00    +0.005 A 
ATOM     14  C   UNL     1     -11.101 -10.391  -4.361  0.00  0.00    +0.000 A 
ATOM     15  C   UNL     1     -11.272  -9.904  -6.715  0.00  0.00    +0.000 A 
ATOM     16  C   UNL     1     -10.505 -10.000  -5.556  0.00  0.00    +0.000 A 
ENDBRANCH  10  11
ENDBRANCH   1  10
TORSDOF 2
ENDMDL
MODEL 7
REMARK VINA RESULT:    -5.933     10.794     12.097
REMARK INTER + INTRA:          -6.777
REMARK INTER:                  -6.655
REMARK INTRA:                  -0.122
REMARK UNBOUND:                -0.150
REMARK  Name = 1550473
REMARK  2 active torsions:
REMARK  status: ('A' for Active; 'I' for Inactive)
REMARK    1  A    between atoms: N_1  and  C_4
REMARK    2  A    between atoms: C_4  and  C_5
REMARK                            x       y       z     vdW  Elec       q    Type
REMARK                         _______ _______ _______ _____ _____    ______ ____
ROOT
ATOM      1  N   UNL     1     -12.263  -9.766  -4.844  0.00  0.00    -0.354 N 
ATOM      2  N   UNL     1     -11.938  -9.639  -2.555  0.00  0.00    -0.372 N 
ATOM      3  N   UNL     1     -11.811 -11.687  -3.581  0.00  0.00    -0.372 N 
ATOM      4  C   UNL     1     -12.006 -10.368  -3.675  0.00  0.00    +0.166 C 
ATOM      5  H   UNL     1     -12.431  -8.767  -4.845  0.00  0.00    +0.163 HD
ATOM      6  H   UNL     1     -11.743 -10.064  -1.659  0.00  0.00    +0.159 HD
ATOM      7  H   UNL     1     -12.061  -8.634  -2.565  0.00  0.00    +0.159 HD
ATOM      8  H   UNL     1     -11.855 -12.294  -4.388  0.00  0.00    +0.159 HD
ATOM      9  H   UNL     1     -11.625 -12.133  -2.691  0.00  0.00    +0.159 HD
ENDROOT
BRANCH   1  10
ATOM     10  C   UNL     1     -12.305 -10.461  -6.130  0.00  0.00    +0.151 C 
BRANCH  10  11
ATOM     11  C   UNL     1     -12.345  -9.444  -7.237  0.00  0.00    -0.028 A 
ATOM     12  C   UNL     1     -12.654  -8.104  -6.962  0.00  0.00    +0.005 A 
ATOM     13  C   UNL     1     -12.068  -9.813  -8.562  0.00  0.00    +0.005 A 
ATOM     14  C   UNL     1     -12.662  -7.153  -7.985  0.00  0.00    +0.000 A 
ATOM     15  C   UNL     1     -12.078  -8.861  -9.581  0.00  0.00    +0.000 A 
ATOM     16  C   UNL     1     -12.372  -7.531  -9.292  0.00  0.00    +0.000 A 
ENDBRANCH  10  11
ENDBRANCH   1  10
TORSDOF 2
ENDMDL
MODEL 8
REMARK VINA RESULT:    -5.699      3.935      5.338
REMARK INTER + INTRA:          -6.516
REMARK INTER:                  -6.714
REMARK INTRA:                   0.198
REMARK UNBOUND:                -0.150
REMARK  Name = 1550473
REMARK  2 active torsions:
REMARK  status: ('A' for Active; 'I' for Inactive)
REMARK    1  A    between atoms: N_1  and  C_4
REMARK    2  A    between atoms: C_4  and  C_5
REMARK                            x       y       z     vdW  Elec       q    Type
REMARK                         _______ _______ _______ _____ _____    ______ ____
ROOT
ATOM      1  N   UNL     1      -9.640   2.289  -8.717  0.00  0.00    -0.354 N 
ATOM      2  N   UNL     1      -7.831   0.927  -9.206  0.00  0.00    -0.372 N 
ATOM      3  N   UNL     1      -9.528   1.111 -10.740  0.00  0.00    -0.372 N 
ATOM      4  C   UNL     1      -9.013   1.451  -9.553  0.00  0.00    +0.166 C 
ATOM      5  H   UNL     1      -9.211   2.483  -7.819  0.00  0.00    +0.163 HD
ATOM      6  H   UNL     1      -7.333   0.295  -9.818  0.00  0.00    +0.159 HD
ATOM      7  H   UNL     1      -7.383   1.159  -8.328  0.00  0.00    +0.159 HD
ATOM      8  H   UNL     1     -10.419   1.466 -11.059  0.00  0.00    +0.159 HD
ATOM      9  H   UNL     1      -9.050   0.470 -11.361  0.00  0.00    +0.159 HD
ENDROOT
BRANCH   1  10
ATOM     10  C   UNL     1     -10.904   2.955  -9.023  0.00  0.00    +0.151 C 
BRANCH  10  11
ATOM     11  C   UNL     1     -12.010   1.936  -9.019  0.00  0.00    -0.028 A 
ATOM     12  C   UNL     1     -13.037   1.995  -9.972  0.00  0.00    +0.005 A 
ATOM     13  C   UNL     1     -12.034   0.905  -8.067  0.00  0.00    +0.005 A 
ATOM     14  C   UNL     1     -14.048   1.031  -9.988  0.00  0.00    +0.000 A 
ATOM     15  C   UNL     1     -13.045  -0.055  -8.085  0.00  0.00    +0.000 A 
ATOM     16  C   UNL     1     -14.050   0.007  -9.047  0.00  0.00    +0.000 A 
ENDBRANCH  10  11
ENDBRANCH   1  10
TORSDOF 2
ENDMDL
MODEL 9
REMARK VINA RESULT:    -5.583     19.653     20.927
REMARK INTER + INTRA:          -6.386
REMARK INTER:                  -6.275
REMARK INTRA:                  -0.111
REMARK UNBOUND:                -0.150
REMARK  Name = 1550473
REMARK  2 active torsions:
REMARK  status: ('A' for Active; 'I' for Inactive)
REMARK    1  A    between atoms: N_1  and  C_4
REMARK    2  A    between atoms: C_4  and  C_5
REMARK                            x       y       z     vdW  Elec       q    Type
REMARK                         _______ _______ _______ _____ _____    ______ ____
ROOT
ATOM      1  N   UNL     1       3.261   6.035 -17.123  0.00  0.00    -0.354 N 
ATOM      2  N   UNL     1       0.983   5.951 -17.528  0.00  0.00    -0.372 N 
ATOM      3  N   UNL     1       2.315   4.264 -18.331  0.00  0.00    -0.372 N 
ATOM      4  C   UNL     1       2.202   5.415 -17.659  0.00  0.00    +0.166 C 
ATOM      5  H   UNL     1       3.113   6.920 -16.652  0.00  0.00    +0.163 HD
ATOM      6  H   UNL     1       0.164   5.504 -17.919  0.00  0.00    +0.159 HD
ATOM      7  H   UNL     1       0.831   6.812 -17.017  0.00  0.00    +0.159 HD
ATOM      8  H   UNL     1       3.208   3.811 -18.471  0.00  0.00    +0.159 HD
ATOM      9  H   UNL     1       1.509   3.807 -18.740  0.00  0.00    +0.159 HD
ENDROOT
BRANCH   1  10
ATOM     10  C   UNL     1       4.624   5.508 -17.163  0.00  0.00    +0.151 C 
BRANCH  10  11
ATOM     11  C   UNL     1       5.575   6.566 -16.674  0.00  0.00    -0.028 A 
ATOM     12  C   UNL     1       6.591   6.244 -15.763  0.00  0.00    +0.005 A 
ATOM     13  C   UNL     1       5.468   7.892 -17.123  0.00  0.00    +0.005 A 
ATOM     14  C   UNL     1       7.493   7.220 -15.332  0.00  0.00    +0.000 A 
ATOM     15  C   UNL     1       6.369   8.863 -16.689  0.00  0.00    +0.000 A 
ATOM     16  C   UNL     1       7.383   8.527 -15.796  0.00  0.00    +0.000 A 
ENDBRANCH  10  11
ENDBRANCH   1  10
TORSDOF 2
ENDMDL
