MODEL 1
REMARK VINA RESULT:    -5.760      0.000      0.000
REMARK INTER + INTRA:          -6.577
REMARK INTER:                  -6.433
REMARK INTRA:                  -0.144
REMARK UNBOUND:                -0.144
REMARK  Name = 1550473
REMARK  2 active torsions:
REMARK  status: ('A' for Active; 'I' for Inactive)
REMARK    1  A    between atoms: N_1  and  C_4
REMARK    2  A    between atoms: C_4  and  C_5
REMARK                            x       y       z     vdW  Elec       q    Type
REMARK                         _______ _______ _______ _____ _____    ______ ____
ROOT
ATOM      1  N   UNL     1       0.326  -0.673  -3.342  0.00  0.00    -0.354 N 
ATOM      2  N   UNL     1      -1.802  -1.399  -2.787  0.00  0.00    -0.372 N 
ATOM      3  N   UNL     1      -0.353  -2.871  -3.785  0.00  0.00    -0.372 N 
ATOM      4  C   UNL     1      -0.595  -1.645  -3.310  0.00  0.00    +0.166 C 
ATOM      5  H   UNL     1       0.070   0.244  -2.993  0.00  0.00    +0.163 HD
ATOM      6  H   UNL     1      -2.516  -2.114  -2.746  0.00  0.00    +0.159 HD
ATOM      7  H   UNL     1      -2.040  -0.495  -2.397  0.00  0.00    +0.159 HD
ATOM      8  H   UNL     1       0.536  -3.120  -4.198  0.00  0.00    +0.159 HD
ATOM      9  H   UNL     1      -1.059  -3.597  -3.764  0.00  0.00    +0.159 HD
ENDROOT
BRANCH   1  10
ATOM     10  C   UNL     1       1.688  -0.853  -3.841  0.00  0.00    +0.151 C 
BRANCH  10  11
ATOM     11  C   UNL     1       1.838  -0.109  -5.139  0.00  0.00    -0.028 A 
ATOM     12  C   UNL     1       2.691   1.001  -5.229  0.00  0.00    +0.005 A 
ATOM     13  C   UNL     1       1.135  -0.512  -6.284  0.00  0.00    +0.005 A 
ATOM     14  C   UNL     1       2.854   1.674  -6.442  0.00  0.00    +0.000 A 
ATOM     15  C   UNL     1       1.299   0.164  -7.494  0.00  0.00    +0.000 A 
ATOM     16  C   UNL     1       2.161   1.255  -7.573  0.00  0.00    +0.000 A 
ENDBRANCH  10  11
ENDBRANCH   1  10
TORSDOF 2
ENDMDL
MODEL 2
REMARK VINA RESULT:    -5.505      2.024      3.422
REMARK INTER + INTRA:          -6.292
REMARK INTER:                  -6.179
REMARK INTRA:                  -0.113
REMARK UNBOUND:                -0.144
REMARK  Name = 1550473
REMARK  2 active torsions:
REMARK  status: ('A' for Active; 'I' for Inactive)
REMARK    1  A    between atoms: N_1  and  C_4
REMARK    2  A    between atoms: C_4  and  C_5
REMARK                            x       y       z     vdW  Elec       q    Type
REMARK                         _______ _______ _______ _____ _____    ______ ____
ROOT
ATOM      1  N   UNL     1      -0.848  -3.533  -2.690  0.00  0.00    -0.354 N 
ATOM      2  N   UNL     1      -1.304  -5.268  -1.225  0.00  0.00    -0.372 N 
ATOM      3  N   UNL     1      -2.534  -5.093  -3.154  0.00  0.00    -0.372 N 
ATOM      4  C   UNL     1      -1.561  -4.620  -2.368  0.00  0.00    +0.166 C 
ATOM      5  H   UNL     1      -0.145  -3.208  -2.037  0.00  0.00    +0.163 HD
ATOM      6  H   UNL     1      -1.823  -6.093  -0.957  0.00  0.00    +0.159 HD
ATOM      7  H   UNL     1      -0.569  -4.967  -0.596  0.00  0.00    +0.159 HD
ATOM      8  H   UNL     1      -2.782  -4.647  -4.027  0.00  0.00    +0.159 HD
ATOM      9  H   UNL     1      -3.073  -5.911  -2.897  0.00  0.00    +0.159 HD
ENDROOT
BRANCH   1  10
ATOM     10  C   UNL     1      -1.013  -2.787  -3.936  0.00  0.00    +0.151 C 
BRANCH  10  11
ATOM     11  C   UNL     1       0.063  -1.741  -4.028  0.00  0.00    -0.028 A 
ATOM     12  C   UNL     1       0.594  -1.373  -5.273  0.00  0.00    +0.005 A 
ATOM     13  C   UNL     1       0.551  -1.108  -2.875  0.00  0.00    +0.005 A 
ATOM     14  C   UNL     1       1.572  -0.380  -5.362  0.00  0.00    +0.000 A 
ATOM     15  C   UNL     1       1.529  -0.118  -2.968  0.00  0.00    +0.000 A 
ATOM     16  C   UNL     1       2.037   0.248  -4.212  0.00  0.00    +0.000 A 
ENDBRANCH  10  11
ENDBRANCH   1  10
TORSDOF 2
ENDMDL
MODEL 3
REMARK VINA RESULT:    -5.295      5.029      6.645
REMARK INTER + INTRA:          -6.057
REMARK INTER:                  -5.887
REMARK INTRA:                  -0.170
REMARK UNBOUND:                -0.144
REMARK  Name = 1550473
REMARK  2 active torsions:
REMARK  status: ('A' for Active; 'I' for Inactive)
REMARK    1  A    between atoms: N_1  and  C_4
REMARK    2  A    between atoms: C_4  and  C_5
REMARK                            x       y       z     vdW  Elec       q    Type
REMARK                         _______ _______ _______ _____ _____    ______ ____
ROOT
ATOM      1  N   UNL     1       4.849   3.395  -8.505  0.00  0.00    -0.354 N 
ATOM      2  N   UNL     1       6.901   2.838  -9.424  0.00  0.00    -0.372 N 
ATOM      3  N   UNL     1       4.989   2.048 -10.418  0.00  0.00    -0.372 N 
ATOM      4  C   UNL     1       5.565   2.762  -9.445  0.00  0.00    +0.166 C 
ATOM      5  H   UNL     1       5.346   3.895  -7.777  0.00  0.00    +0.163 HD
ATOM      6  H   UNL     1       7.467   2.374 -10.122  0.00  0.00    +0.159 HD
ATOM      7  H   UNL     1       7.394   3.376  -8.722  0.00  0.00    +0.159 HD
ATOM      8  H   UNL     1       3.986   1.948 -10.486  0.00  0.00    +0.159 HD
ATOM      9  H   UNL     1       5.540   1.567 -11.119  0.00  0.00    +0.159 HD
ENDROOT
BRANCH   1  10
ATOM     10  C   UNL     1       3.388   3.421  -8.469  0.00  0.00    +0.151 C 
BRANCH  10  11
ATOM     11  C   UNL     1       2.900   2.334  -7.552  0.00  0.00    -0.028 A 
ATOM     12  C   UNL     1       1.942   1.408  -7.991  0.00  0.00    +0.005 A 
ATOM     13  C   UNL     1       3.396   2.221  -6.244  0.00  0.00    +0.005 A 
ATOM     14  C   UNL     1       1.511   0.380  -7.149  0.00  0.00    +0.000 A 
ATOM     15  C   UNL     1       2.962   1.194  -5.406  0.00  0.00    +0.000 A 
ATOM     16  C   UNL     1       2.022   0.272  -5.860  0.00  0.00    +0.000 A 
ENDBRANCH  10  11
ENDBRANCH   1  10
TORSDOF 2
ENDMDL
MODEL 4
REMARK VINA RESULT:    -5.289      5.364      6.867
REMARK INTER + INTRA:          -6.051
REMARK INTER:                  -5.934
REMARK INTRA:                  -0.117
REMARK UNBOUND:                -0.144
REMARK  Name = 1550473
REMARK  2 active torsions:
REMARK  status: ('A' for Active; 'I' for Inactive)
REMARK    1  A    between atoms: N_1  and  C_4
REMARK    2  A    between atoms: C_4  and  C_5
REMARK                            x       y       z     vdW  Elec       q    Type
REMARK                         _______ _______ _______ _____ _____    ______ ____
ROOT
ATOM      1  N   UNL     1      -0.066  -6.779  -0.372  0.00  0.00    -0.354 N 
ATOM      2  N   UNL     1      -1.084  -8.333   1.010  0.00  0.00    -0.372 N 
ATOM      3  N   UNL     1       0.981  -7.517   1.590  0.00  0.00    -0.372 N 
ATOM      4  C   UNL     1      -0.047  -7.533   0.735  0.00  0.00    +0.166 C 
ATOM      5  H   UNL     1      -0.861  -6.859  -0.995  0.00  0.00    +0.163 HD
ATOM      6  H   UNL     1      -1.099  -8.911   1.840  0.00  0.00    +0.159 HD
ATOM      7  H   UNL     1      -1.898  -8.377   0.409  0.00  0.00    +0.159 HD
ATOM      8  H   UNL     1       1.797  -6.939   1.437  0.00  0.00    +0.159 HD
ATOM      9  H   UNL     1       0.989  -8.097   2.420  0.00  0.00    +0.159 HD
ENDROOT
BRANCH   1  10
ATOM     10  C   UNL     1       0.989  -5.834  -0.736  0.00  0.00    +0.151 C 
BRANCH  10  11
ATOM     11  C   UNL     1       0.367  -4.633  -1.393  0.00  0.00    -0.028 A 
ATOM     12  C   UNL     1      -0.693  -4.787  -2.300  0.00  0.00    +0.005 A 
ATOM     13  C   UNL     1       0.828  -3.338  -1.110  0.00  0.00    +0.005 A 
ATOM     14  C   UNL     1      -1.291  -3.670  -2.888  0.00  0.00    +0.000 A 
ATOM     15  C   UNL     1       0.229  -2.226  -1.700  0.00  0.00    +0.000 A 
ATOM     16  C   UNL     1      -0.832  -2.392  -2.587  0.00  0.00    +0.000 A 
ENDBRANCH  10  11
ENDBRANCH   1  10
TORSDOF 2
ENDMDL
MODEL 5
REMARK VINA RESULT:    -5.282      5.225      6.858
REMARK INTER + INTRA:          -6.043
REMARK INTER:                  -5.930
REMARK INTRA:                  -0.113
REMARK UNBOUND:                -0.144
REMARK  Name = 1550473
REMARK  2 active torsions:
REMARK  status: ('A' for Active; 'I' for Inactive)
REMARK    1  A    between atoms: N_1  and  C_4
REMARK    2  A    between atoms: C_4  and  C_5
REMARK                            x       y       z     vdW  Elec       q    Type
REMARK                         _______ _______ _______ _____ _____    ______ ____
ROOT
ATOM      1  N   UNL     1       1.824  -5.755   0.693  0.00  0.00    -0.354 N 
ATOM      2  N   UNL     1       1.485  -7.090   2.555  0.00  0.00    -0.372 N 
ATOM      3  N   UNL     1       3.615  -6.393   2.063  0.00  0.00    -0.372 N 
ATOM      4  C   UNL     1       2.313  -6.404   1.758  0.00  0.00    +0.166 C 
ATOM      5  H   UNL     1       0.831  -5.827   0.500  0.00  0.00    +0.163 HD
ATOM      6  H   UNL     1       1.824  -7.587   3.368  0.00  0.00    +0.159 HD
ATOM      7  H   UNL     1       0.487  -7.122   2.385  0.00  0.00    +0.159 HD
ATOM      8  H   UNL     1       4.293  -5.899   1.498  0.00  0.00    +0.159 HD
ATOM      9  H   UNL     1       3.976  -6.894   2.865  0.00  0.00    +0.159 HD
ENDROOT
BRANCH   1  10
ATOM     10  C   UNL     1       2.632  -4.934  -0.207  0.00  0.00    +0.151 C 
BRANCH  10  11
ATOM     11  C   UNL     1       1.744  -3.930  -0.888  0.00  0.00    -0.028 A 
ATOM     12  C   UNL     1       0.453  -4.288  -1.304  0.00  0.00    +0.005 A 
ATOM     13  C   UNL     1       2.185  -2.617  -1.114  0.00  0.00    +0.005 A 
ATOM     14  C   UNL     1      -0.384  -3.347  -1.909  0.00  0.00    +0.000 A 
ATOM     15  C   UNL     1       1.347  -1.681  -1.719  0.00  0.00    +0.000 A 
ATOM     16  C   UNL     1       0.062  -2.045  -2.114  0.00  0.00    +0.000 A 
ENDBRANCH  10  11
ENDBRANCH   1  10
TORSDOF 2
ENDMDL
MODEL 6
REMARK VINA RESULT:    -5.269      4.926      6.584
REMARK INTER + INTRA:          -6.028
REMARK INTER:                  -5.937
REMARK INTRA:                  -0.091
REMARK UNBOUND:                -0.144
REMARK  Name = 1550473
REMARK  2 active torsions:
REMARK  status: ('A' for Active; 'I' for Inactive)
REMARK    1  A    between atoms: N_1  and  C_4
REMARK    2  A    between atoms: C_4  and  C_5
REMARK                            x       y       z     vdW  Elec       q    Type
REMARK                         _______ _______ _______ _____ _____    ______ ____
ROOT
ATOM      1  N   UNL     1       4.866   2.623  -8.403  0.00  0.00    -0.354 N 
ATOM      2  N   UNL     1       6.905   2.892  -9.467  0.00  0.00    -0.372 N 
ATOM      3  N   UNL     1       5.433   4.651  -9.431  0.00  0.00    -0.372 N 
ATOM      4  C   UNL     1       5.720   3.389  -9.094  0.00  0.00    +0.166 C 
ATOM      5  H   UNL     1       5.131   1.665  -8.205  0.00  0.00    +0.163 HD
ATOM      6  H   UNL     1       7.572   3.447  -9.987  0.00  0.00    +0.159 HD
ATOM      7  H   UNL     1       7.186   1.948  -9.228  0.00  0.00    +0.159 HD
ATOM      8  H   UNL     1       4.553   5.084  -9.185  0.00  0.00    +0.159 HD
ATOM      9  H   UNL     1       6.082   5.219  -9.961  0.00  0.00    +0.159 HD
ENDROOT
BRANCH   1  10
ATOM     10  C   UNL     1       3.573   3.087  -7.903  0.00  0.00    +0.151 C 
BRANCH  10  11
ATOM     11  C   UNL     1       2.896   1.960  -7.173  0.00  0.00    -0.028 A 
ATOM     12  C   UNL     1       3.216   1.683  -5.836  0.00  0.00    +0.005 A 
ATOM     13  C   UNL     1       1.929   1.168  -7.811  0.00  0.00    +0.005 A 
ATOM     14  C   UNL     1       2.566   0.655  -5.148  0.00  0.00    +0.000 A 
ATOM     15  C   UNL     1       1.282   0.142  -7.122  0.00  0.00    +0.000 A 
ATOM     16  C   UNL     1       1.599  -0.112  -5.790  0.00  0.00    +0.000 A 
ENDBRANCH  10  11
ENDBRANCH   1  10
TORSDOF 2
ENDMDL
MODEL 7
REMARK VINA RESULT:    -5.160      5.856      7.150
REMARK INTER + INTRA:          -5.907
REMARK INTER:                  -5.774
REMARK INTRA:                  -0.133
REMARK UNBOUND:                -0.144
REMARK  Name = 1550473
REMARK  2 active torsions:
REMARK  status: ('A' for Active; 'I' for Inactive)
REMARK    1  A    between atoms: N_1  and  C_4
REMARK    2  A    between atoms: C_4  and  C_5
REMARK                            x       y       z     vdW  Elec       q    Type
REMARK                         _______ _______ _______ _____ _____    ______ ____
ROOT
ATOM      1  N   UNL     1      -0.814  -5.571  -2.488  0.00  0.00    -0.354 N 
ATOM      2  N   UNL     1      -2.691  -5.162  -3.783  0.00  0.00    -0.372 N 
ATOM      3  N   UNL     1      -1.518  -3.381  -2.936  0.00  0.00    -0.372 N 
ATOM      4  C   UNL     1      -1.661  -4.704  -3.060  0.00  0.00    +0.166 C 
ATOM      5  H   UNL     1      -0.996  -6.562  -2.594  0.00  0.00    +0.163 HD
ATOM      6  H   UNL     1      -3.344  -4.532  -4.229  0.00  0.00    +0.159 HD
ATOM      7  H   UNL     1      -2.843  -6.153  -3.926  0.00  0.00    +0.159 HD
ATOM      8  H   UNL     1      -0.765  -2.972  -2.399  0.00  0.00    +0.159 HD
ATOM      9  H   UNL     1      -2.168  -2.735  -3.365  0.00  0.00    +0.159 HD
ENDROOT
BRANCH   1  10
ATOM     10  C   UNL     1       0.368  -5.176  -1.725  0.00  0.00    +0.151 C 
BRANCH  10  11
ATOM     11  C   UNL     1       1.482  -6.146  -2.007  0.00  0.00    -0.028 A 
ATOM     12  C   UNL     1       1.563  -6.796  -3.248  0.00  0.00    +0.005 A 
ATOM     13  C   UNL     1       2.462  -6.417  -1.040  0.00  0.00    +0.005 A 
ATOM     14  C   UNL     1       2.614  -7.674  -3.522  0.00  0.00    +0.000 A 
ATOM     15  C   UNL     1       3.509  -7.296  -1.317  0.00  0.00    +0.000 A 
ATOM     16  C   UNL     1       3.586  -7.922  -2.559  0.00  0.00    +0.000 A 
ENDBRANCH  10  11
ENDBRANCH   1  10
TORSDOF 2
ENDMDL
MODEL 8
REMARK VINA RESULT:    -5.099      2.776      3.734
REMARK INTER + INTRA:          -5.839
REMARK INTER:                  -5.700
REMARK INTRA:                  -0.139
REMARK UNBOUND:                -0.144
REMARK  Name = 1550473
REMARK  2 active torsions:
REMARK  status: ('A' for Active; 'I' for Inactive)
REMARK    1  A    between atoms: N_1  and  C_4
REMARK    2  A    between atoms: C_4  and  C_5
REMARK                            x       y       z     vdW  Elec       q    Type
REMARK                         _______ _______ _______ _____ _____    ______ ____
ROOT
ATOM      1  N   UNL     1       3.388  -0.405  -4.905  0.00  0.00    -0.354 N 
ATOM      2  N   UNL     1       4.946  -2.072  -4.511  0.00  0.00    -0.372 N 
ATOM      3  N   UNL     1       3.054  -2.583  -5.704  0.00  0.00    -0.372 N 
ATOM      4  C   UNL     1       3.784  -1.678  -5.044  0.00  0.00    +0.166 C 
ATOM      5  H   UNL     1       3.972   0.225  -4.368  0.00  0.00    +0.163 HD
ATOM      6  H   UNL     1       5.273  -3.025  -4.602  0.00  0.00    +0.159 HD
ATOM      7  H   UNL     1       5.550  -1.429  -4.014  0.00  0.00    +0.159 HD
ATOM      8  H   UNL     1       2.164  -2.351  -6.124  0.00  0.00    +0.159 HD
ATOM      9  H   UNL     1       3.358  -3.544  -5.796  0.00  0.00    +0.159 HD
ENDROOT
BRANCH   1  10
ATOM     10  C   UNL     1       2.165   0.139  -5.493  0.00  0.00    +0.151 C 
BRANCH  10  11
ATOM     11  C   UNL     1       2.528   1.245  -6.445  0.00  0.00    -0.028 A 
ATOM     12  C   UNL     1       1.976   1.285  -7.734  0.00  0.00    +0.005 A 
ATOM     13  C   UNL     1       3.418   2.260  -6.062  0.00  0.00    +0.005 A 
ATOM     14  C   UNL     1       2.290   2.329  -8.608  0.00  0.00    +0.000 A 
ATOM     15  C   UNL     1       3.729   3.300  -6.938  0.00  0.00    +0.000 A 
ATOM     16  C   UNL     1       3.163   3.335  -8.210  0.00  0.00    +0.000 A 
ENDBRANCH  10  11
ENDBRANCH   1  10
TORSDOF 2
ENDMDL
MODEL 9
REMARK VINA RESULT:    -4.990      1.992      3.223
REMARK INTER + INTRA:          -5.717
REMARK INTER:                  -5.591
REMARK INTRA:                  -0.126
REMARK UNBOUND:                -0.144
REMARK  Name = 1550473
REMARK  2 active torsions:
REMARK  status: ('A' for Active; 'I' for Inactive)
REMARK    1  A    between atoms: N_1  and  C_4
REMARK    2  A    between atoms: C_4  and  C_5
REMARK                            x       y       z     vdW  Elec       q    Type
REMARK                         _______ _______ _______ _____ _____    ______ ____
ROOT
ATOM      1  N   UNL     1       2.082  -0.930  -6.598  0.00  0.00    -0.354 N 
ATOM      2  N   UNL     1       1.881  -2.775  -5.213  0.00  0.00    -0.372 N 
ATOM      3  N   UNL     1       0.145  -1.279  -5.326  0.00  0.00    -0.372 N 
ATOM      4  C   UNL     1       1.369  -1.648  -5.721  0.00  0.00    +0.166 C 
ATOM      5  H   UNL     1       3.016  -1.248  -6.834  0.00  0.00    +0.163 HD
ATOM      6  H   UNL     1       1.365  -3.340  -4.552  0.00  0.00    +0.159 HD
ATOM      7  H   UNL     1       2.796  -3.115  -5.485  0.00  0.00    +0.159 HD
ATOM      8  H   UNL     1      -0.296  -0.435  -5.668  0.00  0.00    +0.159 HD
ATOM      9  H   UNL     1      -0.383  -1.824  -4.656  0.00  0.00    +0.159 HD
ENDROOT
BRANCH   1  10
ATOM     10  C   UNL     1       1.594   0.284  -7.251  0.00  0.00    +0.151 C 
BRANCH  10  11
ATOM     11  C   UNL     1       2.512   1.426  -6.912  0.00  0.00    -0.028 A 
ATOM     12  C   UNL     1       3.123   1.499  -5.652  0.00  0.00    +0.005 A 
ATOM     13  C   UNL     1       2.778   2.436  -7.849  0.00  0.00    +0.005 A 
ATOM     14  C   UNL     1       3.999   2.544  -5.347  0.00  0.00    +0.000 A 
ATOM     15  C   UNL     1       3.652   3.479  -7.541  0.00  0.00    +0.000 A 
ATOM     16  C   UNL     1       4.264   3.531  -6.291  0.00  0.00    +0.000 A 
ENDBRANCH  10  11
ENDBRANCH   1  10
TORSDOF 2
ENDMDL
