MODEL 1
REMARK VINA RESULT:    -6.565      0.000      0.000
REMARK INTER + INTRA:          -7.444
REMARK INTER:                  -7.333
REMARK INTRA:                  -0.112
REMARK UNBOUND:                -0.112
REMARK  Name = 1550473
REMARK  2 active torsions:
REMARK  status: ('A' for Active; 'I' for Inactive)
REMARK    1  A    between atoms: N_1  and  C_4
REMARK    2  A    between atoms: C_4  and  C_5
REMARK                            x       y       z     vdW  Elec       q    Type
REMARK                         _______ _______ _______ _____ _____    ______ ____
ROOT
ATOM      1  N   UNL     1       1.691  -2.073  -8.303  0.00  0.00    -0.354 N 
ATOM      2  N   UNL     1       1.119  -0.586  -6.621  0.00  0.00    -0.372 N 
ATOM      3  N   UNL     1      -0.203  -2.429  -6.969  0.00  0.00    -0.372 N 
ATOM      4  C   UNL     1       0.871  -1.707  -7.309  0.00  0.00    +0.166 C 
ATOM      5  H   UNL     1       2.471  -1.466  -8.531  0.00  0.00    +0.163 HD
ATOM      6  H   UNL     1       0.520  -0.287  -5.864  0.00  0.00    +0.159 HD
ATOM      7  H   UNL     1       1.925  -0.006  -6.821  0.00  0.00    +0.159 HD
ATOM      8  H   UNL     1      -0.449  -3.282  -7.452  0.00  0.00    +0.159 HD
ATOM      9  H   UNL     1      -0.821  -2.140  -6.221  0.00  0.00    +0.159 HD
ENDROOT
BRANCH   1  10
ATOM     10  C   UNL     1       1.540  -3.303  -9.078  0.00  0.00    +0.151 C 
BRANCH  10  11
ATOM     11  C   UNL     1       1.863  -3.019 -10.519  0.00  0.00    -0.028 A 
ATOM     12  C   UNL     1       3.085  -2.429 -10.871  0.00  0.00    +0.005 A 
ATOM     13  C   UNL     1       0.953  -3.344 -11.537  0.00  0.00    +0.005 A 
ATOM     14  C   UNL     1       3.398  -2.193 -12.212  0.00  0.00    +0.000 A 
ATOM     15  C   UNL     1       1.269  -3.105 -12.874  0.00  0.00    +0.000 A 
ATOM     16  C   UNL     1       2.493  -2.532 -13.211  0.00  0.00    +0.000 A 
ENDBRANCH  10  11
ENDBRANCH   1  10
TORSDOF 2
ENDMDL
MODEL 2
REMARK VINA RESULT:    -5.651      8.111      9.956
REMARK INTER + INTRA:          -6.424
REMARK INTER:                  -6.247
REMARK INTRA:                  -0.176
REMARK UNBOUND:                -0.112
REMARK  Name = 1550473
REMARK  2 active torsions:
REMARK  status: ('A' for Active; 'I' for Inactive)
REMARK    1  A    between atoms: N_1  and  C_4
REMARK    2  A    between atoms: C_4  and  C_5
REMARK                            x       y       z     vdW  Elec       q    Type
REMARK                         _______ _______ _______ _____ _____    ______ ____
ROOT
ATOM      1  N   UNL     1      -0.097  -7.278  -4.651  0.00  0.00    -0.354 N 
ATOM      2  N   UNL     1      -1.553  -5.478  -4.706  0.00  0.00    -0.372 N 
ATOM      3  N   UNL     1      -0.278  -5.817  -2.828  0.00  0.00    -0.372 N 
ATOM      4  C   UNL     1      -0.632  -6.203  -4.059  0.00  0.00    +0.166 C 
ATOM      5  H   UNL     1      -0.430  -7.536  -5.574  0.00  0.00    +0.163 HD
ATOM      6  H   UNL     1      -1.971  -4.659  -4.286  0.00  0.00    +0.159 HD
ATOM      7  H   UNL     1      -1.850  -5.710  -5.646  0.00  0.00    +0.159 HD
ATOM      8  H   UNL     1       0.407  -6.325  -2.285  0.00  0.00    +0.159 HD
ATOM      9  H   UNL     1      -0.694  -5.007  -2.386  0.00  0.00    +0.159 HD
ENDROOT
BRANCH   1  10
ATOM     10  C   UNL     1       0.951  -8.104  -4.055  0.00  0.00    +0.151 C 
BRANCH  10  11
ATOM     11  C   UNL     1       0.327  -9.334  -3.456  0.00  0.00    -0.028 A 
ATOM     12  C   UNL     1       0.049  -9.395  -2.082  0.00  0.00    +0.005 A 
ATOM     13  C   UNL     1       0.005 -10.440  -4.257  0.00  0.00    +0.005 A 
ATOM     14  C   UNL     1      -0.559 -10.525  -1.531  0.00  0.00    +0.000 A 
ATOM     15  C   UNL     1      -0.601 -11.567  -3.703  0.00  0.00    +0.000 A 
ATOM     16  C   UNL     1      -0.885 -11.608  -2.340  0.00  0.00    +0.000 A 
ENDBRANCH  10  11
ENDBRANCH   1  10
TORSDOF 2
ENDMDL
MODEL 3
REMARK VINA RESULT:    -5.580      5.689      6.713
REMARK INTER + INTRA:          -6.343
REMARK INTER:                  -6.180
REMARK INTRA:                  -0.163
REMARK UNBOUND:                -0.112
REMARK  Name = 1550473
REMARK  2 active torsions:
REMARK  status: ('A' for Active; 'I' for Inactive)
REMARK    1  A    between atoms: N_1  and  C_4
REMARK    2  A    between atoms: C_4  and  C_5
REMARK                            x       y       z     vdW  Elec       q    Type
REMARK                         _______ _______ _______ _____ _____    ______ ____
ROOT
ATOM      1  N   UNL     1       6.302   3.142  -9.924  0.00  0.00    -0.354 N 
ATOM      2  N   UNL     1       8.107   4.592  -9.900  0.00  0.00    -0.372 N 
ATOM      3  N   UNL     1       7.802   3.171  -8.124  0.00  0.00    -0.372 N 
ATOM      4  C   UNL     1       7.392   3.624  -9.314  0.00  0.00    +0.166 C 
ATOM      5  H   UNL     1       6.027   3.549 -10.811  0.00  0.00    +0.163 HD
ATOM      6  H   UNL     1       8.937   4.973  -9.465  0.00  0.00    +0.159 HD
ATOM      7  H   UNL     1       7.856   4.965 -10.808  0.00  0.00    +0.159 HD
ATOM      8  H   UNL     1       7.303   2.446  -7.626  0.00  0.00    +0.159 HD
ATOM      9  H   UNL     1       8.623   3.549  -7.667  0.00  0.00    +0.159 HD
ENDROOT
BRANCH   1  10
ATOM     10  C   UNL     1       5.484   2.051  -9.396  0.00  0.00    +0.151 C 
BRANCH  10  11
ATOM     11  C   UNL     1       5.582   0.871 -10.323  0.00  0.00    -0.028 A 
ATOM     12  C   UNL     1       4.555   0.598 -11.239  0.00  0.00    +0.005 A 
ATOM     13  C   UNL     1       6.701   0.025 -10.294  0.00  0.00    +0.005 A 
ATOM     14  C   UNL     1       4.659  -0.481 -12.121  0.00  0.00    +0.000 A 
ATOM     15  C   UNL     1       6.800  -1.052 -11.175  0.00  0.00    +0.000 A 
ATOM     16  C   UNL     1       5.780  -1.303 -12.090  0.00  0.00    +0.000 A 
ENDBRANCH  10  11
ENDBRANCH   1  10
TORSDOF 2
ENDMDL
MODEL 4
REMARK VINA RESULT:    -5.558      3.567      5.205
REMARK INTER + INTRA:          -6.319
REMARK INTER:                  -6.211
REMARK INTRA:                  -0.108
REMARK UNBOUND:                -0.112
REMARK  Name = 1550473
REMARK  2 active torsions:
REMARK  status: ('A' for Active; 'I' for Inactive)
REMARK    1  A    between atoms: N_1  and  C_4
REMARK    2  A    between atoms: C_4  and  C_5
REMARK                            x       y       z     vdW  Elec       q    Type
REMARK                         _______ _______ _______ _____ _____    ______ ____
ROOT
ATOM      1  N   UNL     1       5.476  -1.609 -11.619  0.00  0.00    -0.354 N 
ATOM      2  N   UNL     1       7.718  -1.430 -11.068  0.00  0.00    -0.372 N 
ATOM      3  N   UNL     1       6.996  -0.567 -13.067  0.00  0.00    -0.372 N 
ATOM      4  C   UNL     1       6.715  -1.202 -11.924  0.00  0.00    +0.166 C 
ATOM      5  H   UNL     1       5.334  -2.112 -10.751  0.00  0.00    +0.163 HD
ATOM      6  H   UNL     1       8.663  -1.132 -11.269  0.00  0.00    +0.159 HD
ATOM      7  H   UNL     1       7.565  -1.892 -10.179  0.00  0.00    +0.159 HD
ATOM      8  H   UNL     1       6.285  -0.370 -13.759  0.00  0.00    +0.159 HD
ATOM      9  H   UNL     1       7.937  -0.271 -13.292  0.00  0.00    +0.159 HD
ENDROOT
BRANCH   1  10
ATOM     10  C   UNL     1       4.305  -1.363 -12.459  0.00  0.00    +0.151 C 
BRANCH  10  11
ATOM     11  C   UNL     1       3.177  -2.245 -11.999  0.00  0.00    -0.028 A 
ATOM     12  C   UNL     1       2.386  -2.933 -12.931  0.00  0.00    +0.005 A 
ATOM     13  C   UNL     1       2.897  -2.401 -10.633  0.00  0.00    +0.005 A 
ATOM     14  C   UNL     1       1.357  -3.776 -12.503  0.00  0.00    +0.000 A 
ATOM     15  C   UNL     1       1.868  -3.242 -10.210  0.00  0.00    +0.000 A 
ATOM     16  C   UNL     1       1.100  -3.932 -11.145  0.00  0.00    +0.000 A 
ENDBRANCH  10  11
ENDBRANCH   1  10
TORSDOF 2
ENDMDL
MODEL 5
REMARK VINA RESULT:    -5.513      5.867      7.355
REMARK INTER + INTRA:          -6.269
REMARK INTER:                  -6.140
REMARK INTRA:                  -0.129
REMARK UNBOUND:                -0.112
REMARK  Name = 1550473
REMARK  2 active torsions:
REMARK  status: ('A' for Active; 'I' for Inactive)
REMARK    1  A    between atoms: N_1  and  C_4
REMARK    2  A    between atoms: C_4  and  C_5
REMARK                            x       y       z     vdW  Elec       q    Type
REMARK                         _______ _______ _______ _____ _____    ______ ____
ROOT
ATOM      1  N   UNL     1       8.699  -2.540 -11.576  0.00  0.00    -0.354 N 
ATOM      2  N   UNL     1      11.007  -2.715 -11.659  0.00  0.00    -0.372 N 
ATOM      3  N   UNL     1       9.751  -3.871 -13.192  0.00  0.00    -0.372 N 
ATOM      4  C   UNL     1       9.803  -3.043 -12.144  0.00  0.00    +0.166 C 
ATOM      5  H   UNL     1       8.804  -1.942 -10.765  0.00  0.00    +0.163 HD
ATOM      6  H   UNL     1      11.858  -3.076 -12.069  0.00  0.00    +0.159 HD
ATOM      7  H   UNL     1      11.111  -2.080 -10.877  0.00  0.00    +0.159 HD
ATOM      8  H   UNL     1       8.873  -4.162 -13.602  0.00  0.00    +0.159 HD
ATOM      9  H   UNL     1      10.591  -4.252 -13.609  0.00  0.00    +0.159 HD
ENDROOT
BRANCH   1  10
ATOM     10  C   UNL     1       7.343  -2.792 -12.061  0.00  0.00    +0.151 C 
BRANCH  10  11
ATOM     11  C   UNL     1       6.471  -1.617 -11.713  0.00  0.00    -0.028 A 
ATOM     12  C   UNL     1       6.951  -0.595 -10.881  0.00  0.00    +0.005 A 
ATOM     13  C   UNL     1       5.165  -1.517 -12.217  0.00  0.00    +0.005 A 
ATOM     14  C   UNL     1       6.152   0.511 -10.582  0.00  0.00    +0.000 A 
ATOM     15  C   UNL     1       4.370  -0.411 -11.915  0.00  0.00    +0.000 A 
ATOM     16  C   UNL     1       4.865   0.604 -11.100  0.00  0.00    +0.000 A 
ENDBRANCH  10  11
ENDBRANCH   1  10
TORSDOF 2
ENDMDL
MODEL 6
REMARK VINA RESULT:    -5.342      4.937      5.947
REMARK INTER + INTRA:          -6.079
REMARK INTER:                  -5.912
REMARK INTRA:                  -0.167
REMARK UNBOUND:                -0.112
REMARK  Name = 1550473
REMARK  2 active torsions:
REMARK  status: ('A' for Active; 'I' for Inactive)
REMARK    1  A    between atoms: N_1  and  C_4
REMARK    2  A    between atoms: C_4  and  C_5
REMARK                            x       y       z     vdW  Elec       q    Type
REMARK                         _______ _______ _______ _____ _____    ______ ____
ROOT
ATOM      1  N   UNL     1       7.863  -0.202  -8.794  0.00  0.00    -0.354 N 
ATOM      2  N   UNL     1       7.596   0.144  -6.520  0.00  0.00    -0.372 N 
ATOM      3  N   UNL     1       7.656   1.962  -7.919  0.00  0.00    -0.372 N 
ATOM      4  C   UNL     1       7.707   0.635  -7.760  0.00  0.00    +0.166 C 
ATOM      5  H   UNL     1       7.924  -1.196  -8.604  0.00  0.00    +0.163 HD
ATOM      6  H   UNL     1       7.474   0.751  -5.720  0.00  0.00    +0.159 HD
ATOM      7  H   UNL     1       7.611  -0.852  -6.337  0.00  0.00    +0.159 HD
ATOM      8  H   UNL     1       7.740   2.396  -8.829  0.00  0.00    +0.159 HD
ATOM      9  H   UNL     1       7.546   2.586  -7.130  0.00  0.00    +0.159 HD
ENDROOT
BRANCH   1  10
ATOM     10  C   UNL     1       7.940   0.227 -10.189  0.00  0.00    +0.151 C 
BRANCH  10  11
ATOM     11  C   UNL     1       6.705  -0.235 -10.914  0.00  0.00    -0.028 A 
ATOM     12  C   UNL     1       6.648  -1.518 -11.476  0.00  0.00    +0.005 A 
ATOM     13  C   UNL     1       5.587   0.605 -11.036  0.00  0.00    +0.005 A 
ATOM     14  C   UNL     1       5.491  -1.958 -12.123  0.00  0.00    +0.000 A 
ATOM     15  C   UNL     1       4.434   0.162 -11.684  0.00  0.00    +0.000 A 
ATOM     16  C   UNL     1       4.385  -1.121 -12.225  0.00  0.00    +0.000 A 
ENDBRANCH  10  11
ENDBRANCH   1  10
TORSDOF 2
ENDMDL
MODEL 7
REMARK VINA RESULT:    -5.261     26.133     26.775
REMARK INTER + INTRA:          -5.988
REMARK INTER:                  -5.859
REMARK INTRA:                  -0.129
REMARK UNBOUND:                -0.112
REMARK  Name = 1550473
REMARK  2 active torsions:
REMARK  status: ('A' for Active; 'I' for Inactive)
REMARK    1  A    between atoms: N_1  and  C_4
REMARK    2  A    between atoms: C_4  and  C_5
REMARK                            x       y       z     vdW  Elec       q    Type
REMARK                         _______ _______ _______ _____ _____    ______ ____
ROOT
ATOM      1  N   UNL     1      -0.253   2.436  16.048  0.00  0.00    -0.354 N 
ATOM      2  N   UNL     1      -2.016   3.355  14.860  0.00  0.00    -0.372 N 
ATOM      3  N   UNL     1      -2.320   1.339  15.913  0.00  0.00    -0.372 N 
ATOM      4  C   UNL     1      -1.519   2.368  15.616  0.00  0.00    +0.166 C 
ATOM      5  H   UNL     1       0.311   3.228  15.763  0.00  0.00    +0.163 HD
ATOM      6  H   UNL     1      -2.969   3.333  14.522  0.00  0.00    +0.159 HD
ATOM      7  H   UNL     1      -1.464   4.168  14.614  0.00  0.00    +0.159 HD
ATOM      8  H   UNL     1      -2.004   0.560  16.475  0.00  0.00    +0.159 HD
ATOM      9  H   UNL     1      -3.273   1.294  15.575  0.00  0.00    +0.159 HD
ENDROOT
BRANCH   1  10
ATOM     10  C   UNL     1       0.367   1.441  16.920  0.00  0.00    +0.151 C 
BRANCH  10  11
ATOM     11  C   UNL     1       1.859   1.485  16.734  0.00  0.00    -0.028 A 
ATOM     12  C   UNL     1       2.436   2.383  15.823  0.00  0.00    +0.005 A 
ATOM     13  C   UNL     1       2.701   0.637  17.468  0.00  0.00    +0.005 A 
ATOM     14  C   UNL     1       3.823   2.446  15.671  0.00  0.00    +0.000 A 
ATOM     15  C   UNL     1       4.086   0.702  17.313  0.00  0.00    +0.000 A 
ATOM     16  C   UNL     1       4.646   1.608  16.416  0.00  0.00    +0.000 A 
ENDBRANCH  10  11
ENDBRANCH   1  10
TORSDOF 2
ENDMDL
MODEL 8
REMARK VINA RESULT:    -5.193     14.250     15.458
REMARK INTER + INTRA:          -5.912
REMARK INTER:                  -5.735
REMARK INTRA:                  -0.177
REMARK UNBOUND:                -0.112
REMARK  Name = 1550473
REMARK  2 active torsions:
REMARK  status: ('A' for Active; 'I' for Inactive)
REMARK    1  A    between atoms: N_1  and  C_4
REMARK    2  A    between atoms: C_4  and  C_5
REMARK                            x       y       z     vdW  Elec       q    Type
REMARK                         _______ _______ _______ _____ _____    ______ ____
ROOT
ATOM      1  N   UNL     1     -13.714  -4.814 -16.240  0.00  0.00    -0.354 N 
ATOM      2  N   UNL     1     -14.992  -6.215 -17.571  0.00  0.00    -0.372 N 
ATOM      3  N   UNL     1     -14.341  -6.946 -15.496  0.00  0.00    -0.372 N 
ATOM      4  C   UNL     1     -14.340  -5.984 -16.425  0.00  0.00    +0.166 C 
ATOM      5  H   UNL     1     -13.726  -4.138 -16.995  0.00  0.00    +0.163 HD
ATOM      6  H   UNL     1     -15.476  -7.087 -17.737  0.00  0.00    +0.159 HD
ATOM      7  H   UNL     1     -15.040  -5.519 -18.306  0.00  0.00    +0.159 HD
ATOM      8  H   UNL     1     -13.862  -6.837 -14.611  0.00  0.00    +0.159 HD
ATOM      9  H   UNL     1     -14.810  -7.830 -15.648  0.00  0.00    +0.159 HD
ENDROOT
BRANCH   1  10
ATOM     10  C   UNL     1     -13.022  -4.443 -15.008  0.00  0.00    +0.151 C 
BRANCH  10  11
ATOM     11  C   UNL     1     -11.548  -4.685 -15.180  0.00  0.00    -0.028 A 
ATOM     12  C   UNL     1     -10.856  -5.526 -14.297  0.00  0.00    +0.005 A 
ATOM     13  C   UNL     1     -10.838  -4.081 -16.229  0.00  0.00    +0.005 A 
ATOM     14  C   UNL     1      -9.493  -5.776 -14.475  0.00  0.00    +0.000 A 
ATOM     15  C   UNL     1      -9.477  -4.331 -16.403  0.00  0.00    +0.000 A 
ATOM     16  C   UNL     1      -8.805  -5.181 -15.527  0.00  0.00    +0.000 A 
ENDBRANCH  10  11
ENDBRANCH   1  10
TORSDOF 2
ENDMDL
MODEL 9
REMARK VINA RESULT:    -5.105     10.522     11.928
REMARK INTER + INTRA:          -5.813
REMARK INTER:                  -5.634
REMARK INTRA:                  -0.179
REMARK UNBOUND:                -0.112
REMARK  Name = 1550473
REMARK  2 active torsions:
REMARK  status: ('A' for Active; 'I' for Inactive)
REMARK    1  A    between atoms: N_1  and  C_4
REMARK    2  A    between atoms: C_4  and  C_5
REMARK                            x       y       z     vdW  Elec       q    Type
REMARK                         _______ _______ _______ _____ _____    ______ ____
ROOT
ATOM      1  N   UNL     1      -3.641 -10.906 -17.272  0.00  0.00    -0.354 N 
ATOM      2  N   UNL     1      -5.906 -11.325 -17.027  0.00  0.00    -0.372 N 
ATOM      3  N   UNL     1      -5.064 -10.974 -19.133  0.00  0.00    -0.372 N 
ATOM      4  C   UNL     1      -4.856 -11.065 -17.815  0.00  0.00    +0.166 C 
ATOM      5  H   UNL     1      -3.555 -10.958 -16.264  0.00  0.00    +0.163 HD
ATOM      6  H   UNL     1      -6.834 -11.453 -17.409  0.00  0.00    +0.159 HD
ATOM      7  H   UNL     1      -5.809 -11.422 -16.024  0.00  0.00    +0.159 HD
ATOM      8  H   UNL     1      -4.314 -10.774 -19.781  0.00  0.00    +0.159 HD
ATOM      9  H   UNL     1      -5.987 -11.087 -19.533  0.00  0.00    +0.159 HD
ENDROOT
BRANCH   1  10
ATOM     10  C   UNL     1      -2.423 -10.674 -18.046  0.00  0.00    +0.151 C 
BRANCH  10  11
ATOM     11  C   UNL     1      -2.068  -9.214 -17.976  0.00  0.00    -0.028 A 
ATOM     12  C   UNL     1      -1.310  -8.716 -16.906  0.00  0.00    +0.005 A 
ATOM     13  C   UNL     1      -2.482  -8.325 -18.980  0.00  0.00    +0.005 A 
ATOM     14  C   UNL     1      -0.955  -7.366 -16.856  0.00  0.00    +0.000 A 
ATOM     15  C   UNL     1      -2.125  -6.977 -18.926  0.00  0.00    +0.000 A 
ATOM     16  C   UNL     1      -1.360  -6.499 -17.865  0.00  0.00    +0.000 A 
ENDBRANCH  10  11
ENDBRANCH   1  10
TORSDOF 2
ENDMDL
