MODEL 1
REMARK VINA RESULT:    -6.401      0.000      0.000
REMARK INTER + INTRA:          -7.268
REMARK INTER:                  -7.150
REMARK INTRA:                  -0.118
REMARK UNBOUND:                -0.118
REMARK  Name = 1550473
REMARK  2 active torsions:
REMARK  status: ('A' for Active; 'I' for Inactive)
REMARK    1  A    between atoms: N_1  and  C_4
REMARK    2  A    between atoms: C_4  and  C_5
REMARK                            x       y       z     vdW  Elec       q    Type
REMARK                         _______ _______ _______ _____ _____    ______ ____
ROOT
ATOM      1  N   UNL     1      -4.558  -4.691   9.849  0.00  0.00    -0.354 N 
ATOM      2  N   UNL     1      -4.150  -2.753  11.050  0.00  0.00    -0.372 N 
ATOM      3  N   UNL     1      -5.644  -4.281  11.885  0.00  0.00    -0.372 N 
ATOM      4  C   UNL     1      -4.789  -3.922  10.922  0.00  0.00    +0.166 C 
ATOM      5  H   UNL     1      -3.920  -4.348   9.140  0.00  0.00    +0.163 HD
ATOM      6  H   UNL     1      -4.301  -2.153  11.850  0.00  0.00    +0.159 HD
ATOM      7  H   UNL     1      -3.479  -2.434  10.362  0.00  0.00    +0.159 HD
ATOM      8  H   UNL     1      -6.162  -5.149  11.845  0.00  0.00    +0.159 HD
ATOM      9  H   UNL     1      -5.818  -3.689  12.688  0.00  0.00    +0.159 HD
ENDROOT
BRANCH   1  10
ATOM     10  C   UNL     1      -5.161  -6.006   9.641  0.00  0.00    +0.151 C 
BRANCH  10  11
ATOM     11  C   UNL     1      -5.389  -6.214   8.169  0.00  0.00    -0.028 A 
ATOM     12  C   UNL     1      -6.283  -5.396   7.464  0.00  0.00    +0.005 A 
ATOM     13  C   UNL     1      -4.708  -7.225   7.472  0.00  0.00    +0.005 A 
ATOM     14  C   UNL     1      -6.473  -5.570   6.091  0.00  0.00    +0.000 A 
ATOM     15  C   UNL     1      -4.900  -7.395   6.101  0.00  0.00    +0.000 A 
ATOM     16  C   UNL     1      -5.781  -6.566   5.410  0.00  0.00    +0.000 A 
ENDBRANCH  10  11
ENDBRANCH   1  10
TORSDOF 2
ENDMDL
MODEL 2
REMARK VINA RESULT:    -6.098      2.912      6.228
REMARK INTER + INTRA:          -6.929
REMARK INTER:                  -6.805
REMARK INTRA:                  -0.124
REMARK UNBOUND:                -0.118
REMARK  Name = 1550473
REMARK  2 active torsions:
REMARK  status: ('A' for Active; 'I' for Inactive)
REMARK    1  A    between atoms: N_1  and  C_4
REMARK    2  A    between atoms: C_4  and  C_5
REMARK                            x       y       z     vdW  Elec       q    Type
REMARK                         _______ _______ _______ _____ _____    ______ ____
ROOT
ATOM      1  N   UNL     1      -4.616  -4.355  10.610  0.00  0.00    -0.354 N 
ATOM      2  N   UNL     1      -4.056  -5.824   8.909  0.00  0.00    -0.372 N 
ATOM      3  N   UNL     1      -5.367  -6.575  10.637  0.00  0.00    -0.372 N 
ATOM      4  C   UNL     1      -4.685  -5.577  10.065  0.00  0.00    +0.166 C 
ATOM      5  H   UNL     1      -4.058  -3.650  10.143  0.00  0.00    +0.163 HD
ATOM      6  H   UNL     1      -4.093  -6.735   8.472  0.00  0.00    +0.159 HD
ATOM      7  H   UNL     1      -3.537  -5.105   8.421  0.00  0.00    +0.159 HD
ATOM      8  H   UNL     1      -5.858  -6.455  11.513  0.00  0.00    +0.159 HD
ATOM      9  H   UNL     1      -5.405  -7.497  10.221  0.00  0.00    +0.159 HD
ENDROOT
BRANCH   1  10
ATOM     10  C   UNL     1      -5.309  -3.968  11.838  0.00  0.00    +0.151 C 
BRANCH  10  11
ATOM     11  C   UNL     1      -4.959  -2.544  12.171  0.00  0.00    -0.028 A 
ATOM     12  C   UNL     1      -4.097  -1.810  11.342  0.00  0.00    +0.005 A 
ATOM     13  C   UNL     1      -5.491  -1.920  13.310  0.00  0.00    +0.005 A 
ATOM     14  C   UNL     1      -3.796  -0.477  11.634  0.00  0.00    +0.000 A 
ATOM     15  C   UNL     1      -5.187  -0.590  13.598  0.00  0.00    +0.000 A 
ATOM     16  C   UNL     1      -4.342   0.132  12.759  0.00  0.00    +0.000 A 
ENDBRANCH  10  11
ENDBRANCH   1  10
TORSDOF 2
ENDMDL
MODEL 3
REMARK VINA RESULT:    -6.008      3.615      4.364
REMARK INTER + INTRA:          -6.828
REMARK INTER:                  -6.714
REMARK INTRA:                  -0.114
REMARK UNBOUND:                -0.118
REMARK  Name = 1550473
REMARK  2 active torsions:
REMARK  status: ('A' for Active; 'I' for Inactive)
REMARK    1  A    between atoms: N_1  and  C_4
REMARK    2  A    between atoms: C_4  and  C_5
REMARK                            x       y       z     vdW  Elec       q    Type
REMARK                         _______ _______ _______ _____ _____    ______ ____
ROOT
ATOM      1  N   UNL     1      -3.513  -9.080   7.301  0.00  0.00    -0.354 N 
ATOM      2  N   UNL     1      -1.810  -8.745   8.834  0.00  0.00    -0.372 N 
ATOM      3  N   UNL     1      -1.885  -7.430   6.955  0.00  0.00    -0.372 N 
ATOM      4  C   UNL     1      -2.413  -8.419   7.685  0.00  0.00    +0.166 C 
ATOM      5  H   UNL     1      -3.846  -9.839   7.883  0.00  0.00    +0.163 HD
ATOM      6  H   UNL     1      -0.980  -8.262   9.151  0.00  0.00    +0.159 HD
ATOM      7  H   UNL     1      -2.171  -9.474   9.437  0.00  0.00    +0.159 HD
ATOM      8  H   UNL     1      -2.288  -7.140   6.075  0.00  0.00    +0.159 HD
ATOM      9  H   UNL     1      -1.048  -6.942   7.250  0.00  0.00    +0.159 HD
ENDROOT
BRANCH   1  10
ATOM     10  C   UNL     1      -4.275  -8.767   6.094  0.00  0.00    +0.151 C 
BRANCH  10  11
ATOM     11  C   UNL     1      -5.258  -7.671   6.404  0.00  0.00    -0.028 A 
ATOM     12  C   UNL     1      -5.998  -7.694   7.595  0.00  0.00    +0.005 A 
ATOM     13  C   UNL     1      -5.448  -6.603   5.513  0.00  0.00    +0.005 A 
ATOM     14  C   UNL     1      -6.888  -6.661   7.897  0.00  0.00    +0.000 A 
ATOM     15  C   UNL     1      -6.339  -5.574   5.818  0.00  0.00    +0.000 A 
ATOM     16  C   UNL     1      -7.057  -5.602   7.012  0.00  0.00    +0.000 A 
ENDBRANCH  10  11
ENDBRANCH   1  10
TORSDOF 2
ENDMDL
MODEL 4
REMARK VINA RESULT:    -5.826     24.170     25.599
REMARK INTER + INTRA:          -6.625
REMARK INTER:                  -6.499
REMARK INTRA:                  -0.125
REMARK UNBOUND:                -0.118
REMARK  Name = 1550473
REMARK  2 active torsions:
REMARK  status: ('A' for Active; 'I' for Inactive)
REMARK    1  A    between atoms: N_1  and  C_4
REMARK    2  A    between atoms: C_4  and  C_5
REMARK                            x       y       z     vdW  Elec       q    Type
REMARK                         _______ _______ _______ _____ _____    ______ ____
ROOT
ATOM      1  N   UNL     1       0.071  17.726   1.584  0.00  0.00    -0.354 N 
ATOM      2  N   UNL     1      -2.115  16.976   1.731  0.00  0.00    -0.372 N 
ATOM      3  N   UNL     1      -0.415  15.436   1.676  0.00  0.00    -0.372 N 
ATOM      4  C   UNL     1      -0.804  16.715   1.662  0.00  0.00    +0.166 C 
ATOM      5  H   UNL     1      -0.289  18.673   1.547  0.00  0.00    +0.163 HD
ATOM      6  H   UNL     1      -2.798  16.233   1.795  0.00  0.00    +0.159 HD
ATOM      7  H   UNL     1      -2.470  17.924   1.741  0.00  0.00    +0.159 HD
ATOM      8  H   UNL     1       0.560  15.172   1.620  0.00  0.00    +0.159 HD
ATOM      9  H   UNL     1      -1.085  14.678   1.727  0.00  0.00    +0.159 HD
ENDROOT
BRANCH   1  10
ATOM     10  C   UNL     1       1.522  17.552   1.558  0.00  0.00    +0.151 C 
BRANCH  10  11
ATOM     11  C   UNL     1       2.138  18.397   2.640  0.00  0.00    -0.028 A 
ATOM     12  C   UNL     1       2.207  19.791   2.502  0.00  0.00    +0.005 A 
ATOM     13  C   UNL     1       2.647  17.809   3.808  0.00  0.00    +0.005 A 
ATOM     14  C   UNL     1       2.751  20.578   3.519  0.00  0.00    +0.000 A 
ATOM     15  C   UNL     1       3.191  18.599   4.821  0.00  0.00    +0.000 A 
ATOM     16  C   UNL     1       3.240  19.984   4.677  0.00  0.00    +0.000 A 
ENDBRANCH  10  11
ENDBRANCH   1  10
TORSDOF 2
ENDMDL
MODEL 5
REMARK VINA RESULT:    -5.759      4.459      5.921
REMARK INTER + INTRA:          -6.551
REMARK INTER:                  -6.394
REMARK INTRA:                  -0.156
REMARK UNBOUND:                -0.118
REMARK  Name = 1550473
REMARK  2 active torsions:
REMARK  status: ('A' for Active; 'I' for Inactive)
REMARK    1  A    between atoms: N_1  and  C_4
REMARK    2  A    between atoms: C_4  and  C_5
REMARK                            x       y       z     vdW  Elec       q    Type
REMARK                         _______ _______ _______ _____ _____    ______ ____
ROOT
ATOM      1  N   UNL     1      -5.508 -10.064   6.101  0.00  0.00    -0.354 N 
ATOM      2  N   UNL     1      -5.923 -11.399   4.254  0.00  0.00    -0.372 N 
ATOM      3  N   UNL     1      -4.125  -9.974   4.211  0.00  0.00    -0.372 N 
ATOM      4  C   UNL     1      -5.181 -10.469   4.866  0.00  0.00    +0.166 C 
ATOM      5  H   UNL     1      -6.338 -10.456   6.531  0.00  0.00    +0.163 HD
ATOM      6  H   UNL     1      -5.698 -11.727   3.324  0.00  0.00    +0.159 HD
ATOM      7  H   UNL     1      -6.725 -11.822   4.705  0.00  0.00    +0.159 HD
ATOM      8  H   UNL     1      -3.528  -9.266   4.616  0.00  0.00    +0.159 HD
ATOM      9  H   UNL     1      -3.891 -10.281   3.275  0.00  0.00    +0.159 HD
ENDROOT
BRANCH   1  10
ATOM     10  C   UNL     1      -4.735  -9.096   6.876  0.00  0.00    +0.151 C 
BRANCH  10  11
ATOM     11  C   UNL     1      -5.480  -7.791   6.916  0.00  0.00    -0.028 A 
ATOM     12  C   UNL     1      -5.494  -6.945   5.797  0.00  0.00    +0.005 A 
ATOM     13  C   UNL     1      -6.178  -7.396   8.067  0.00  0.00    +0.005 A 
ATOM     14  C   UNL     1      -6.211  -5.746   5.823  0.00  0.00    +0.000 A 
ATOM     15  C   UNL     1      -6.892  -6.198   8.089  0.00  0.00    +0.000 A 
ATOM     16  C   UNL     1      -6.910  -5.375   6.966  0.00  0.00    +0.000 A 
ENDBRANCH  10  11
ENDBRANCH   1  10
TORSDOF 2
ENDMDL
MODEL 6
REMARK VINA RESULT:    -5.707     20.500     21.267
REMARK INTER + INTRA:          -6.492
REMARK INTER:                  -6.376
REMARK INTRA:                  -0.116
REMARK UNBOUND:                -0.118
REMARK  Name = 1550473
REMARK  2 active torsions:
REMARK  status: ('A' for Active; 'I' for Inactive)
REMARK    1  A    between atoms: N_1  and  C_4
REMARK    2  A    between atoms: C_4  and  C_5
REMARK                            x       y       z     vdW  Elec       q    Type
REMARK                         _______ _______ _______ _____ _____    ______ ____
ROOT
ATOM      1  N   UNL     1       5.502   5.928  -3.608  0.00  0.00    -0.354 N 
ATOM      2  N   UNL     1       3.546   6.802  -2.729  0.00  0.00    -0.372 N 
ATOM      3  N   UNL     1       3.917   4.543  -2.578  0.00  0.00    -0.372 N 
ATOM      4  C   UNL     1       4.334   5.749  -2.977  0.00  0.00    +0.166 C 
ATOM      5  H   UNL     1       5.747   6.863  -3.912  0.00  0.00    +0.163 HD
ATOM      6  H   UNL     1       2.660   6.698  -2.252  0.00  0.00    +0.159 HD
ATOM      7  H   UNL     1       3.814   7.742  -2.993  0.00  0.00    +0.159 HD
ATOM      8  H   UNL     1       4.463   3.707  -2.740  0.00  0.00    +0.159 HD
ATOM      9  H   UNL     1       3.028   4.417  -2.109  0.00  0.00    +0.159 HD
ENDROOT
BRANCH   1  10
ATOM     10  C   UNL     1       6.458   4.855  -3.878  0.00  0.00    +0.151 C 
BRANCH  10  11
ATOM     11  C   UNL     1       7.559   5.388  -4.753  0.00  0.00    -0.028 A 
ATOM     12  C   UNL     1       8.865   4.890  -4.635  0.00  0.00    +0.005 A 
ATOM     13  C   UNL     1       7.302   6.386  -5.704  0.00  0.00    +0.005 A 
ATOM     14  C   UNL     1       9.882   5.362  -5.468  0.00  0.00    +0.000 A 
ATOM     15  C   UNL     1       8.321   6.857  -6.533  0.00  0.00    +0.000 A 
ATOM     16  C   UNL     1       9.610   6.343  -6.416  0.00  0.00    +0.000 A 
ENDBRANCH  10  11
ENDBRANCH   1  10
TORSDOF 2
ENDMDL
MODEL 7
REMARK VINA RESULT:    -5.552     25.162     26.494
REMARK INTER + INTRA:          -6.319
REMARK INTER:                  -6.202
REMARK INTRA:                  -0.117
REMARK UNBOUND:                -0.118
REMARK  Name = 1550473
REMARK  2 active torsions:
REMARK  status: ('A' for Active; 'I' for Inactive)
REMARK    1  A    between atoms: N_1  and  C_4
REMARK    2  A    between atoms: C_4  and  C_5
REMARK                            x       y       z     vdW  Elec       q    Type
REMARK                         _______ _______ _______ _____ _____    ______ ____
ROOT
ATOM      1  N   UNL     1       2.206  17.982   0.111  0.00  0.00    -0.354 N 
ATOM      2  N   UNL     1       2.279  18.099  -2.201  0.00  0.00    -0.372 N 
ATOM      3  N   UNL     1       0.947  16.514  -1.212  0.00  0.00    -0.372 N 
ATOM      4  C   UNL     1       1.809  17.529  -1.085  0.00  0.00    +0.166 C 
ATOM      5  H   UNL     1       2.885  18.735   0.139  0.00  0.00    +0.163 HD
ATOM      6  H   UNL     1       1.995  17.780  -3.118  0.00  0.00    +0.159 HD
ATOM      7  H   UNL     1       2.922  18.881  -2.170  0.00  0.00    +0.159 HD
ATOM      8  H   UNL     1       0.560  16.037  -0.409  0.00  0.00    +0.159 HD
ATOM      9  H   UNL     1       0.659  16.173  -2.121  0.00  0.00    +0.159 HD
ENDROOT
BRANCH   1  10
ATOM     10  C   UNL     1       1.713  17.466   1.386  0.00  0.00    +0.151 C 
BRANCH  10  11
ATOM     11  C   UNL     1       2.135  18.397   2.489  0.00  0.00    -0.028 A 
ATOM     12  C   UNL     1       2.493  17.893   3.748  0.00  0.00    +0.005 A 
ATOM     13  C   UNL     1       2.184  19.784   2.280  0.00  0.00    +0.005 A 
ATOM     14  C   UNL     1       2.914  18.755   4.764  0.00  0.00    +0.000 A 
ATOM     15  C   UNL     1       2.604  20.641   3.297  0.00  0.00    +0.000 A 
ATOM     16  C   UNL     1       2.971  20.126   4.538  0.00  0.00    +0.000 A 
ENDBRANCH  10  11
ENDBRANCH   1  10
TORSDOF 2
ENDMDL
MODEL 8
REMARK VINA RESULT:    -5.525     22.115     22.872
REMARK INTER + INTRA:          -6.289
REMARK INTER:                  -6.182
REMARK INTRA:                  -0.107
REMARK UNBOUND:                -0.118
REMARK  Name = 1550473
REMARK  2 active torsions:
REMARK  status: ('A' for Active; 'I' for Inactive)
REMARK    1  A    between atoms: N_1  and  C_4
REMARK    2  A    between atoms: C_4  and  C_5
REMARK                            x       y       z     vdW  Elec       q    Type
REMARK                         _______ _______ _______ _____ _____    ______ ____
ROOT
ATOM      1  N   UNL     1       6.263   7.422  -4.115  0.00  0.00    -0.354 N 
ATOM      2  N   UNL     1       4.811   7.604  -2.319  0.00  0.00    -0.372 N 
ATOM      3  N   UNL     1       4.425   8.874  -4.191  0.00  0.00    -0.372 N 
ATOM      4  C   UNL     1       5.175   7.968  -3.555  0.00  0.00    +0.166 C 
ATOM      5  H   UNL     1       6.806   6.763  -3.569  0.00  0.00    +0.163 HD
ATOM      6  H   UNL     1       3.993   7.996  -1.872  0.00  0.00    +0.159 HD
ATOM      7  H   UNL     1       5.330   6.911  -1.793  0.00  0.00    +0.159 HD
ATOM      8  H   UNL     1       4.649   9.195  -5.123  0.00  0.00    +0.159 HD
ATOM      9  H   UNL     1       3.609   9.286  -3.756  0.00  0.00    +0.159 HD
ENDROOT
BRANCH   1  10
ATOM     10  C   UNL     1       6.714   7.709  -5.475  0.00  0.00    +0.151 C 
BRANCH  10  11
ATOM     11  C   UNL     1       8.140   7.258  -5.626  0.00  0.00    -0.028 A 
ATOM     12  C   UNL     1       8.492   6.326  -6.613  0.00  0.00    +0.005 A 
ATOM     13  C   UNL     1       9.146   7.763  -4.787  0.00  0.00    +0.005 A 
ATOM     14  C   UNL     1       9.822   5.929  -6.773  0.00  0.00    +0.000 A 
ATOM     15  C   UNL     1      10.473   7.364  -4.949  0.00  0.00    +0.000 A 
ATOM     16  C   UNL     1      10.810   6.449  -5.944  0.00  0.00    +0.000 A 
ENDBRANCH  10  11
ENDBRANCH   1  10
TORSDOF 2
ENDMDL
MODEL 9
REMARK VINA RESULT:    -5.481     20.200     21.057
REMARK INTER + INTRA:          -6.240
REMARK INTER:                  -6.089
REMARK INTRA:                  -0.151
REMARK UNBOUND:                -0.118
REMARK  Name = 1550473
REMARK  2 active torsions:
REMARK  status: ('A' for Active; 'I' for Inactive)
REMARK    1  A    between atoms: N_1  and  C_4
REMARK    2  A    between atoms: C_4  and  C_5
REMARK                            x       y       z     vdW  Elec       q    Type
REMARK                         _______ _______ _______ _____ _____    ______ ____
ROOT
ATOM      1  N   UNL     1       7.889   6.606  -4.714  0.00  0.00    -0.354 N 
ATOM      2  N   UNL     1       7.763   8.401  -6.173  0.00  0.00    -0.372 N 
ATOM      3  N   UNL     1       8.176   6.309  -7.021  0.00  0.00    -0.372 N 
ATOM      4  C   UNL     1       7.944   7.092  -5.961  0.00  0.00    +0.166 C 
ATOM      5  H   UNL     1       7.740   7.256  -3.951  0.00  0.00    +0.163 HD
ATOM      6  H   UNL     1       7.796   8.795  -7.103  0.00  0.00    +0.159 HD
ATOM      7  H   UNL     1       7.569   9.041  -5.412  0.00  0.00    +0.159 HD
ATOM      8  H   UNL     1       8.327   5.313  -6.928  0.00  0.00    +0.159 HD
ATOM      9  H   UNL     1       8.224   6.687  -7.959  0.00  0.00    +0.159 HD
ENDROOT
BRANCH   1  10
ATOM     10  C   UNL     1       8.019   5.189  -4.382  0.00  0.00    +0.151 C 
BRANCH  10  11
ATOM     11  C   UNL     1       6.651   4.615  -4.134  0.00  0.00    -0.028 A 
ATOM     12  C   UNL     1       6.397   3.255  -4.364  0.00  0.00    +0.005 A 
ATOM     13  C   UNL     1       5.607   5.425  -3.662  0.00  0.00    +0.005 A 
ATOM     14  C   UNL     1       5.135   2.715  -4.106  0.00  0.00    +0.000 A 
ATOM     15  C   UNL     1       4.347   4.882  -3.406  0.00  0.00    +0.000 A 
ATOM     16  C   UNL     1       4.113   3.527  -3.625  0.00  0.00    +0.000 A 
ENDBRANCH  10  11
ENDBRANCH   1  10
TORSDOF 2
ENDMDL
