MODEL 1
REMARK VINA RESULT:    -5.648      0.000      0.000
REMARK INTER + INTRA:          -6.442
REMARK INTER:                  -6.308
REMARK INTRA:                  -0.134
REMARK UNBOUND:                -0.134
REMARK  Name = 1550473
REMARK  2 active torsions:
REMARK  status: ('A' for Active; 'I' for Inactive)
REMARK    1  A    between atoms: N_1  and  C_4
REMARK    2  A    between atoms: C_4  and  C_5
REMARK                            x       y       z     vdW  Elec       q    Type
REMARK                         _______ _______ _______ _____ _____    ______ ____
ROOT
ATOM      1  N   UNL     1       0.834  -4.168  -3.822  0.00  0.00    -0.354 N 
ATOM      2  N   UNL     1       3.090  -3.799  -4.191  0.00  0.00    -0.372 N 
ATOM      3  N   UNL     1       2.460  -5.187  -2.477  0.00  0.00    -0.372 N 
ATOM      4  C   UNL     1       2.113  -4.389  -3.492  0.00  0.00    +0.166 C 
ATOM      5  H   UNL     1       0.636  -3.529  -4.583  0.00  0.00    +0.163 HD
ATOM      6  H   UNL     1       4.065  -3.949  -3.968  0.00  0.00    +0.159 HD
ATOM      7  H   UNL     1       2.891  -3.196  -4.980  0.00  0.00    +0.159 HD
ATOM      8  H   UNL     1       1.770  -5.657  -1.906  0.00  0.00    +0.159 HD
ATOM      9  H   UNL     1       3.430  -5.340  -2.230  0.00  0.00    +0.159 HD
ENDROOT
BRANCH   1  10
ATOM     10  C   UNL     1      -0.303  -4.804  -3.158  0.00  0.00    +0.151 C 
BRANCH  10  11
ATOM     11  C   UNL     1      -1.365  -5.100  -4.180  0.00  0.00    -0.028 A 
ATOM     12  C   UNL     1      -2.696  -5.303  -3.786  0.00  0.00    +0.005 A 
ATOM     13  C   UNL     1      -1.049  -5.173  -5.546  0.00  0.00    +0.005 A 
ATOM     14  C   UNL     1      -3.689  -5.549  -4.738  0.00  0.00    +0.000 A 
ATOM     15  C   UNL     1      -2.043  -5.420  -6.493  0.00  0.00    +0.000 A 
ATOM     16  C   UNL     1      -3.363  -5.605  -6.089  0.00  0.00    +0.000 A 
ENDBRANCH  10  11
ENDBRANCH   1  10
TORSDOF 2
ENDMDL
MODEL 2
REMARK VINA RESULT:    -5.321      1.500      2.392
REMARK INTER + INTRA:          -6.077
REMARK INTER:                  -5.952
REMARK INTRA:                  -0.125
REMARK UNBOUND:                -0.134
REMARK  Name = 1550473
REMARK  2 active torsions:
REMARK  status: ('A' for Active; 'I' for Inactive)
REMARK    1  A    between atoms: N_1  and  C_4
REMARK    2  A    between atoms: C_4  and  C_5
REMARK                            x       y       z     vdW  Elec       q    Type
REMARK                         _______ _______ _______ _____ _____    ______ ____
ROOT
ATOM      1  N   UNL     1       1.987  -5.223  -5.101  0.00  0.00    -0.354 N 
ATOM      2  N   UNL     1       3.844  -5.616  -6.427  0.00  0.00    -0.372 N 
ATOM      3  N   UNL     1       3.906  -3.890  -4.917  0.00  0.00    -0.372 N 
ATOM      4  C   UNL     1       3.234  -4.905  -5.472  0.00  0.00    +0.166 C 
ATOM      5  H   UNL     1       1.521  -5.984  -5.582  0.00  0.00    +0.163 HD
ATOM      6  H   UNL     1       4.787  -5.402  -6.726  0.00  0.00    +0.159 HD
ATOM      7  H   UNL     1       3.393  -6.406  -6.874  0.00  0.00    +0.159 HD
ATOM      8  H   UNL     1       3.500  -3.311  -4.195  0.00  0.00    +0.159 HD
ATOM      9  H   UNL     1       4.845  -3.653  -5.210  0.00  0.00    +0.159 HD
ENDROOT
BRANCH   1  10
ATOM     10  C   UNL     1       1.253  -4.545  -4.034  0.00  0.00    +0.151 C 
BRANCH  10  11
ATOM     11  C   UNL     1      -0.208  -4.876  -4.156  0.00  0.00    -0.028 A 
ATOM     12  C   UNL     1      -0.716  -5.436  -5.337  0.00  0.00    +0.005 A 
ATOM     13  C   UNL     1      -1.091  -4.637  -3.091  0.00  0.00    +0.005 A 
ATOM     14  C   UNL     1      -2.068  -5.771  -5.440  0.00  0.00    +0.000 A 
ATOM     15  C   UNL     1      -2.441  -4.972  -3.198  0.00  0.00    +0.000 A 
ATOM     16  C   UNL     1      -2.928  -5.541  -4.372  0.00  0.00    +0.000 A 
ENDBRANCH  10  11
ENDBRANCH   1  10
TORSDOF 2
ENDMDL
MODEL 3
REMARK VINA RESULT:    -5.083     10.676     12.589
REMARK INTER + INTRA:          -5.812
REMARK INTER:                  -5.670
REMARK INTRA:                  -0.141
REMARK UNBOUND:                -0.134
REMARK  Name = 1550473
REMARK  2 active torsions:
REMARK  status: ('A' for Active; 'I' for Inactive)
REMARK    1  A    between atoms: N_1  and  C_4
REMARK    2  A    between atoms: C_4  and  C_5
REMARK                            x       y       z     vdW  Elec       q    Type
REMARK                         _______ _______ _______ _____ _____    ______ ____
ROOT
ATOM      1  N   UNL     1       0.355   1.561   3.367  0.00  0.00    -0.354 N 
ATOM      2  N   UNL     1       0.648   0.294   1.451  0.00  0.00    -0.372 N 
ATOM      3  N   UNL     1       0.301   2.553   1.245  0.00  0.00    -0.372 N 
ATOM      4  C   UNL     1       0.432   1.480   2.032  0.00  0.00    +0.166 C 
ATOM      5  H   UNL     1       0.432   0.707   3.907  0.00  0.00    +0.163 HD
ATOM      6  H   UNL     1       0.714   0.203   0.446  0.00  0.00    +0.159 HD
ATOM      7  H   UNL     1       0.771  -0.551   1.995  0.00  0.00    +0.159 HD
ATOM      8  H   UNL     1       0.131   3.476   1.621  0.00  0.00    +0.159 HD
ATOM      9  H   UNL     1       0.353   2.480   0.236  0.00  0.00    +0.159 HD
ENDROOT
BRANCH   1  10
ATOM     10  C   UNL     1       0.176   2.813   4.102  0.00  0.00    +0.151 C 
BRANCH  10  11
ATOM     11  C   UNL     1       1.436   3.120   4.863  0.00  0.00    -0.028 A 
ATOM     12  C   UNL     1       2.632   3.388   4.182  0.00  0.00    +0.005 A 
ATOM     13  C   UNL     1       1.439   3.149   6.266  0.00  0.00    +0.005 A 
ATOM     14  C   UNL     1       3.796   3.702   4.889  0.00  0.00    +0.000 A 
ATOM     15  C   UNL     1       2.603   3.463   6.968  0.00  0.00    +0.000 A 
ATOM     16  C   UNL     1       3.780   3.742   6.279  0.00  0.00    +0.000 A 
ENDBRANCH  10  11
ENDBRANCH   1  10
TORSDOF 2
ENDMDL
MODEL 4
REMARK VINA RESULT:    -4.883     10.386     12.134
REMARK INTER + INTRA:          -5.588
REMARK INTER:                  -5.430
REMARK INTRA:                  -0.158
REMARK UNBOUND:                -0.134
REMARK  Name = 1550473
REMARK  2 active torsions:
REMARK  status: ('A' for Active; 'I' for Inactive)
REMARK    1  A    between atoms: N_1  and  C_4
REMARK    2  A    between atoms: C_4  and  C_5
REMARK                            x       y       z     vdW  Elec       q    Type
REMARK                         _______ _______ _______ _____ _____    ______ ____
ROOT
ATOM      1  N   UNL     1       0.428   2.003   2.387  0.00  0.00    -0.354 N 
ATOM      2  N   UNL     1       0.730  -0.045   1.349  0.00  0.00    -0.372 N 
ATOM      3  N   UNL     1      -0.121   0.004   3.479  0.00  0.00    -0.372 N 
ATOM      4  C   UNL     1       0.343   0.667   2.415  0.00  0.00    +0.166 C 
ATOM      5  H   UNL     1       0.817   2.444   1.562  0.00  0.00    +0.163 HD
ATOM      6  H   UNL     1       0.675  -1.054   1.339  0.00  0.00    +0.159 HD
ATOM      7  H   UNL     1       1.076   0.401   0.508  0.00  0.00    +0.159 HD
ATOM      8  H   UNL     1      -0.424   0.482   4.317  0.00  0.00    +0.159 HD
ATOM      9  H   UNL     1      -0.174  -1.007   3.493  0.00  0.00    +0.159 HD
ENDROOT
BRANCH   1  10
ATOM     10  C   UNL     1      -0.017   2.873   3.474  0.00  0.00    +0.151 C 
BRANCH  10  11
ATOM     11  C   UNL     1       1.140   3.138   4.397  0.00  0.00    -0.028 A 
ATOM     12  C   UNL     1       1.011   2.933   5.779  0.00  0.00    +0.005 A 
ATOM     13  C   UNL     1       2.371   3.590   3.896  0.00  0.00    +0.005 A 
ATOM     14  C   UNL     1       2.095   3.150   6.633  0.00  0.00    +0.000 A 
ATOM     15  C   UNL     1       3.450   3.807   4.752  0.00  0.00    +0.000 A 
ATOM     16  C   UNL     1       3.313   3.584   6.120  0.00  0.00    +0.000 A 
ENDBRANCH  10  11
ENDBRANCH   1  10
TORSDOF 2
ENDMDL
MODEL 5
REMARK VINA RESULT:    -4.854     11.454     13.274
REMARK INTER + INTRA:          -5.556
REMARK INTER:                  -5.389
REMARK INTRA:                  -0.167
REMARK UNBOUND:                -0.134
REMARK  Name = 1550473
REMARK  2 active torsions:
REMARK  status: ('A' for Active; 'I' for Inactive)
REMARK    1  A    between atoms: N_1  and  C_4
REMARK    2  A    between atoms: C_4  and  C_5
REMARK                            x       y       z     vdW  Elec       q    Type
REMARK                         _______ _______ _______ _____ _____    ______ ____
ROOT
ATOM      1  N   UNL     1       0.369   3.389   3.319  0.00  0.00    -0.354 N 
ATOM      2  N   UNL     1      -0.073   4.800   1.536  0.00  0.00    -0.372 N 
ATOM      3  N   UNL     1       1.629   3.273   1.346  0.00  0.00    -0.372 N 
ATOM      4  C   UNL     1       0.647   3.810   2.078  0.00  0.00    +0.166 C 
ATOM      5  H   UNL     1      -0.368   3.858   3.832  0.00  0.00    +0.163 HD
ATOM      6  H   UNL     1       0.111   5.137   0.600  0.00  0.00    +0.159 HD
ATOM      7  H   UNL     1      -0.839   5.236   2.034  0.00  0.00    +0.159 HD
ATOM      8  H   UNL     1       2.213   2.527   1.700  0.00  0.00    +0.159 HD
ATOM      9  H   UNL     1       1.837   3.604   0.412  0.00  0.00    +0.159 HD
ENDROOT
BRANCH   1  10
ATOM     10  C   UNL     1       1.058   2.282   3.980  0.00  0.00    +0.151 C 
BRANCH  10  11
ATOM     11  C   UNL     1       1.830   2.816   5.155  0.00  0.00    -0.028 A 
ATOM     12  C   UNL     1       3.135   3.302   4.988  0.00  0.00    +0.005 A 
ATOM     13  C   UNL     1       1.260   2.844   6.437  0.00  0.00    +0.005 A 
ATOM     14  C   UNL     1       3.842   3.826   6.073  0.00  0.00    +0.000 A 
ATOM     15  C   UNL     1       1.970   3.367   7.518  0.00  0.00    +0.000 A 
ATOM     16  C   UNL     1       3.259   3.860   7.335  0.00  0.00    +0.000 A 
ENDBRANCH  10  11
ENDBRANCH   1  10
TORSDOF 2
ENDMDL
MODEL 6
REMARK VINA RESULT:    -4.841     14.424     15.995
REMARK INTER + INTRA:          -5.541
REMARK INTER:                  -5.419
REMARK INTRA:                  -0.122
REMARK UNBOUND:                -0.134
REMARK  Name = 1550473
REMARK  2 active torsions:
REMARK  status: ('A' for Active; 'I' for Inactive)
REMARK    1  A    between atoms: N_1  and  C_4
REMARK    2  A    between atoms: C_4  and  C_5
REMARK                            x       y       z     vdW  Elec       q    Type
REMARK                         _______ _______ _______ _____ _____    ______ ____
ROOT
ATOM      1  N   UNL     1       1.864   3.441  10.059  0.00  0.00    -0.354 N 
ATOM      2  N   UNL     1       2.207   3.649  12.340  0.00  0.00    -0.372 N 
ATOM      3  N   UNL     1       0.057   3.623  11.540  0.00  0.00    -0.372 N 
ATOM      4  C   UNL     1       1.371   3.570  11.298  0.00  0.00    +0.166 C 
ATOM      5  H   UNL     1       2.871   3.437   9.940  0.00  0.00    +0.163 HD
ATOM      6  H   UNL     1       1.865   3.743  13.287  0.00  0.00    +0.159 HD
ATOM      7  H   UNL     1       3.212   3.598  12.222  0.00  0.00    +0.159 HD
ATOM      8  H   UNL     1      -0.627   3.575  10.797  0.00  0.00    +0.159 HD
ATOM      9  H   UNL     1      -0.305   3.729  12.480  0.00  0.00    +0.159 HD
ENDROOT
BRANCH   1  10
ATOM     10  C   UNL     1       1.038   3.292   8.862  0.00  0.00    +0.151 C 
BRANCH  10  11
ATOM     11  C   UNL     1       1.917   3.386   7.645  0.00  0.00    -0.028 A 
ATOM     12  C   UNL     1       1.458   2.932   6.400  0.00  0.00    +0.005 A 
ATOM     13  C   UNL     1       3.206   3.933   7.730  0.00  0.00    +0.005 A 
ATOM     14  C   UNL     1       2.262   3.047   5.263  0.00  0.00    +0.000 A 
ATOM     15  C   UNL     1       4.006   4.045   6.593  0.00  0.00    +0.000 A 
ATOM     16  C   UNL     1       3.533   3.604   5.359  0.00  0.00    +0.000 A 
ENDBRANCH  10  11
ENDBRANCH   1  10
TORSDOF 2
ENDMDL
MODEL 7
REMARK VINA RESULT:    -4.717     10.114     11.917
REMARK INTER + INTRA:          -5.403
REMARK INTER:                  -5.241
REMARK INTRA:                  -0.162
REMARK UNBOUND:                -0.134
REMARK  Name = 1550473
REMARK  2 active torsions:
REMARK  status: ('A' for Active; 'I' for Inactive)
REMARK    1  A    between atoms: N_1  and  C_4
REMARK    2  A    between atoms: C_4  and  C_5
REMARK                            x       y       z     vdW  Elec       q    Type
REMARK                         _______ _______ _______ _____ _____    ______ ____
ROOT
ATOM      1  N   UNL     1       0.067   2.471   2.700  0.00  0.00    -0.354 N 
ATOM      2  N   UNL     1       0.107   0.304   3.517  0.00  0.00    -0.372 N 
ATOM      3  N   UNL     1       0.493   0.654   1.282  0.00  0.00    -0.372 N 
ATOM      4  C   UNL     1       0.222   1.157   2.491  0.00  0.00    +0.166 C 
ATOM      5  H   UNL     1      -0.167   2.786   3.634  0.00  0.00    +0.163 HD
ATOM      6  H   UNL     1       0.222  -0.693   3.391  0.00  0.00    +0.159 HD
ATOM      7  H   UNL     1      -0.082   0.625   4.458  0.00  0.00    +0.159 HD
ATOM      8  H   UNL     1       0.587   1.244   0.466  0.00  0.00    +0.159 HD
ATOM      9  H   UNL     1       0.600  -0.342   1.134  0.00  0.00    +0.159 HD
ENDROOT
BRANCH   1  10
ATOM     10  C   UNL     1       0.225   3.488   1.662  0.00  0.00    +0.151 C 
BRANCH  10  11
ATOM     11  C   UNL     1       1.421   4.339   1.987  0.00  0.00    -0.028 A 
ATOM     12  C   UNL     1       2.720   3.841   1.806  0.00  0.00    +0.005 A 
ATOM     13  C   UNL     1       1.263   5.647   2.470  0.00  0.00    +0.005 A 
ATOM     14  C   UNL     1       3.831   4.642   2.079  0.00  0.00    +0.000 A 
ATOM     15  C   UNL     1       2.375   6.443   2.743  0.00  0.00    +0.000 A 
ATOM     16  C   UNL     1       3.659   5.942   2.545  0.00  0.00    +0.000 A 
ENDBRANCH  10  11
ENDBRANCH   1  10
TORSDOF 2
ENDMDL
MODEL 8
REMARK VINA RESULT:    -4.599     15.525     16.647
REMARK INTER + INTRA:          -5.271
REMARK INTER:                  -5.104
REMARK INTRA:                  -0.166
REMARK UNBOUND:                -0.134
REMARK  Name = 1550473
REMARK  2 active torsions:
REMARK  status: ('A' for Active; 'I' for Inactive)
REMARK    1  A    between atoms: N_1  and  C_4
REMARK    2  A    between atoms: C_4  and  C_5
REMARK                            x       y       z     vdW  Elec       q    Type
REMARK                         _______ _______ _______ _____ _____    ______ ____
ROOT
ATOM      1  N   UNL     1      -5.387  -1.356 -19.808  0.00  0.00    -0.354 N 
ATOM      2  N   UNL     1      -7.466  -1.962 -18.986  0.00  0.00    -0.372 N 
ATOM      3  N   UNL     1      -7.163   0.173 -19.770  0.00  0.00    -0.372 N 
ATOM      4  C   UNL     1      -6.659  -1.042 -19.527  0.00  0.00    +0.166 C 
ATOM      5  H   UNL     1      -5.057  -2.285 -19.571  0.00  0.00    +0.163 HD
ATOM      6  H   UNL     1      -8.431  -1.756 -18.767  0.00  0.00    +0.159 HD
ATOM      7  H   UNL     1      -7.146  -2.904 -18.794  0.00  0.00    +0.159 HD
ATOM      8  H   UNL     1      -6.605   0.914 -20.172  0.00  0.00    +0.159 HD
ATOM      9  H   UNL     1      -8.123   0.402 -19.547  0.00  0.00    +0.159 HD
ENDROOT
BRANCH   1  10
ATOM     10  C   UNL     1      -4.441  -0.443 -20.447  0.00  0.00    +0.151 C 
BRANCH  10  11
ATOM     11  C   UNL     1      -3.345  -0.109 -19.473  0.00  0.00    -0.028 A 
ATOM     12  C   UNL     1      -2.146  -0.836 -19.475  0.00  0.00    +0.005 A 
ATOM     13  C   UNL     1      -3.498   0.937 -18.550  0.00  0.00    +0.005 A 
ATOM     14  C   UNL     1      -1.116  -0.507 -18.590  0.00  0.00    +0.000 A 
ATOM     15  C   UNL     1      -2.467   1.261 -17.667  0.00  0.00    +0.000 A 
ATOM     16  C   UNL     1      -1.276   0.541 -17.690  0.00  0.00    +0.000 A 
ENDBRANCH  10  11
ENDBRANCH   1  10
TORSDOF 2
ENDMDL
MODEL 9
REMARK VINA RESULT:    -4.514     19.483     21.407
REMARK INTER + INTRA:          -5.176
REMARK INTER:                  -5.065
REMARK INTRA:                  -0.111
REMARK UNBOUND:                -0.134
REMARK  Name = 1550473
REMARK  2 active torsions:
REMARK  status: ('A' for Active; 'I' for Inactive)
REMARK    1  A    between atoms: N_1  and  C_4
REMARK    2  A    between atoms: C_4  and  C_5
REMARK                            x       y       z     vdW  Elec       q    Type
REMARK                         _______ _______ _______ _____ _____    ______ ____
ROOT
ATOM      1  N   UNL     1       8.980   4.793  13.596  0.00  0.00    -0.354 N 
ATOM      2  N   UNL     1       8.373   5.203  15.793  0.00  0.00    -0.372 N 
ATOM      3  N   UNL     1      10.432   5.904  15.062  0.00  0.00    -0.372 N 
ATOM      4  C   UNL     1       9.268   5.298  14.803  0.00  0.00    +0.166 C 
ATOM      5  H   UNL     1       8.092   4.319  13.472  0.00  0.00    +0.163 HD
ATOM      6  H   UNL     1       8.561   5.577  16.714  0.00  0.00    +0.159 HD
ATOM      7  H   UNL     1       7.468   4.769  15.654  0.00  0.00    +0.159 HD
ATOM      8  H   UNL     1      11.152   6.003  14.360  0.00  0.00    +0.159 HD
ATOM      9  H   UNL     1      10.643   6.275  15.980  0.00  0.00    +0.159 HD
ENDROOT
BRANCH   1  10
ATOM     10  C   UNL     1       9.863   4.892  12.436  0.00  0.00    +0.151 C 
BRANCH  10  11
ATOM     11  C   UNL     1       9.472   3.846  11.429  0.00  0.00    -0.028 A 
ATOM     12  C   UNL     1       9.442   2.490  11.787  0.00  0.00    +0.005 A 
ATOM     13  C   UNL     1       9.124   4.204  10.118  0.00  0.00    +0.005 A 
ATOM     14  C   UNL     1       9.049   1.520  10.861  0.00  0.00    +0.000 A 
ATOM     15  C   UNL     1       8.733   3.233   9.196  0.00  0.00    +0.000 A 
ATOM     16  C   UNL     1       8.694   1.892   9.569  0.00  0.00    +0.000 A 
ENDBRANCH  10  11
ENDBRANCH   1  10
TORSDOF 2
ENDMDL
