MODEL 1
REMARK VINA RESULT:    -5.214      0.000      0.000
REMARK INTER + INTRA:          -5.992
REMARK INTER:                  -5.824
REMARK INTRA:                  -0.168
REMARK UNBOUND:                -0.168
REMARK  Name = 1550473
REMARK  2 active torsions:
REMARK  status: ('A' for Active; 'I' for Inactive)
REMARK    1  A    between atoms: N_1  and  C_4
REMARK    2  A    between atoms: C_4  and  C_5
REMARK                            x       y       z     vdW  Elec       q    Type
REMARK                         _______ _______ _______ _____ _____    ______ ____
ROOT
ATOM      1  N   UNL     1       6.419   7.895  -2.301  0.00  0.00    -0.354 N 
ATOM      2  N   UNL     1       8.708   7.618  -2.077  0.00  0.00    -0.372 N 
ATOM      3  N   UNL     1       7.673   6.816  -3.961  0.00  0.00    -0.372 N 
ATOM      4  C   UNL     1       7.585   7.443  -2.784  0.00  0.00    +0.166 C 
ATOM      5  H   UNL     1       6.415   8.336  -1.388  0.00  0.00    +0.163 HD
ATOM      6  H   UNL     1       9.602   7.291  -2.417  0.00  0.00    +0.159 HD
ATOM      7  H   UNL     1       8.707   8.099  -1.186  0.00  0.00    +0.159 HD
ATOM      8  H   UNL     1       6.861   6.647  -4.540  0.00  0.00    +0.159 HD
ATOM      9  H   UNL     1       8.557   6.471  -4.313  0.00  0.00    +0.159 HD
ENDROOT
BRANCH   1  10
ATOM     10  C   UNL     1       5.148   7.803  -3.016  0.00  0.00    +0.151 C 
BRANCH  10  11
ATOM     11  C   UNL     1       4.778   9.164  -3.538  0.00  0.00    -0.028 A 
ATOM     12  C   UNL     1       4.643  10.250  -2.660  0.00  0.00    +0.005 A 
ATOM     13  C   UNL     1       4.567   9.376  -4.909  0.00  0.00    +0.005 A 
ATOM     14  C   UNL     1       4.329  11.522  -3.147  0.00  0.00    +0.000 A 
ATOM     15  C   UNL     1       4.252  10.647  -5.391  0.00  0.00    +0.000 A 
ATOM     16  C   UNL     1       4.136  11.719  -4.511  0.00  0.00    +0.000 A 
ENDBRANCH  10  11
ENDBRANCH   1  10
TORSDOF 2
ENDMDL
MODEL 2
REMARK VINA RESULT:    -4.700      1.872      2.573
REMARK INTER + INTRA:          -5.417
REMARK INTER:                  -5.254
REMARK INTRA:                  -0.163
REMARK UNBOUND:                -0.168
REMARK  Name = 1550473
REMARK  2 active torsions:
REMARK  status: ('A' for Active; 'I' for Inactive)
REMARK    1  A    between atoms: N_1  and  C_4
REMARK    2  A    between atoms: C_4  and  C_5
REMARK                            x       y       z     vdW  Elec       q    Type
REMARK                         _______ _______ _______ _____ _____    ______ ____
ROOT
ATOM      1  N   UNL     1       5.228  10.448  -2.008  0.00  0.00    -0.354 N 
ATOM      2  N   UNL     1       6.957  11.162  -0.642  0.00  0.00    -0.372 N 
ATOM      3  N   UNL     1       7.250   9.268  -1.905  0.00  0.00    -0.372 N 
ATOM      4  C   UNL     1       6.468  10.286  -1.528  0.00  0.00    +0.166 C 
ATOM      5  H   UNL     1       4.675  11.223  -1.659  0.00  0.00    +0.163 HD
ATOM      6  H   UNL     1       7.891  11.067  -0.266  0.00  0.00    +0.159 HD
ATOM      7  H   UNL     1       6.419  11.961  -0.331  0.00  0.00    +0.159 HD
ATOM      8  H   UNL     1       6.937   8.570  -2.566  0.00  0.00    +0.159 HD
ATOM      9  H   UNL     1       8.183   9.150  -1.531  0.00  0.00    +0.159 HD
ENDROOT
BRANCH   1  10
ATOM     10  C   UNL     1       4.620   9.581  -3.016  0.00  0.00    +0.151 C 
BRANCH  10  11
ATOM     11  C   UNL     1       4.606  10.300  -4.337  0.00  0.00    -0.028 A 
ATOM     12  C   UNL     1       4.290  11.665  -4.402  0.00  0.00    +0.005 A 
ATOM     13  C   UNL     1       4.913   9.622  -5.527  0.00  0.00    +0.005 A 
ATOM     14  C   UNL     1       4.305  12.339  -5.625  0.00  0.00    +0.000 A 
ATOM     15  C   UNL     1       4.927  10.299  -6.746  0.00  0.00    +0.000 A 
ATOM     16  C   UNL     1       4.626  11.658  -6.795  0.00  0.00    +0.000 A 
ENDBRANCH  10  11
ENDBRANCH   1  10
TORSDOF 2
ENDMDL
MODEL 3
REMARK VINA RESULT:    -4.668     19.179     20.478
REMARK INTER + INTRA:          -5.382
REMARK INTER:                  -5.243
REMARK INTRA:                  -0.139
REMARK UNBOUND:                -0.168
REMARK  Name = 1550473
REMARK  2 active torsions:
REMARK  status: ('A' for Active; 'I' for Inactive)
REMARK    1  A    between atoms: N_1  and  C_4
REMARK    2  A    between atoms: C_4  and  C_5
REMARK                            x       y       z     vdW  Elec       q    Type
REMARK                         _______ _______ _______ _____ _____    ______ ____
ROOT
ATOM      1  N   UNL     1      -9.932  -0.524   5.130  0.00  0.00    -0.354 N 
ATOM      2  N   UNL     1     -10.268   1.686   5.735  0.00  0.00    -0.372 N 
ATOM      3  N   UNL     1     -12.092   0.375   5.266  0.00  0.00    -0.372 N 
ATOM      4  C   UNL     1     -10.765   0.497   5.372  0.00  0.00    +0.166 C 
ATOM      5  H   UNL     1      -8.935  -0.359   5.199  0.00  0.00    +0.163 HD
ATOM      6  H   UNL     1     -10.872   2.474   5.928  0.00  0.00    +0.159 HD
ATOM      7  H   UNL     1      -9.273   1.836   5.848  0.00  0.00    +0.159 HD
ATOM      8  H   UNL     1     -12.530  -0.494   4.990  0.00  0.00    +0.159 HD
ATOM      9  H   UNL     1     -12.712   1.155   5.443  0.00  0.00    +0.159 HD
ENDROOT
BRANCH   1  10
ATOM     10  C   UNL     1     -10.373  -1.873   4.781  0.00  0.00    +0.151 C 
BRANCH  10  11
ATOM     11  C   UNL     1      -9.558  -2.372   3.620  0.00  0.00    -0.028 A 
ATOM     12  C   UNL     1      -9.938  -3.532   2.929  0.00  0.00    +0.005 A 
ATOM     13  C   UNL     1      -8.407  -1.686   3.202  0.00  0.00    +0.005 A 
ATOM     14  C   UNL     1      -9.197  -3.979   1.832  0.00  0.00    +0.000 A 
ATOM     15  C   UNL     1      -7.670  -2.136   2.107  0.00  0.00    +0.000 A 
ATOM     16  C   UNL     1      -8.067  -3.281   1.420  0.00  0.00    +0.000 A 
ENDBRANCH  10  11
ENDBRANCH   1  10
TORSDOF 2
ENDMDL
MODEL 4
REMARK VINA RESULT:    -4.553     20.147     21.644
REMARK INTER + INTRA:          -5.253
REMARK INTER:                  -5.138
REMARK INTRA:                  -0.115
REMARK UNBOUND:                -0.168
REMARK  Name = 1550473
REMARK  2 active torsions:
REMARK  status: ('A' for Active; 'I' for Inactive)
REMARK    1  A    between atoms: N_1  and  C_4
REMARK    2  A    between atoms: C_4  and  C_5
REMARK                            x       y       z     vdW  Elec       q    Type
REMARK                         _______ _______ _______ _____ _____    ______ ____
ROOT
ATOM      1  N   UNL     1      -9.153  -3.302   4.125  0.00  0.00    -0.354 N 
ATOM      2  N   UNL     1      -9.802  -1.079   4.123  0.00  0.00    -0.372 N 
ATOM      3  N   UNL     1      -7.970  -1.700   2.889  0.00  0.00    -0.372 N 
ATOM      4  C   UNL     1      -8.968  -2.041   3.711  0.00  0.00    +0.166 C 
ATOM      5  H   UNL     1      -9.910  -3.490   4.772  0.00  0.00    +0.163 HD
ATOM      6  H   UNL     1      -9.690  -0.119   3.824  0.00  0.00    +0.159 HD
ATOM      7  H   UNL     1     -10.585  -1.278   4.733  0.00  0.00    +0.159 HD
ATOM      8  H   UNL     1      -7.302  -2.379   2.547  0.00  0.00    +0.159 HD
ATOM      9  H   UNL     1      -7.834  -0.743   2.589  0.00  0.00    +0.159 HD
ENDROOT
BRANCH   1  10
ATOM     10  C   UNL     1      -8.334  -4.433   3.693  0.00  0.00    +0.151 C 
BRANCH  10  11
ATOM     11  C   UNL     1      -7.957  -5.255   4.894  0.00  0.00    -0.028 A 
ATOM     12  C   UNL     1      -8.945  -5.899   5.654  0.00  0.00    +0.005 A 
ATOM     13  C   UNL     1      -6.614  -5.399   5.275  0.00  0.00    +0.005 A 
ATOM     14  C   UNL     1      -8.594  -6.687   6.753  0.00  0.00    +0.000 A 
ATOM     15  C   UNL     1      -6.268  -6.186   6.373  0.00  0.00    +0.000 A 
ATOM     16  C   UNL     1      -7.257  -6.832   7.110  0.00  0.00    +0.000 A 
ENDBRANCH  10  11
ENDBRANCH   1  10
TORSDOF 2
ENDMDL
MODEL 5
REMARK VINA RESULT:    -4.497     23.889     24.769
REMARK INTER + INTRA:          -5.190
REMARK INTER:                  -5.070
REMARK INTRA:                  -0.120
REMARK UNBOUND:                -0.168
REMARK  Name = 1550473
REMARK  2 active torsions:
REMARK  status: ('A' for Active; 'I' for Inactive)
REMARK    1  A    between atoms: N_1  and  C_4
REMARK    2  A    between atoms: C_4  and  C_5
REMARK                            x       y       z     vdW  Elec       q    Type
REMARK                         _______ _______ _______ _____ _____    ______ ____
ROOT
ATOM      1  N   UNL     1      -2.496 -12.338 -12.321  0.00  0.00    -0.354 N 
ATOM      2  N   UNL     1      -4.461 -12.918 -13.401  0.00  0.00    -0.372 N 
ATOM      3  N   UNL     1      -2.476 -13.093 -14.539  0.00  0.00    -0.372 N 
ATOM      4  C   UNL     1      -3.130 -12.779 -13.416  0.00  0.00    +0.166 C 
ATOM      5  H   UNL     1      -3.052 -12.088 -11.511  0.00  0.00    +0.163 HD
ATOM      6  H   UNL     1      -4.966 -13.252 -14.210  0.00  0.00    +0.159 HD
ATOM      7  H   UNL     1      -5.009 -12.712 -12.575  0.00  0.00    +0.159 HD
ATOM      8  H   UNL     1      -1.472 -13.005 -14.617  0.00  0.00    +0.159 HD
ATOM      9  H   UNL     1      -2.966 -13.418 -15.364  0.00  0.00    +0.159 HD
ENDROOT
BRANCH   1  10
ATOM     10  C   UNL     1      -1.044 -12.202 -12.216  0.00  0.00    +0.151 C 
BRANCH  10  11
ATOM     11  C   UNL     1      -0.607 -12.652 -10.849  0.00  0.00    -0.028 A 
ATOM     12  C   UNL     1       0.577 -13.385 -10.685  0.00  0.00    +0.005 A 
ATOM     13  C   UNL     1      -1.370 -12.342  -9.712  0.00  0.00    +0.005 A 
ATOM     14  C   UNL     1       0.999 -13.777  -9.412  0.00  0.00    +0.000 A 
ATOM     15  C   UNL     1      -0.945 -12.736  -8.443  0.00  0.00    +0.000 A 
ATOM     16  C   UNL     1       0.240 -13.451  -8.293  0.00  0.00    +0.000 A 
ENDBRANCH  10  11
ENDBRANCH   1  10
TORSDOF 2
ENDMDL
MODEL 6
REMARK VINA RESULT:    -4.436     14.161     15.135
REMARK INTER + INTRA:          -5.122
REMARK INTER:                  -4.986
REMARK INTRA:                  -0.136
REMARK UNBOUND:                -0.168
REMARK  Name = 1550473
REMARK  2 active torsions:
REMARK  status: ('A' for Active; 'I' for Inactive)
REMARK    1  A    between atoms: N_1  and  C_4
REMARK    2  A    between atoms: C_4  and  C_5
REMARK                            x       y       z     vdW  Elec       q    Type
REMARK                         _______ _______ _______ _____ _____    ______ ____
ROOT
ATOM      1  N   UNL     1      -0.055  22.694  -6.228  0.00  0.00    -0.354 N 
ATOM      2  N   UNL     1       1.942  22.637  -5.057  0.00  0.00    -0.372 N 
ATOM      3  N   UNL     1       0.043  23.337  -3.977  0.00  0.00    -0.372 N 
ATOM      4  C   UNL     1       0.629  22.891  -5.093  0.00  0.00    +0.166 C 
ATOM      5  H   UNL     1       0.453  22.384  -7.049  0.00  0.00    +0.163 HD
ATOM      6  H   UNL     1       2.484  22.773  -4.214  0.00  0.00    +0.159 HD
ATOM      7  H   UNL     1       2.439  22.283  -5.866  0.00  0.00    +0.159 HD
ATOM      8  H   UNL     1      -0.944  23.553  -3.940  0.00  0.00    +0.159 HD
ATOM      9  H   UNL     1       0.570  23.490  -3.127  0.00  0.00    +0.159 HD
ENDROOT
BRANCH   1  10
ATOM     10  C   UNL     1      -1.498  22.889  -6.358  0.00  0.00    +0.151 C 
BRANCH  10  11
ATOM     11  C   UNL     1      -2.069  21.783  -7.201  0.00  0.00    -0.028 A 
ATOM     12  C   UNL     1      -3.454  21.681  -7.398  0.00  0.00    +0.005 A 
ATOM     13  C   UNL     1      -1.231  20.836  -7.809  0.00  0.00    +0.005 A 
ATOM     14  C   UNL     1      -3.983  20.670  -8.205  0.00  0.00    +0.000 A 
ATOM     15  C   UNL     1      -1.763  19.828  -8.613  0.00  0.00    +0.000 A 
ATOM     16  C   UNL     1      -3.139  19.747  -8.813  0.00  0.00    +0.000 A 
ENDBRANCH  10  11
ENDBRANCH   1  10
TORSDOF 2
ENDMDL
MODEL 7
REMARK VINA RESULT:    -4.358     17.729     18.878
REMARK INTER + INTRA:          -5.036
REMARK INTER:                  -4.914
REMARK INTRA:                  -0.122
REMARK UNBOUND:                -0.168
REMARK  Name = 1550473
REMARK  2 active torsions:
REMARK  status: ('A' for Active; 'I' for Inactive)
REMARK    1  A    between atoms: N_1  and  C_4
REMARK    2  A    between atoms: C_4  and  C_5
REMARK                            x       y       z     vdW  Elec       q    Type
REMARK                         _______ _______ _______ _____ _____    ______ ____
ROOT
ATOM      1  N   UNL     1      -5.212   8.166  13.146  0.00  0.00    -0.354 N 
ATOM      2  N   UNL     1      -6.694   8.241  14.924  0.00  0.00    -0.372 N 
ATOM      3  N   UNL     1      -7.186   6.904  13.126  0.00  0.00    -0.372 N 
ATOM      4  C   UNL     1      -6.356   7.768  13.719  0.00  0.00    +0.166 C 
ATOM      5  H   UNL     1      -4.641   8.847  13.634  0.00  0.00    +0.163 HD
ATOM      6  H   UNL     1      -7.549   7.957  15.383  0.00  0.00    +0.159 HD
ATOM      7  H   UNL     1      -6.098   8.886  15.430  0.00  0.00    +0.159 HD
ATOM      8  H   UNL     1      -6.992   6.515  12.213  0.00  0.00    +0.159 HD
ATOM      9  H   UNL     1      -8.052   6.616  13.564  0.00  0.00    +0.159 HD
ENDROOT
BRANCH   1  10
ATOM     10  C   UNL     1      -4.726   7.670  11.860  0.00  0.00    +0.151 C 
BRANCH  10  11
ATOM     11  C   UNL     1      -3.311   8.137  11.656  0.00  0.00    -0.028 A 
ATOM     12  C   UNL     1      -2.527   8.533  12.750  0.00  0.00    +0.005 A 
ATOM     13  C   UNL     1      -2.746   8.180  10.373  0.00  0.00    +0.005 A 
ATOM     14  C   UNL     1      -1.203   8.938  12.565  0.00  0.00    +0.000 A 
ATOM     15  C   UNL     1      -1.423   8.586  10.192  0.00  0.00    +0.000 A 
ATOM     16  C   UNL     1      -0.652   8.962  11.289  0.00  0.00    +0.000 A 
ENDBRANCH  10  11
ENDBRANCH   1  10
TORSDOF 2
ENDMDL
MODEL 8
REMARK VINA RESULT:    -4.231     19.736     20.230
REMARK INTER + INTRA:          -4.894
REMARK INTER:                  -4.798
REMARK INTRA:                  -0.096
REMARK UNBOUND:                -0.168
REMARK  Name = 1550473
REMARK  2 active torsions:
REMARK  status: ('A' for Active; 'I' for Inactive)
REMARK    1  A    between atoms: N_1  and  C_4
REMARK    2  A    between atoms: C_4  and  C_5
REMARK                            x       y       z     vdW  Elec       q    Type
REMARK                         _______ _______ _______ _____ _____    ______ ____
ROOT
ATOM      1  N   UNL     1     -10.342  -0.073   5.378  0.00  0.00    -0.354 N 
ATOM      2  N   UNL     1      -9.945  -1.736   6.940  0.00  0.00    -0.372 N 
ATOM      3  N   UNL     1      -9.543  -2.177   4.725  0.00  0.00    -0.372 N 
ATOM      4  C   UNL     1      -9.945  -1.319   5.669  0.00  0.00    +0.166 C 
ATOM      5  H   UNL     1     -10.664   0.518   6.136  0.00  0.00    +0.163 HD
ATOM      6  H   UNL     1      -9.648  -2.670   7.190  0.00  0.00    +0.159 HD
ATOM      7  H   UNL     1     -10.224  -1.128   7.701  0.00  0.00    +0.159 HD
ATOM      8  H   UNL     1      -9.525  -1.926   3.745  0.00  0.00    +0.159 HD
ATOM      9  H   UNL     1      -9.253  -3.120   4.954  0.00  0.00    +0.159 HD
ENDROOT
BRANCH   1  10
ATOM     10  C   UNL     1     -10.329   0.496   4.032  0.00  0.00    +0.151 C 
BRANCH  10  11
ATOM     11  C   UNL     1     -11.143   1.760   4.025  0.00  0.00    -0.028 A 
ATOM     12  C   UNL     1     -10.732   2.876   4.769  0.00  0.00    +0.005 A 
ATOM     13  C   UNL     1     -12.324   1.850   3.272  0.00  0.00    +0.005 A 
ATOM     14  C   UNL     1     -11.473   4.060   4.739  0.00  0.00    +0.000 A 
ATOM     15  C   UNL     1     -13.061   3.034   3.246  0.00  0.00    +0.000 A 
ATOM     16  C   UNL     1     -12.634   4.140   3.977  0.00  0.00    +0.000 A 
ENDBRANCH  10  11
ENDBRANCH   1  10
TORSDOF 2
ENDMDL
MODEL 9
REMARK VINA RESULT:    -4.157     21.392     22.606
REMARK INTER + INTRA:          -4.811
REMARK INTER:                  -4.691
REMARK INTRA:                  -0.119
REMARK UNBOUND:                -0.168
REMARK  Name = 1550473
REMARK  2 active torsions:
REMARK  status: ('A' for Active; 'I' for Inactive)
REMARK    1  A    between atoms: N_1  and  C_4
REMARK    2  A    between atoms: C_4  and  C_5
REMARK                            x       y       z     vdW  Elec       q    Type
REMARK                         _______ _______ _______ _____ _____    ______ ____
ROOT
ATOM      1  N   UNL     1     -12.011  -5.912   2.051  0.00  0.00    -0.354 N 
ATOM      2  N   UNL     1     -13.696  -7.137   3.062  0.00  0.00    -0.372 N 
ATOM      3  N   UNL     1     -14.227  -5.762   1.304  0.00  0.00    -0.372 N 
ATOM      4  C   UNL     1     -13.302  -6.261   2.131  0.00  0.00    +0.166 C 
ATOM      5  H   UNL     1     -11.364  -6.303   2.727  0.00  0.00    +0.163 HD
ATOM      6  H   UNL     1     -14.663  -7.422   3.144  0.00  0.00    +0.159 HD
ATOM      7  H   UNL     1     -13.040  -7.561   3.707  0.00  0.00    +0.159 HD
ATOM      8  H   UNL     1     -13.995  -5.092   0.583  0.00  0.00    +0.159 HD
ATOM      9  H   UNL     1     -15.201  -6.026   1.378  0.00  0.00    +0.159 HD
ENDROOT
BRANCH   1  10
ATOM     10  C   UNL     1     -11.469  -5.008   1.039  0.00  0.00    +0.151 C 
BRANCH  10  11
ATOM     11  C   UNL     1     -10.253  -4.319   1.595  0.00  0.00    -0.028 A 
ATOM     12  C   UNL     1      -9.064  -4.266   0.855  0.00  0.00    +0.005 A 
ATOM     13  C   UNL     1     -10.287  -3.712   2.860  0.00  0.00    +0.005 A 
ATOM     14  C   UNL     1      -7.943  -3.600   1.359  0.00  0.00    +0.000 A 
ATOM     15  C   UNL     1      -9.166  -3.050   3.360  0.00  0.00    +0.000 A 
ATOM     16  C   UNL     1      -7.996  -2.991   2.608  0.00  0.00    +0.000 A 
ENDBRANCH  10  11
ENDBRANCH   1  10
TORSDOF 2
ENDMDL
