MODEL 1
REMARK VINA RESULT:    -4.619      0.000      0.000
REMARK INTER + INTRA:          -5.298
REMARK INTER:                  -5.159
REMARK INTRA:                  -0.140
REMARK UNBOUND:                -0.140
REMARK  Name = 1550473
REMARK  2 active torsions:
REMARK  status: ('A' for Active; 'I' for Inactive)
REMARK    1  A    between atoms: N_1  and  C_4
REMARK    2  A    between atoms: C_4  and  C_5
REMARK                            x       y       z     vdW  Elec       q    Type
REMARK                         _______ _______ _______ _____ _____    ______ ____
ROOT
ATOM      1  N   UNL     1       2.922  11.685  12.105  0.00  0.00    -0.354 N 
ATOM      2  N   UNL     1       1.334  11.767  13.789  0.00  0.00    -0.372 N 
ATOM      3  N   UNL     1       1.362  13.431  12.209  0.00  0.00    -0.372 N 
ATOM      4  C   UNL     1       1.883  12.296  12.688  0.00  0.00    +0.166 C 
ATOM      5  H   UNL     1       3.289  10.844  12.535  0.00  0.00    +0.163 HD
ATOM      6  H   UNL     1       0.547  12.204  14.249  0.00  0.00    +0.159 HD
ATOM      7  H   UNL     1       1.674  10.902  14.190  0.00  0.00    +0.159 HD
ATOM      8  H   UNL     1       1.734  13.884  11.385  0.00  0.00    +0.159 HD
ATOM      9  H   UNL     1       0.582  13.889  12.662  0.00  0.00    +0.159 HD
ENDROOT
BRANCH   1  10
ATOM     10  C   UNL     1       3.557  12.150  10.873  0.00  0.00    +0.151 C 
BRANCH  10  11
ATOM     11  C   UNL     1       5.047  12.196  11.076  0.00  0.00    -0.028 A 
ATOM     12  C   UNL     1       5.585  12.390  12.356  0.00  0.00    +0.005 A 
ATOM     13  C   UNL     1       5.925  12.041   9.992  0.00  0.00    +0.005 A 
ATOM     14  C   UNL     1       6.969  12.403  12.550  0.00  0.00    +0.000 A 
ATOM     15  C   UNL     1       7.306  12.056  10.189  0.00  0.00    +0.000 A 
ATOM     16  C   UNL     1       7.827  12.234  11.468  0.00  0.00    +0.000 A 
ENDBRANCH  10  11
ENDBRANCH   1  10
TORSDOF 2
ENDMDL
MODEL 2
REMARK VINA RESULT:    -4.608      0.980      1.368
REMARK INTER + INTRA:          -5.286
REMARK INTER:                  -5.146
REMARK INTRA:                  -0.140
REMARK UNBOUND:                -0.140
REMARK  Name = 1550473
REMARK  2 active torsions:
REMARK  status: ('A' for Active; 'I' for Inactive)
REMARK    1  A    between atoms: N_1  and  C_4
REMARK    2  A    between atoms: C_4  and  C_5
REMARK                            x       y       z     vdW  Elec       q    Type
REMARK                         _______ _______ _______ _____ _____    ______ ____
ROOT
ATOM      1  N   UNL     1       2.539  11.981  11.931  0.00  0.00    -0.354 N 
ATOM      2  N   UNL     1       0.478  12.261  10.912  0.00  0.00    -0.372 N 
ATOM      3  N   UNL     1       1.189  13.831  12.428  0.00  0.00    -0.372 N 
ATOM      4  C   UNL     1       1.415  12.691  11.765  0.00  0.00    +0.166 C 
ATOM      5  H   UNL     1       2.637  11.110  11.422  0.00  0.00    +0.163 HD
ATOM      6  H   UNL     1      -0.378  12.778  10.763  0.00  0.00    +0.159 HD
ATOM      7  H   UNL     1       0.599  11.414  10.370  0.00  0.00    +0.159 HD
ATOM      8  H   UNL     1       1.854  14.206  13.090  0.00  0.00    +0.159 HD
ATOM      9  H   UNL     1       0.333  14.356  12.301  0.00  0.00    +0.159 HD
ENDROOT
BRANCH   1  10
ATOM     10  C   UNL     1       3.645  12.389  12.796  0.00  0.00    +0.151 C 
BRANCH  10  11
ATOM     11  C   UNL     1       4.929  12.317  12.017  0.00  0.00    -0.028 A 
ATOM     12  C   UNL     1       6.165  12.428  12.671  0.00  0.00    +0.005 A 
ATOM     13  C   UNL     1       4.918  12.132  10.626  0.00  0.00    +0.005 A 
ATOM     14  C   UNL     1       7.359  12.331  11.953  0.00  0.00    +0.000 A 
ATOM     15  C   UNL     1       6.112  12.037   9.913  0.00  0.00    +0.000 A 
ATOM     16  C   UNL     1       7.333  12.134  10.576  0.00  0.00    +0.000 A 
ENDBRANCH  10  11
ENDBRANCH   1  10
TORSDOF 2
ENDMDL
MODEL 3
REMARK VINA RESULT:    -4.344     28.012     28.871
REMARK INTER + INTRA:          -4.992
REMARK INTER:                  -4.910
REMARK INTRA:                  -0.082
REMARK UNBOUND:                -0.140
REMARK  Name = 1550473
REMARK  2 active torsions:
REMARK  status: ('A' for Active; 'I' for Inactive)
REMARK    1  A    between atoms: N_1  and  C_4
REMARK    2  A    between atoms: C_4  and  C_5
REMARK                            x       y       z     vdW  Elec       q    Type
REMARK                         _______ _______ _______ _____ _____    ______ ____
ROOT
ATOM      1  N   UNL     1      -0.414 -10.498  -5.153  0.00  0.00    -0.354 N 
ATOM      2  N   UNL     1      -1.656 -10.414  -7.106  0.00  0.00    -0.372 N 
ATOM      3  N   UNL     1      -0.718 -12.410  -6.474  0.00  0.00    -0.372 N 
ATOM      4  C   UNL     1      -0.920 -11.111  -6.232  0.00  0.00    +0.166 C 
ATOM      5  H   UNL     1      -0.578  -9.504  -5.043  0.00  0.00    +0.163 HD
ATOM      6  H   UNL     1      -2.054 -10.849  -7.927  0.00  0.00    +0.159 HD
ATOM      7  H   UNL     1      -1.857  -9.431  -6.969  0.00  0.00    +0.159 HD
ATOM      8  H   UNL     1      -0.167 -12.990  -5.856  0.00  0.00    +0.159 HD
ATOM      9  H   UNL     1      -1.098 -12.862  -7.296  0.00  0.00    +0.159 HD
ENDROOT
BRANCH   1  10
ATOM     10  C   UNL     1       0.356 -11.178  -4.113  0.00  0.00    +0.151 C 
BRANCH  10  11
ATOM     11  C   UNL     1      -0.478 -11.268  -2.865  0.00  0.00    -0.028 A 
ATOM     12  C   UNL     1       0.090 -11.705  -1.659  0.00  0.00    +0.005 A 
ATOM     13  C   UNL     1      -1.835 -10.911  -2.879  0.00  0.00    +0.005 A 
ATOM     14  C   UNL     1      -0.677 -11.760  -0.493  0.00  0.00    +0.000 A 
ATOM     15  C   UNL     1      -2.597 -10.968  -1.713  0.00  0.00    +0.000 A 
ATOM     16  C   UNL     1      -2.017 -11.390  -0.519  0.00  0.00    +0.000 A 
ENDBRANCH  10  11
ENDBRANCH   1  10
TORSDOF 2
ENDMDL
MODEL 4
REMARK VINA RESULT:    -4.305     15.731     16.413
REMARK INTER + INTRA:          -4.948
REMARK INTER:                  -4.842
REMARK INTRA:                  -0.106
REMARK UNBOUND:                -0.140
REMARK  Name = 1550473
REMARK  2 active torsions:
REMARK  status: ('A' for Active; 'I' for Inactive)
REMARK    1  A    between atoms: N_1  and  C_4
REMARK    2  A    between atoms: C_4  and  C_5
REMARK                            x       y       z     vdW  Elec       q    Type
REMARK                         _______ _______ _______ _____ _____    ______ ____
ROOT
ATOM      1  N   UNL     1      -3.416  -2.221   5.972  0.00  0.00    -0.354 N 
ATOM      2  N   UNL     1      -4.962  -3.304   4.630  0.00  0.00    -0.372 N 
ATOM      3  N   UNL     1      -5.524  -1.283   5.559  0.00  0.00    -0.372 N 
ATOM      4  C   UNL     1      -4.625  -2.260   5.397  0.00  0.00    +0.166 C 
ATOM      5  H   UNL     1      -2.792  -3.007   5.834  0.00  0.00    +0.163 HD
ATOM      6  H   UNL     1      -5.866  -3.359   4.180  0.00  0.00    +0.159 HD
ATOM      7  H   UNL     1      -4.319  -4.067   4.456  0.00  0.00    +0.159 HD
ATOM      8  H   UNL     1      -5.334  -0.470   6.131  0.00  0.00    +0.159 HD
ATOM      9  H   UNL     1      -6.438  -1.326   5.127  0.00  0.00    +0.159 HD
ENDROOT
BRANCH   1  10
ATOM     10  C   UNL     1      -2.932  -1.104   6.782  0.00  0.00    +0.151 C 
BRANCH  10  11
ATOM     11  C   UNL     1      -1.473  -1.311   7.082  0.00  0.00    -0.028 A 
ATOM     12  C   UNL     1      -1.012  -2.549   7.554  0.00  0.00    +0.005 A 
ATOM     13  C   UNL     1      -0.546  -0.276   6.892  0.00  0.00    +0.005 A 
ATOM     14  C   UNL     1       0.347  -2.752   7.804  0.00  0.00    +0.000 A 
ATOM     15  C   UNL     1       0.811  -0.481   7.143  0.00  0.00    +0.000 A 
ATOM     16  C   UNL     1       1.257  -1.720   7.597  0.00  0.00    +0.000 A 
ENDBRANCH  10  11
ENDBRANCH   1  10
TORSDOF 2
ENDMDL
MODEL 5
REMARK VINA RESULT:    -4.300     15.269     16.993
REMARK INTER + INTRA:          -4.943
REMARK INTER:                  -4.829
REMARK INTRA:                  -0.114
REMARK UNBOUND:                -0.140
REMARK  Name = 1550473
REMARK  2 active torsions:
REMARK  status: ('A' for Active; 'I' for Inactive)
REMARK    1  A    between atoms: N_1  and  C_4
REMARK    2  A    between atoms: C_4  and  C_5
REMARK                            x       y       z     vdW  Elec       q    Type
REMARK                         _______ _______ _______ _____ _____    ______ ____
ROOT
ATOM      1  N   UNL     1      12.428   6.141  -2.941  0.00  0.00    -0.354 N 
ATOM      2  N   UNL     1      12.821   4.407  -4.426  0.00  0.00    -0.372 N 
ATOM      3  N   UNL     1      13.740   4.299  -2.326  0.00  0.00    -0.372 N 
ATOM      4  C   UNL     1      12.996   4.959  -3.219  0.00  0.00    +0.166 C 
ATOM      5  H   UNL     1      11.901   6.605  -3.672  0.00  0.00    +0.163 HD
ATOM      6  H   UNL     1      13.234   3.515  -4.663  0.00  0.00    +0.159 HD
ATOM      7  H   UNL     1      12.255   4.851  -5.138  0.00  0.00    +0.159 HD
ATOM      8  H   UNL     1      13.915   4.664  -1.399  0.00  0.00    +0.159 HD
ATOM      9  H   UNL     1      14.171   3.410  -2.548  0.00  0.00    +0.159 HD
ENDROOT
BRANCH   1  10
ATOM     10  C   UNL     1      12.512   6.802  -1.640  0.00  0.00    +0.151 C 
BRANCH  10  11
ATOM     11  C   UNL     1      11.491   7.905  -1.583  0.00  0.00    -0.028 A 
ATOM     12  C   UNL     1      10.885   8.252  -0.367  0.00  0.00    +0.005 A 
ATOM     13  C   UNL     1      11.130   8.611  -2.741  0.00  0.00    +0.005 A 
ATOM     14  C   UNL     1       9.959   9.296  -0.308  0.00  0.00    +0.000 A 
ATOM     15  C   UNL     1      10.205   9.652  -2.679  0.00  0.00    +0.000 A 
ATOM     16  C   UNL     1       9.621   9.996  -1.462  0.00  0.00    +0.000 A 
ENDBRANCH  10  11
ENDBRANCH   1  10
TORSDOF 2
ENDMDL
MODEL 6
REMARK VINA RESULT:    -4.228      1.658      2.593
REMARK INTER + INTRA:          -4.862
REMARK INTER:                  -4.725
REMARK INTRA:                  -0.137
REMARK UNBOUND:                -0.140
REMARK  Name = 1550473
REMARK  2 active torsions:
REMARK  status: ('A' for Active; 'I' for Inactive)
REMARK    1  A    between atoms: N_1  and  C_4
REMARK    2  A    between atoms: C_4  and  C_5
REMARK                            x       y       z     vdW  Elec       q    Type
REMARK                         _______ _______ _______ _____ _____    ______ ____
ROOT
ATOM      1  N   UNL     1       2.096  13.293  10.752  0.00  0.00    -0.354 N 
ATOM      2  N   UNL     1       0.417  13.491   9.169  0.00  0.00    -0.372 N 
ATOM      3  N   UNL     1       0.141  12.009  10.899  0.00  0.00    -0.372 N 
ATOM      4  C   UNL     1       0.894  12.928  10.285  0.00  0.00    +0.166 C 
ATOM      5  H   UNL     1       2.631  13.973  10.224  0.00  0.00    +0.163 HD
ATOM      6  H   UNL     1      -0.488  13.238   8.795  0.00  0.00    +0.159 HD
ATOM      7  H   UNL     1       0.934  14.204   8.669  0.00  0.00    +0.159 HD
ATOM      8  H   UNL     1       0.446  11.542  11.742  0.00  0.00    +0.159 HD
ATOM      9  H   UNL     1      -0.762  11.734  10.533  0.00  0.00    +0.159 HD
ENDROOT
BRANCH   1  10
ATOM     10  C   UNL     1       2.683  12.780  11.989  0.00  0.00    +0.151 C 
BRANCH  10  11
ATOM     11  C   UNL     1       4.154  12.548  11.775  0.00  0.00    -0.028 A 
ATOM     12  C   UNL     1       4.656  12.303  10.488  0.00  0.00    +0.005 A 
ATOM     13  C   UNL     1       5.051  12.579  12.853  0.00  0.00    +0.005 A 
ATOM     14  C   UNL     1       6.026  12.118  10.285  0.00  0.00    +0.000 A 
ATOM     15  C   UNL     1       6.417  12.393  12.646  0.00  0.00    +0.000 A 
ATOM     16  C   UNL     1       6.905  12.165  11.362  0.00  0.00    +0.000 A 
ENDBRANCH  10  11
ENDBRANCH   1  10
TORSDOF 2
ENDMDL
MODEL 7
REMARK VINA RESULT:    -4.221     16.491     17.243
REMARK INTER + INTRA:          -4.854
REMARK INTER:                  -4.700
REMARK INTRA:                  -0.154
REMARK UNBOUND:                -0.140
REMARK  Name = 1550473
REMARK  2 active torsions:
REMARK  status: ('A' for Active; 'I' for Inactive)
REMARK    1  A    between atoms: N_1  and  C_4
REMARK    2  A    between atoms: C_4  and  C_5
REMARK                            x       y       z     vdW  Elec       q    Type
REMARK                         _______ _______ _______ _____ _____    ______ ____
ROOT
ATOM      1  N   UNL     1      -1.832  -4.976   8.058  0.00  0.00    -0.354 N 
ATOM      2  N   UNL     1      -3.615  -6.238   7.287  0.00  0.00    -0.372 N 
ATOM      3  N   UNL     1      -3.823  -5.129   9.285  0.00  0.00    -0.372 N 
ATOM      4  C   UNL     1      -3.079  -5.439   8.218  0.00  0.00    +0.166 C 
ATOM      5  H   UNL     1      -1.310  -5.272   7.242  0.00  0.00    +0.163 HD
ATOM      6  H   UNL     1      -4.554  -6.600   7.379  0.00  0.00    +0.159 HD
ATOM      7  H   UNL     1      -3.107  -6.495   6.450  0.00  0.00    +0.159 HD
ATOM      8  H   UNL     1      -3.475  -4.535  10.026  0.00  0.00    +0.159 HD
ATOM      9  H   UNL     1      -4.761  -5.491   9.401  0.00  0.00    +0.159 HD
ENDROOT
BRANCH   1  10
ATOM     10  C   UNL     1      -1.176  -4.056   8.987  0.00  0.00    +0.151 C 
BRANCH  10  11
ATOM     11  C   UNL     1      -0.829  -2.788   8.258  0.00  0.00    -0.028 A 
ATOM     12  C   UNL     1      -1.840  -1.932   7.797  0.00  0.00    +0.005 A 
ATOM     13  C   UNL     1       0.510  -2.433   8.030  0.00  0.00    +0.005 A 
ATOM     14  C   UNL     1      -1.517  -0.738   7.147  0.00  0.00    +0.000 A 
ATOM     15  C   UNL     1       0.828  -1.241   7.379  0.00  0.00    +0.000 A 
ATOM     16  C   UNL     1      -0.186  -0.393   6.940  0.00  0.00    +0.000 A 
ENDBRANCH  10  11
ENDBRANCH   1  10
TORSDOF 2
ENDMDL
MODEL 8
REMARK VINA RESULT:    -4.123      2.130      2.600
REMARK INTER + INTRA:          -4.745
REMARK INTER:                  -4.596
REMARK INTRA:                  -0.149
REMARK UNBOUND:                -0.140
REMARK  Name = 1550473
REMARK  2 active torsions:
REMARK  status: ('A' for Active; 'I' for Inactive)
REMARK    1  A    between atoms: N_1  and  C_4
REMARK    2  A    between atoms: C_4  and  C_5
REMARK                            x       y       z     vdW  Elec       q    Type
REMARK                         _______ _______ _______ _____ _____    ______ ____
ROOT
ATOM      1  N   UNL     1       1.831  13.459  10.658  0.00  0.00    -0.354 N 
ATOM      2  N   UNL     1       0.017  12.071  11.043  0.00  0.00    -0.372 N 
ATOM      3  N   UNL     1       0.264  13.024   8.970  0.00  0.00    -0.372 N 
ATOM      4  C   UNL     1       0.715  12.861  10.218  0.00  0.00    +0.166 C 
ATOM      5  H   UNL     1       2.103  13.319  11.624  0.00  0.00    +0.163 HD
ATOM      6  H   UNL     1      -0.827  11.604  10.738  0.00  0.00    +0.159 HD
ATOM      7  H   UNL     1       0.316  11.897  11.994  0.00  0.00    +0.159 HD
ATOM      8  H   UNL     1       0.742  13.612   8.300  0.00  0.00    +0.159 HD
ATOM      9  H   UNL     1      -0.585  12.574   8.650  0.00  0.00    +0.159 HD
ENDROOT
BRANCH   1  10
ATOM     10  C   UNL     1       2.692  14.296   9.824  0.00  0.00    +0.151 C 
BRANCH  10  11
ATOM     11  C   UNL     1       4.054  13.663   9.735  0.00  0.00    -0.028 A 
ATOM     12  C   UNL     1       4.435  12.662  10.641  0.00  0.00    +0.005 A 
ATOM     13  C   UNL     1       4.965  14.055   8.743  0.00  0.00    +0.005 A 
ATOM     14  C   UNL     1       5.688  12.053  10.540  0.00  0.00    +0.000 A 
ATOM     15  C   UNL     1       6.215  13.445   8.645  0.00  0.00    +0.000 A 
ATOM     16  C   UNL     1       6.575  12.442   9.543  0.00  0.00    +0.000 A 
ENDBRANCH  10  11
ENDBRANCH   1  10
TORSDOF 2
ENDMDL
MODEL 9
REMARK VINA RESULT:    -4.120      5.236      6.834
REMARK INTER + INTRA:          -4.741
REMARK INTER:                  -4.562
REMARK INTRA:                  -0.179
REMARK UNBOUND:                -0.140
REMARK  Name = 1550473
REMARK  2 active torsions:
REMARK  status: ('A' for Active; 'I' for Inactive)
REMARK    1  A    between atoms: N_1  and  C_4
REMARK    2  A    between atoms: C_4  and  C_5
REMARK                            x       y       z     vdW  Elec       q    Type
REMARK                         _______ _______ _______ _____ _____    ______ ____
ROOT
ATOM      1  N   UNL     1       1.683  14.949   6.183  0.00  0.00    -0.354 N 
ATOM      2  N   UNL     1       2.166  14.002   4.125  0.00  0.00    -0.372 N 
ATOM      3  N   UNL     1       0.012  13.910   4.910  0.00  0.00    -0.372 N 
ATOM      4  C   UNL     1       1.281  14.292   5.087  0.00  0.00    +0.166 C 
ATOM      5  H   UNL     1       2.665  15.184   6.270  0.00  0.00    +0.163 HD
ATOM      6  H   UNL     1       1.891  13.511   3.285  0.00  0.00    +0.159 HD
ATOM      7  H   UNL     1       3.137  14.279   4.194  0.00  0.00    +0.159 HD
ATOM      8  H   UNL     1      -0.704  14.093   5.601  0.00  0.00    +0.159 HD
ATOM      9  H   UNL     1      -0.280  13.407   4.081  0.00  0.00    +0.159 HD
ENDROOT
BRANCH   1  10
ATOM     10  C   UNL     1       0.788  15.360   7.264  0.00  0.00    +0.151 C 
BRANCH  10  11
ATOM     11  C   UNL     1       0.970  14.431   8.432  0.00  0.00    -0.028 A 
ATOM     12  C   UNL     1      -0.063  13.565   8.820  0.00  0.00    +0.005 A 
ATOM     13  C   UNL     1       2.174  14.409   9.152  0.00  0.00    +0.005 A 
ATOM     14  C   UNL     1       0.116  12.680   9.886  0.00  0.00    +0.000 A 
ATOM     15  C   UNL     1       2.348  13.525  10.217  0.00  0.00    +0.000 A 
ATOM     16  C   UNL     1       1.320  12.659  10.582  0.00  0.00    +0.000 A 
ENDBRANCH  10  11
ENDBRANCH   1  10
TORSDOF 2
ENDMDL
