MODEL 1
REMARK VINA RESULT:    -6.298      0.000      0.000
REMARK INTER + INTRA:          -7.148
REMARK INTER:                  -7.035
REMARK INTRA:                  -0.113
REMARK UNBOUND:                -0.113
REMARK  Name = 1550473
REMARK  2 active torsions:
REMARK  status: ('A' for Active; 'I' for Inactive)
REMARK    1  A    between atoms: N_1  and  C_4
REMARK    2  A    between atoms: C_4  and  C_5
REMARK                            x       y       z     vdW  Elec       q    Type
REMARK                         _______ _______ _______ _____ _____    ______ ____
ROOT
ATOM      1  N   UNL     1     -10.474  -0.661  -0.422  0.00  0.00    -0.354 N 
ATOM      2  N   UNL     1      -9.375   0.770   1.030  0.00  0.00    -0.372 N 
ATOM      3  N   UNL     1     -11.480   1.327   0.304  0.00  0.00    -0.372 N 
ATOM      4  C   UNL     1     -10.453   0.471   0.294  0.00  0.00    +0.166 C 
ATOM      5  H   UNL     1      -9.652  -1.253  -0.412  0.00  0.00    +0.163 HD
ATOM      6  H   UNL     1      -9.331   1.615   1.583  0.00  0.00    +0.159 HD
ATOM      7  H   UNL     1      -8.573   0.154   1.074  0.00  0.00    +0.159 HD
ATOM      8  H   UNL     1     -12.320   1.163  -0.234  0.00  0.00    +0.159 HD
ATOM      9  H   UNL     1     -11.450   2.184   0.843  0.00  0.00    +0.159 HD
ENDROOT
BRANCH   1  10
ATOM     10  C   UNL     1     -11.620  -1.106  -1.214  0.00  0.00    +0.151 C 
BRANCH  10  11
ATOM     11  C   UNL     1     -11.213  -2.293  -2.042  0.00  0.00    -0.028 A 
ATOM     12  C   UNL     1     -11.731  -2.472  -3.333  0.00  0.00    +0.005 A 
ATOM     13  C   UNL     1     -10.306  -3.241  -1.544  0.00  0.00    +0.005 A 
ATOM     14  C   UNL     1     -11.331  -3.559  -4.114  0.00  0.00    +0.000 A 
ATOM     15  C   UNL     1      -9.909  -4.325  -2.326  0.00  0.00    +0.000 A 
ATOM     16  C   UNL     1     -10.420  -4.482  -3.612  0.00  0.00    +0.000 A 
ENDBRANCH  10  11
ENDBRANCH   1  10
TORSDOF 2
ENDMDL
MODEL 2
REMARK VINA RESULT:    -5.393      3.309      4.215
REMARK INTER + INTRA:          -6.137
REMARK INTER:                  -6.027
REMARK INTRA:                  -0.110
REMARK UNBOUND:                -0.113
REMARK  Name = 1550473
REMARK  2 active torsions:
REMARK  status: ('A' for Active; 'I' for Inactive)
REMARK    1  A    between atoms: N_1  and  C_4
REMARK    2  A    between atoms: C_4  and  C_5
REMARK                            x       y       z     vdW  Elec       q    Type
REMARK                         _______ _______ _______ _____ _____    ______ ____
ROOT
ATOM      1  N   UNL     1     -11.507  -0.190  -4.692  0.00  0.00    -0.354 N 
ATOM      2  N   UNL     1     -10.843   1.779  -5.716  0.00  0.00    -0.372 N 
ATOM      3  N   UNL     1     -12.211   0.338  -6.864  0.00  0.00    -0.372 N 
ATOM      4  C   UNL     1     -11.526   0.628  -5.753  0.00  0.00    +0.166 C 
ATOM      5  H   UNL     1     -10.944   0.073  -3.892  0.00  0.00    +0.163 HD
ATOM      6  H   UNL     1     -10.842   2.418  -6.499  0.00  0.00    +0.159 HD
ATOM      7  H   UNL     1     -10.319   2.061  -4.897  0.00  0.00    +0.159 HD
ATOM      8  H   UNL     1     -12.742  -0.517  -6.958  0.00  0.00    +0.159 HD
ATOM      9  H   UNL     1     -12.212   0.960  -7.664  0.00  0.00    +0.159 HD
ENDROOT
BRANCH   1  10
ATOM     10  C   UNL     1     -12.260  -1.441  -4.611  0.00  0.00    +0.151 C 
BRANCH  10  11
ATOM     11  C   UNL     1     -11.401  -2.490  -3.960  0.00  0.00    -0.028 A 
ATOM     12  C   UNL     1     -11.319  -2.576  -2.563  0.00  0.00    +0.005 A 
ATOM     13  C   UNL     1     -10.671  -3.404  -4.736  0.00  0.00    +0.005 A 
ATOM     14  C   UNL     1     -10.545  -3.569  -1.958  0.00  0.00    +0.000 A 
ATOM     15  C   UNL     1      -9.899  -4.393  -4.128  0.00  0.00    +0.000 A 
ATOM     16  C   UNL     1      -9.838  -4.477  -2.739  0.00  0.00    +0.000 A 
ENDBRANCH  10  11
ENDBRANCH   1  10
TORSDOF 2
ENDMDL
MODEL 3
REMARK VINA RESULT:    -5.230      1.852      2.584
REMARK INTER + INTRA:          -5.954
REMARK INTER:                  -5.834
REMARK INTRA:                  -0.120
REMARK UNBOUND:                -0.113
REMARK  Name = 1550473
REMARK  2 active torsions:
REMARK  status: ('A' for Active; 'I' for Inactive)
REMARK    1  A    between atoms: N_1  and  C_4
REMARK    2  A    between atoms: C_4  and  C_5
REMARK                            x       y       z     vdW  Elec       q    Type
REMARK                         _______ _______ _______ _____ _____    ______ ____
ROOT
ATOM      1  N   UNL     1     -12.364  -0.367  -2.238  0.00  0.00    -0.354 N 
ATOM      2  N   UNL     1     -13.236   1.766  -2.474  0.00  0.00    -0.372 N 
ATOM      3  N   UNL     1     -13.124   0.839  -0.378  0.00  0.00    -0.372 N 
ATOM      4  C   UNL     1     -12.903   0.732  -1.692  0.00  0.00    +0.166 C 
ATOM      5  H   UNL     1     -12.250  -0.398  -3.245  0.00  0.00    +0.163 HD
ATOM      6  H   UNL     1     -13.641   2.609  -2.090  0.00  0.00    +0.159 HD
ATOM      7  H   UNL     1     -13.079   1.750  -3.474  0.00  0.00    +0.159 HD
ATOM      8  H   UNL     1     -12.900   0.092   0.265  0.00  0.00    +0.159 HD
ATOM      9  H   UNL     1     -13.539   1.670   0.024  0.00  0.00    +0.159 HD
ENDROOT
BRANCH   1  10
ATOM     10  C   UNL     1     -11.916  -1.527  -1.469  0.00  0.00    +0.151 C 
BRANCH  10  11
ATOM     11  C   UNL     1     -11.263  -2.511  -2.400  0.00  0.00    -0.028 A 
ATOM     12  C   UNL     1     -10.420  -3.513  -1.899  0.00  0.00    +0.005 A 
ATOM     13  C   UNL     1     -11.488  -2.450  -3.784  0.00  0.00    +0.005 A 
ATOM     14  C   UNL     1      -9.837  -4.446  -2.760  0.00  0.00    +0.000 A 
ATOM     15  C   UNL     1     -10.903  -3.383  -4.640  0.00  0.00    +0.000 A 
ATOM     16  C   UNL     1     -10.080  -4.382  -4.128  0.00  0.00    +0.000 A 
ENDBRANCH  10  11
ENDBRANCH   1  10
TORSDOF 2
ENDMDL
MODEL 4
REMARK VINA RESULT:    -5.149     13.233     13.881
REMARK INTER + INTRA:          -5.864
REMARK INTER:                  -5.715
REMARK INTRA:                  -0.150
REMARK UNBOUND:                -0.113
REMARK  Name = 1550473
REMARK  2 active torsions:
REMARK  status: ('A' for Active; 'I' for Inactive)
REMARK    1  A    between atoms: N_1  and  C_4
REMARK    2  A    between atoms: C_4  and  C_5
REMARK                            x       y       z     vdW  Elec       q    Type
REMARK                         _______ _______ _______ _____ _____    ______ ____
ROOT
ATOM      1  N   UNL     1      -6.734   4.536 -14.670  0.00  0.00    -0.354 N 
ATOM      2  N   UNL     1      -5.432   6.233 -15.560  0.00  0.00    -0.372 N 
ATOM      3  N   UNL     1      -6.686   6.663 -13.686  0.00  0.00    -0.372 N 
ATOM      4  C   UNL     1      -6.294   5.801 -14.631  0.00  0.00    +0.166 C 
ATOM      5  H   UNL     1      -6.422   3.942 -15.429  0.00  0.00    +0.163 HD
ATOM      6  H   UNL     1      -5.080   7.181 -15.554  0.00  0.00    +0.159 HD
ATOM      7  H   UNL     1      -5.087   5.623 -16.291  0.00  0.00    +0.159 HD
ATOM      8  H   UNL     1      -7.339   6.401 -12.960  0.00  0.00    +0.159 HD
ATOM      9  H   UNL     1      -6.354   7.619 -13.671  0.00  0.00    +0.159 HD
ENDROOT
BRANCH   1  10
ATOM     10  C   UNL     1      -7.631   3.952 -13.674  0.00  0.00    +0.151 C 
BRANCH  10  11
ATOM     11  C   UNL     1      -6.813   3.401 -12.539  0.00  0.00    -0.028 A 
ATOM     12  C   UNL     1      -7.041   3.831 -11.223  0.00  0.00    +0.005 A 
ATOM     13  C   UNL     1      -5.813   2.445 -12.771  0.00  0.00    +0.005 A 
ATOM     14  C   UNL     1      -6.302   3.298 -10.165  0.00  0.00    +0.000 A 
ATOM     15  C   UNL     1      -5.077   1.916 -11.711  0.00  0.00    +0.000 A 
ATOM     16  C   UNL     1      -5.323   2.341 -10.408  0.00  0.00    +0.000 A 
ENDBRANCH  10  11
ENDBRANCH   1  10
TORSDOF 2
ENDMDL
MODEL 5
REMARK VINA RESULT:    -4.988     16.630     17.680
REMARK INTER + INTRA:          -5.684
REMARK INTER:                  -5.555
REMARK INTRA:                  -0.129
REMARK UNBOUND:                -0.113
REMARK  Name = 1550473
REMARK  2 active torsions:
REMARK  status: ('A' for Active; 'I' for Inactive)
REMARK    1  A    between atoms: N_1  and  C_4
REMARK    2  A    between atoms: C_4  and  C_5
REMARK                            x       y       z     vdW  Elec       q    Type
REMARK                         _______ _______ _______ _____ _____    ______ ____
ROOT
ATOM      1  N   UNL     1     -11.634 -19.507  -1.410  0.00  0.00    -0.354 N 
ATOM      2  N   UNL     1     -10.018 -18.171  -0.425  0.00  0.00    -0.372 N 
ATOM      3  N   UNL     1      -9.509 -19.277  -2.371  0.00  0.00    -0.372 N 
ATOM      4  C   UNL     1     -10.396 -18.995  -1.410  0.00  0.00    +0.166 C 
ATOM      5  H   UNL     1     -12.249 -19.278  -0.637  0.00  0.00    +0.163 HD
ATOM      6  H   UNL     1      -9.091 -17.767  -0.401  0.00  0.00    +0.159 HD
ATOM      7  H   UNL     1     -10.650 -17.908   0.321  0.00  0.00    +0.159 HD
ATOM      8  H   UNL     1      -9.730 -19.896  -3.139  0.00  0.00    +0.159 HD
ATOM      9  H   UNL     1      -8.573 -18.891  -2.358  0.00  0.00    +0.159 HD
ENDROOT
BRANCH   1  10
ATOM     10  C   UNL     1     -12.162 -20.370  -2.464  0.00  0.00    +0.151 C 
BRANCH  10  11
ATOM     11  C   UNL     1     -13.132 -19.585  -3.303  0.00  0.00    -0.028 A 
ATOM     12  C   UNL     1     -14.501 -19.888  -3.280  0.00  0.00    +0.005 A 
ATOM     13  C   UNL     1     -12.689 -18.531  -4.117  0.00  0.00    +0.005 A 
ATOM     14  C   UNL     1     -15.407 -19.139  -4.036  0.00  0.00    +0.000 A 
ATOM     15  C   UNL     1     -13.596 -17.786  -4.871  0.00  0.00    +0.000 A 
ATOM     16  C   UNL     1     -14.955 -18.089  -4.828  0.00  0.00    +0.000 A 
ENDBRANCH  10  11
ENDBRANCH   1  10
TORSDOF 2
ENDMDL
MODEL 6
REMARK VINA RESULT:    -4.842      2.214      3.197
REMARK INTER + INTRA:          -5.520
REMARK INTER:                  -5.389
REMARK INTRA:                  -0.132
REMARK UNBOUND:                -0.113
REMARK  Name = 1550473
REMARK  2 active torsions:
REMARK  status: ('A' for Active; 'I' for Inactive)
REMARK    1  A    between atoms: N_1  and  C_4
REMARK    2  A    between atoms: C_4  and  C_5
REMARK                            x       y       z     vdW  Elec       q    Type
REMARK                         _______ _______ _______ _____ _____    ______ ____
ROOT
ATOM      1  N   UNL     1     -12.678   1.294  -1.397  0.00  0.00    -0.354 N 
ATOM      2  N   UNL     1     -12.899   3.398  -0.455  0.00  0.00    -0.372 N 
ATOM      3  N   UNL     1     -11.955   1.719   0.791  0.00  0.00    -0.372 N 
ATOM      4  C   UNL     1     -12.508   2.122  -0.358  0.00  0.00    +0.166 C 
ATOM      5  H   UNL     1     -13.131   1.653  -2.230  0.00  0.00    +0.163 HD
ATOM      6  H   UNL     1     -12.781   4.047   0.311  0.00  0.00    +0.159 HD
ATOM      7  H   UNL     1     -13.310   3.766  -1.305  0.00  0.00    +0.159 HD
ATOM      8  H   UNL     1     -11.644   0.767   0.931  0.00  0.00    +0.159 HD
ATOM      9  H   UNL     1     -11.839   2.350   1.574  0.00  0.00    +0.159 HD
ENDROOT
BRANCH   1  10
ATOM     10  C   UNL     1     -12.238  -0.100  -1.413  0.00  0.00    +0.151 C 
BRANCH  10  11
ATOM     11  C   UNL     1     -11.853  -0.478  -2.816  0.00  0.00    -0.028 A 
ATOM     12  C   UNL     1     -11.746  -1.827  -3.187  0.00  0.00    +0.005 A 
ATOM     13  C   UNL     1     -11.600   0.508  -3.783  0.00  0.00    +0.005 A 
ATOM     14  C   UNL     1     -11.417  -2.178  -4.498  0.00  0.00    +0.000 A 
ATOM     15  C   UNL     1     -11.271   0.152  -5.091  0.00  0.00    +0.000 A 
ATOM     16  C   UNL     1     -11.183  -1.191  -5.449  0.00  0.00    +0.000 A 
ENDBRANCH  10  11
ENDBRANCH   1  10
TORSDOF 2
ENDMDL
MODEL 7
REMARK VINA RESULT:    -4.761      2.636      3.084
REMARK INTER + INTRA:          -5.431
REMARK INTER:                  -5.305
REMARK INTRA:                  -0.126
REMARK UNBOUND:                -0.113
REMARK  Name = 1550473
REMARK  2 active torsions:
REMARK  status: ('A' for Active; 'I' for Inactive)
REMARK    1  A    between atoms: N_1  and  C_4
REMARK    2  A    between atoms: C_4  and  C_5
REMARK                            x       y       z     vdW  Elec       q    Type
REMARK                         _______ _______ _______ _____ _____    ______ ____
ROOT
ATOM      1  N   UNL     1     -13.069  -0.687  -2.827  0.00  0.00    -0.354 N 
ATOM      2  N   UNL     1     -14.142   0.991  -1.646  0.00  0.00    -0.372 N 
ATOM      3  N   UNL     1     -13.722   1.302  -3.880  0.00  0.00    -0.372 N 
ATOM      4  C   UNL     1     -13.637   0.525  -2.795  0.00  0.00    +0.166 C 
ATOM      5  H   UNL     1     -13.008  -1.214  -1.964  0.00  0.00    +0.163 HD
ATOM      6  H   UNL     1     -14.579   1.901  -1.591  0.00  0.00    +0.159 HD
ATOM      7  H   UNL     1     -14.121   0.443  -0.794  0.00  0.00    +0.159 HD
ATOM      8  H   UNL     1     -13.355   1.011  -4.776  0.00  0.00    +0.159 HD
ATOM      9  H   UNL     1     -14.146   2.220  -3.843  0.00  0.00    +0.159 HD
ENDROOT
BRANCH   1  10
ATOM     10  C   UNL     1     -12.537  -1.309  -4.039  0.00  0.00    +0.151 C 
BRANCH  10  11
ATOM     11  C   UNL     1     -11.588  -2.409  -3.651  0.00  0.00    -0.028 A 
ATOM     12  C   UNL     1     -10.997  -3.218  -4.632  0.00  0.00    +0.005 A 
ATOM     13  C   UNL     1     -11.273  -2.645  -2.304  0.00  0.00    +0.005 A 
ATOM     14  C   UNL     1     -10.092  -4.221  -4.274  0.00  0.00    +0.000 A 
ATOM     15  C   UNL     1     -10.370  -3.648  -1.951  0.00  0.00    +0.000 A 
ATOM     16  C   UNL     1      -9.778  -4.434  -2.936  0.00  0.00    +0.000 A 
ENDBRANCH  10  11
ENDBRANCH   1  10
TORSDOF 2
ENDMDL
MODEL 8
REMARK VINA RESULT:    -4.621      4.420      5.157
REMARK INTER + INTRA:          -5.274
REMARK INTER:                  -5.182
REMARK INTRA:                  -0.092
REMARK UNBOUND:                -0.113
REMARK  Name = 1550473
REMARK  2 active torsions:
REMARK  status: ('A' for Active; 'I' for Inactive)
REMARK    1  A    between atoms: N_1  and  C_4
REMARK    2  A    between atoms: C_4  and  C_5
REMARK                            x       y       z     vdW  Elec       q    Type
REMARK                         _______ _______ _______ _____ _____    ______ ____
ROOT
ATOM      1  N   UNL     1     -10.708   1.415  -5.709  0.00  0.00    -0.354 N 
ATOM      2  N   UNL     1      -9.341   3.005  -6.694  0.00  0.00    -0.372 N 
ATOM      3  N   UNL     1     -11.360   2.519  -7.671  0.00  0.00    -0.372 N 
ATOM      4  C   UNL     1     -10.481   2.303  -6.686  0.00  0.00    +0.166 C 
ATOM      5  H   UNL     1      -9.988   1.276  -5.009  0.00  0.00    +0.163 HD
ATOM      6  H   UNL     1      -9.144   3.684  -7.416  0.00  0.00    +0.159 HD
ATOM      7  H   UNL     1      -8.644   2.897  -5.967  0.00  0.00    +0.159 HD
ATOM      8  H   UNL     1     -12.236   2.017  -7.726  0.00  0.00    +0.159 HD
ATOM      9  H   UNL     1     -11.175   3.186  -8.409  0.00  0.00    +0.159 HD
ENDROOT
BRANCH   1  10
ATOM     10  C   UNL     1     -11.939   0.638  -5.579  0.00  0.00    +0.151 C 
BRANCH  10  11
ATOM     11  C   UNL     1     -11.771  -0.368  -4.475  0.00  0.00    -0.028 A 
ATOM     12  C   UNL     1     -11.847   0.029  -3.132  0.00  0.00    +0.005 A 
ATOM     13  C   UNL     1     -11.541  -1.722  -4.765  0.00  0.00    +0.005 A 
ATOM     14  C   UNL     1     -11.721  -0.911  -2.106  0.00  0.00    +0.000 A 
ATOM     15  C   UNL     1     -11.414  -2.657  -3.737  0.00  0.00    +0.000 A 
ATOM     16  C   UNL     1     -11.507  -2.251  -2.408  0.00  0.00    +0.000 A 
ENDBRANCH  10  11
ENDBRANCH   1  10
TORSDOF 2
ENDMDL
MODEL 9
REMARK VINA RESULT:    -4.492     13.356     14.101
REMARK INTER + INTRA:          -5.130
REMARK INTER:                  -4.988
REMARK INTRA:                  -0.142
REMARK UNBOUND:                -0.113
REMARK  Name = 1550473
REMARK  2 active torsions:
REMARK  status: ('A' for Active; 'I' for Inactive)
REMARK    1  A    between atoms: N_1  and  C_4
REMARK    2  A    between atoms: C_4  and  C_5
REMARK                            x       y       z     vdW  Elec       q    Type
REMARK                         _______ _______ _______ _____ _____    ______ ____
ROOT
ATOM      1  N   UNL     1      -6.397   3.353 -11.637  0.00  0.00    -0.354 N 
ATOM      2  N   UNL     1      -5.252   1.348 -11.456  0.00  0.00    -0.372 N 
ATOM      3  N   UNL     1      -4.998   2.923  -9.807  0.00  0.00    -0.372 N 
ATOM      4  C   UNL     1      -5.555   2.556 -10.966  0.00  0.00    +0.166 C 
ATOM      5  H   UNL     1      -6.763   3.028 -12.525  0.00  0.00    +0.163 HD
ATOM      6  H   UNL     1      -4.623   0.723 -10.970  0.00  0.00    +0.159 HD
ATOM      7  H   UNL     1      -5.655   1.007 -12.320  0.00  0.00    +0.159 HD
ATOM      8  H   UNL     1      -5.181   3.825  -9.387  0.00  0.00    +0.159 HD
ATOM      9  H   UNL     1      -4.356   2.317  -9.312  0.00  0.00    +0.159 HD
ENDROOT
BRANCH   1  10
ATOM     10  C   UNL     1      -6.834   4.665 -11.163  0.00  0.00    +0.151 C 
BRANCH  10  11
ATOM     11  C   UNL     1      -6.660   5.669 -12.269  0.00  0.00    -0.028 A 
ATOM     12  C   UNL     1      -6.752   7.043 -12.003  0.00  0.00    +0.005 A 
ATOM     13  C   UNL     1      -6.398   5.254 -13.583  0.00  0.00    +0.005 A 
ATOM     14  C   UNL     1      -6.561   7.978 -13.024  0.00  0.00    +0.000 A 
ATOM     15  C   UNL     1      -6.209   6.190 -14.600  0.00  0.00    +0.000 A 
ATOM     16  C   UNL     1      -6.288   7.552 -14.319  0.00  0.00    +0.000 A 
ENDBRANCH  10  11
ENDBRANCH   1  10
TORSDOF 2
ENDMDL
