MODEL 1
REMARK VINA RESULT:    -4.929      0.000      0.000
REMARK INTER + INTRA:          -5.677
REMARK INTER:                  -5.505
REMARK INTRA:                  -0.172
REMARK UNBOUND:                -0.172
REMARK  Name = 1550473
REMARK  2 active torsions:
REMARK  status: ('A' for Active; 'I' for Inactive)
REMARK    1  A    between atoms: N_1  and  C_4
REMARK    2  A    between atoms: C_4  and  C_5
REMARK                            x       y       z     vdW  Elec       q    Type
REMARK                         _______ _______ _______ _____ _____    ______ ____
ROOT
ATOM      1  N   UNL     1       0.969   0.503  -4.215  0.00  0.00    -0.354 N 
ATOM      2  N   UNL     1       1.956   2.582  -4.478  0.00  0.00    -0.372 N 
ATOM      3  N   UNL     1       2.890   1.088  -3.006  0.00  0.00    -0.372 N 
ATOM      4  C   UNL     1       1.934   1.376  -3.896  0.00  0.00    +0.166 C 
ATOM      5  H   UNL     1       0.256   0.793  -4.874  0.00  0.00    +0.163 HD
ATOM      6  H   UNL     1       2.674   3.260  -4.260  0.00  0.00    +0.159 HD
ATOM      7  H   UNL     1       1.269   2.852  -5.170  0.00  0.00    +0.159 HD
ATOM      8  H   UNL     1       2.925   0.198  -2.528  0.00  0.00    +0.159 HD
ATOM      9  H   UNL     1       3.609   1.759  -2.766  0.00  0.00    +0.159 HD
ENDROOT
BRANCH   1  10
ATOM     10  C   UNL     1       0.885  -0.854  -3.679  0.00  0.00    +0.151 C 
BRANCH  10  11
ATOM     11  C   UNL     1       1.408  -1.821  -4.705  0.00  0.00    -0.028 A 
ATOM     12  C   UNL     1       0.539  -2.413  -5.633  0.00  0.00    +0.005 A 
ATOM     13  C   UNL     1       2.772  -2.145  -4.759  0.00  0.00    +0.005 A 
ATOM     14  C   UNL     1       1.029  -3.288  -6.606  0.00  0.00    +0.000 A 
ATOM     15  C   UNL     1       3.257  -3.019  -5.731  0.00  0.00    +0.000 A 
ATOM     16  C   UNL     1       2.386  -3.589  -6.656  0.00  0.00    +0.000 A 
ENDBRANCH  10  11
ENDBRANCH   1  10
TORSDOF 2
ENDMDL
MODEL 2
REMARK VINA RESULT:    -4.900      1.681      2.413
REMARK INTER + INTRA:          -5.645
REMARK INTER:                  -5.476
REMARK INTRA:                  -0.170
REMARK UNBOUND:                -0.172
REMARK  Name = 1550473
REMARK  2 active torsions:
REMARK  status: ('A' for Active; 'I' for Inactive)
REMARK    1  A    between atoms: N_1  and  C_4
REMARK    2  A    between atoms: C_4  and  C_5
REMARK                            x       y       z     vdW  Elec       q    Type
REMARK                         _______ _______ _______ _____ _____    ______ ____
ROOT
ATOM      1  N   UNL     1       3.795   1.185  -4.906  0.00  0.00    -0.354 N 
ATOM      2  N   UNL     1       2.044   2.654  -4.532  0.00  0.00    -0.372 N 
ATOM      3  N   UNL     1       2.513   1.061  -2.948  0.00  0.00    -0.372 N 
ATOM      4  C   UNL     1       2.795   1.622  -4.129  0.00  0.00    +0.166 C 
ATOM      5  H   UNL     1       3.938   1.633  -5.803  0.00  0.00    +0.163 HD
ATOM      6  H   UNL     1       1.284   3.008  -3.965  0.00  0.00    +0.159 HD
ATOM      7  H   UNL     1       2.218   3.130  -5.408  0.00  0.00    +0.159 HD
ATOM      8  H   UNL     1       3.038   0.275  -2.589  0.00  0.00    +0.159 HD
ATOM      9  H   UNL     1       1.750   1.394  -2.372  0.00  0.00    +0.159 HD
ENDROOT
BRANCH   1  10
ATOM     10  C   UNL     1       4.706   0.103  -4.535  0.00  0.00    +0.151 C 
BRANCH  10  11
ATOM     11  C   UNL     1       4.357  -1.126  -5.329  0.00  0.00    -0.028 A 
ATOM     12  C   UNL     1       3.323  -1.975  -4.909  0.00  0.00    +0.005 A 
ATOM     13  C   UNL     1       5.054  -1.444  -6.505  0.00  0.00    +0.005 A 
ATOM     14  C   UNL     1       2.979  -3.100  -5.662  0.00  0.00    +0.000 A 
ATOM     15  C   UNL     1       4.709  -2.569  -7.253  0.00  0.00    +0.000 A 
ATOM     16  C   UNL     1       3.670  -3.395  -6.833  0.00  0.00    +0.000 A 
ENDBRANCH  10  11
ENDBRANCH   1  10
TORSDOF 2
ENDMDL
MODEL 3
REMARK VINA RESULT:    -4.788     16.941     17.952
REMARK INTER + INTRA:          -5.520
REMARK INTER:                  -5.426
REMARK INTRA:                  -0.094
REMARK UNBOUND:                -0.172
REMARK  Name = 1550473
REMARK  2 active torsions:
REMARK  status: ('A' for Active; 'I' for Inactive)
REMARK    1  A    between atoms: N_1  and  C_4
REMARK    2  A    between atoms: C_4  and  C_5
REMARK                            x       y       z     vdW  Elec       q    Type
REMARK                         _______ _______ _______ _____ _____    ______ ____
ROOT
ATOM      1  N   UNL     1      13.018   6.990   4.959  0.00  0.00    -0.354 N 
ATOM      2  N   UNL     1      12.016   6.301   6.930  0.00  0.00    -0.372 N 
ATOM      3  N   UNL     1      13.711   5.032   6.045  0.00  0.00    -0.372 N 
ATOM      4  C   UNL     1      12.924   6.110   5.965  0.00  0.00    +0.166 C 
ATOM      5  H   UNL     1      12.372   7.770   4.939  0.00  0.00    +0.163 HD
ATOM      6  H   UNL     1      11.924   5.657   7.704  0.00  0.00    +0.159 HD
ATOM      7  H   UNL     1      11.403   7.107   6.933  0.00  0.00    +0.159 HD
ATOM      8  H   UNL     1      14.412   4.827   5.346  0.00  0.00    +0.159 HD
ATOM      9  H   UNL     1      13.626   4.369   6.806  0.00  0.00    +0.159 HD
ENDROOT
BRANCH   1  10
ATOM     10  C   UNL     1      14.008   6.902   3.887  0.00  0.00    +0.151 C 
BRANCH  10  11
ATOM     11  C   UNL     1      14.177   8.260   3.262  0.00  0.00    -0.028 A 
ATOM     12  C   UNL     1      15.220   9.105   3.668  0.00  0.00    +0.005 A 
ATOM     13  C   UNL     1      13.301   8.704   2.260  0.00  0.00    +0.005 A 
ATOM     14  C   UNL     1      15.395  10.354   3.067  0.00  0.00    +0.000 A 
ATOM     15  C   UNL     1      13.479   9.952   1.663  0.00  0.00    +0.000 A 
ATOM     16  C   UNL     1      14.528  10.775   2.065  0.00  0.00    +0.000 A 
ENDBRANCH  10  11
ENDBRANCH   1  10
TORSDOF 2
ENDMDL
MODEL 4
REMARK VINA RESULT:    -4.640     17.023     17.537
REMARK INTER + INTRA:          -5.355
REMARK INTER:                  -5.213
REMARK INTRA:                  -0.142
REMARK UNBOUND:                -0.172
REMARK  Name = 1550473
REMARK  2 active torsions:
REMARK  status: ('A' for Active; 'I' for Inactive)
REMARK    1  A    between atoms: N_1  and  C_4
REMARK    2  A    between atoms: C_4  and  C_5
REMARK                            x       y       z     vdW  Elec       q    Type
REMARK                         _______ _______ _______ _____ _____    ______ ____
ROOT
ATOM      1  N   UNL     1      13.626   7.534   2.953  0.00  0.00    -0.354 N 
ATOM      2  N   UNL     1      12.783   9.359   1.802  0.00  0.00    -0.372 N 
ATOM      3  N   UNL     1      15.020   9.305   2.310  0.00  0.00    -0.372 N 
ATOM      4  C   UNL     1      13.818   8.722   2.363  0.00  0.00    +0.166 C 
ATOM      5  H   UNL     1      12.684   7.160   2.987  0.00  0.00    +0.163 HD
ATOM      6  H   UNL     1      12.898  10.254   1.347  0.00  0.00    +0.159 HD
ATOM      7  H   UNL     1      11.852   8.961   1.797  0.00  0.00    +0.159 HD
ATOM      8  H   UNL     1      15.840   8.878   2.719  0.00  0.00    +0.159 HD
ATOM      9  H   UNL     1      15.153  10.206   1.869  0.00  0.00    +0.159 HD
ENDROOT
BRANCH   1  10
ATOM     10  C   UNL     1      14.695   6.734   3.547  0.00  0.00    +0.151 C 
BRANCH  10  11
ATOM     11  C   UNL     1      14.246   6.234   4.892  0.00  0.00    -0.028 A 
ATOM     12  C   UNL     1      13.028   6.662   5.440  0.00  0.00    +0.005 A 
ATOM     13  C   UNL     1      15.031   5.327   5.620  0.00  0.00    +0.005 A 
ATOM     14  C   UNL     1      12.597   6.174   6.676  0.00  0.00    +0.000 A 
ATOM     15  C   UNL     1      14.597   4.843   6.855  0.00  0.00    +0.000 A 
ATOM     16  C   UNL     1      13.379   5.265   7.381  0.00  0.00    +0.000 A 
ENDBRANCH  10  11
ENDBRANCH   1  10
TORSDOF 2
ENDMDL
MODEL 5
REMARK VINA RESULT:    -4.545      5.179      6.770
REMARK INTER + INTRA:          -5.249
REMARK INTER:                  -5.132
REMARK INTRA:                  -0.117
REMARK UNBOUND:                -0.172
REMARK  Name = 1550473
REMARK  2 active torsions:
REMARK  status: ('A' for Active; 'I' for Inactive)
REMARK    1  A    between atoms: N_1  and  C_4
REMARK    2  A    between atoms: C_4  and  C_5
REMARK                            x       y       z     vdW  Elec       q    Type
REMARK                         _______ _______ _______ _____ _____    ______ ____
ROOT
ATOM      1  N   UNL     1      -0.145  -3.775  -8.258  0.00  0.00    -0.354 N 
ATOM      2  N   UNL     1       0.370  -4.076  -6.021  0.00  0.00    -0.372 N 
ATOM      3  N   UNL     1       0.767  -2.032  -6.984  0.00  0.00    -0.372 N 
ATOM      4  C   UNL     1       0.328  -3.290  -7.103  0.00  0.00    +0.166 C 
ATOM      5  H   UNL     1      -0.434  -4.746  -8.291  0.00  0.00    +0.163 HD
ATOM      6  H   UNL     1       0.719  -3.737  -5.134  0.00  0.00    +0.159 HD
ATOM      7  H   UNL     1       0.038  -5.033  -6.044  0.00  0.00    +0.159 HD
ATOM      8  H   UNL     1       0.767  -1.389  -7.765  0.00  0.00    +0.159 HD
ATOM      9  H   UNL     1       1.130  -1.678  -6.108  0.00  0.00    +0.159 HD
ENDROOT
BRANCH   1  10
ATOM     10  C   UNL     1      -0.284  -2.985  -9.481  0.00  0.00    +0.151 C 
BRANCH  10  11
ATOM     11  C   UNL     1      -1.125  -3.749 -10.466  0.00  0.00    -0.028 A 
ATOM     12  C   UNL     1      -2.215  -4.516 -10.028  0.00  0.00    +0.005 A 
ATOM     13  C   UNL     1      -0.841  -3.705 -11.840  0.00  0.00    +0.005 A 
ATOM     14  C   UNL     1      -3.015  -5.201 -10.946  0.00  0.00    +0.000 A 
ATOM     15  C   UNL     1      -1.642  -4.392 -12.753  0.00  0.00    +0.000 A 
ATOM     16  C   UNL     1      -2.730  -5.137 -12.305  0.00  0.00    +0.000 A 
ENDBRANCH  10  11
ENDBRANCH   1  10
TORSDOF 2
ENDMDL
MODEL 6
REMARK VINA RESULT:    -4.467      9.738     11.147
REMARK INTER + INTRA:          -5.162
REMARK INTER:                  -5.055
REMARK INTRA:                  -0.107
REMARK UNBOUND:                -0.172
REMARK  Name = 1550473
REMARK  2 active torsions:
REMARK  status: ('A' for Active; 'I' for Inactive)
REMARK    1  A    between atoms: N_1  and  C_4
REMARK    2  A    between atoms: C_4  and  C_5
REMARK                            x       y       z     vdW  Elec       q    Type
REMARK                         _______ _______ _______ _____ _____    ______ ____
ROOT
ATOM      1  N   UNL     1       0.196  -8.906 -11.911  0.00  0.00    -0.354 N 
ATOM      2  N   UNL     1       2.218  -9.965 -11.525  0.00  0.00    -0.372 N 
ATOM      3  N   UNL     1       1.050 -10.468 -13.435  0.00  0.00    -0.372 N 
ATOM      4  C   UNL     1       1.141  -9.774 -12.295  0.00  0.00    +0.166 C 
ATOM      5  H   UNL     1       0.308  -8.433 -11.021  0.00  0.00    +0.163 HD
ATOM      6  H   UNL     1       2.950 -10.611 -11.790  0.00  0.00    +0.159 HD
ATOM      7  H   UNL     1       2.351  -9.458 -10.658  0.00  0.00    +0.159 HD
ATOM      8  H   UNL     1       0.260 -10.373 -14.058  0.00  0.00    +0.159 HD
ATOM      9  H   UNL     1       1.766 -11.128 -13.712  0.00  0.00    +0.159 HD
ENDROOT
BRANCH   1  10
ATOM     10  C   UNL     1      -0.990  -8.585 -12.703  0.00  0.00    +0.151 C 
BRANCH  10  11
ATOM     11  C   UNL     1      -1.677  -7.391 -12.099  0.00  0.00    -0.028 A 
ATOM     12  C   UNL     1      -1.889  -7.318 -10.714  0.00  0.00    +0.005 A 
ATOM     13  C   UNL     1      -2.113  -6.328 -12.904  0.00  0.00    +0.005 A 
ATOM     14  C   UNL     1      -2.500  -6.196 -10.148  0.00  0.00    +0.000 A 
ATOM     15  C   UNL     1      -2.723  -5.210 -12.335  0.00  0.00    +0.000 A 
ATOM     16  C   UNL     1      -2.914  -5.144 -10.957  0.00  0.00    +0.000 A 
ENDBRANCH  10  11
ENDBRANCH   1  10
TORSDOF 2
ENDMDL
MODEL 7
REMARK VINA RESULT:    -4.464     12.841     13.608
REMARK INTER + INTRA:          -5.158
REMARK INTER:                  -4.997
REMARK INTRA:                  -0.161
REMARK UNBOUND:                -0.172
REMARK  Name = 1550473
REMARK  2 active torsions:
REMARK  status: ('A' for Active; 'I' for Inactive)
REMARK    1  A    between atoms: N_1  and  C_4
REMARK    2  A    between atoms: C_4  and  C_5
REMARK                            x       y       z     vdW  Elec       q    Type
REMARK                         _______ _______ _______ _____ _____    ______ ____
ROOT
ATOM      1  N   UNL     1      -1.145   3.041 -16.958  0.00  0.00    -0.354 N 
ATOM      2  N   UNL     1      -1.592   0.796 -16.609  0.00  0.00    -0.372 N 
ATOM      3  N   UNL     1      -0.348   1.408 -18.437  0.00  0.00    -0.372 N 
ATOM      4  C   UNL     1      -1.024   1.763 -17.340  0.00  0.00    +0.166 C 
ATOM      5  H   UNL     1      -1.696   3.247 -16.133  0.00  0.00    +0.163 HD
ATOM      6  H   UNL     1      -1.514  -0.178 -16.870  0.00  0.00    +0.159 HD
ATOM      7  H   UNL     1      -2.103   1.000 -15.759  0.00  0.00    +0.159 HD
ATOM      8  H   UNL     1       0.099   2.090 -19.035  0.00  0.00    +0.159 HD
ATOM      9  H   UNL     1      -0.269   0.439 -18.721  0.00  0.00    +0.159 HD
ENDROOT
BRANCH   1  10
ATOM     10  C   UNL     1      -0.520   4.165 -17.654  0.00  0.00    +0.151 C 
BRANCH  10  11
ATOM     11  C   UNL     1       0.661   4.642 -16.854  0.00  0.00    -0.028 A 
ATOM     12  C   UNL     1       0.648   4.569 -15.453  0.00  0.00    +0.005 A 
ATOM     13  C   UNL     1       1.797   5.163 -17.491  0.00  0.00    +0.005 A 
ATOM     14  C   UNL     1       1.757   4.984 -14.711  0.00  0.00    +0.000 A 
ATOM     15  C   UNL     1       2.902   5.578 -16.746  0.00  0.00    +0.000 A 
ATOM     16  C   UNL     1       2.882   5.486 -15.357  0.00  0.00    +0.000 A 
ENDBRANCH  10  11
ENDBRANCH   1  10
TORSDOF 2
ENDMDL
MODEL 8
REMARK VINA RESULT:    -4.366      3.269      4.662
REMARK INTER + INTRA:          -5.048
REMARK INTER:                  -4.908
REMARK INTRA:                  -0.140
REMARK UNBOUND:                -0.172
REMARK  Name = 1550473
REMARK  2 active torsions:
REMARK  status: ('A' for Active; 'I' for Inactive)
REMARK    1  A    between atoms: N_1  and  C_4
REMARK    2  A    between atoms: C_4  and  C_5
REMARK                            x       y       z     vdW  Elec       q    Type
REMARK                         _______ _______ _______ _____ _____    ______ ____
ROOT
ATOM      1  N   UNL     1       4.321  -2.373  -6.011  0.00  0.00    -0.354 N 
ATOM      2  N   UNL     1       6.333  -2.390  -7.158  0.00  0.00    -0.372 N 
ATOM      3  N   UNL     1       4.385  -2.126  -8.341  0.00  0.00    -0.372 N 
ATOM      4  C   UNL     1       4.998  -2.296  -7.165  0.00  0.00    +0.166 C 
ATOM      5  H   UNL     1       4.842  -2.533  -5.157  0.00  0.00    +0.163 HD
ATOM      6  H   UNL     1       6.872  -2.331  -8.012  0.00  0.00    +0.159 HD
ATOM      7  H   UNL     1       6.855  -2.503  -6.297  0.00  0.00    +0.159 HD
ATOM      8  H   UNL     1       3.379  -2.054  -8.415  0.00  0.00    +0.159 HD
ATOM      9  H   UNL     1       4.906  -2.077  -9.208  0.00  0.00    +0.159 HD
ENDROOT
BRANCH   1  10
ATOM     10  C   UNL     1       2.870  -2.229  -5.904  0.00  0.00    +0.151 C 
BRANCH  10  11
ATOM     11  C   UNL     1       2.552  -1.315  -4.753  0.00  0.00    -0.028 A 
ATOM     12  C   UNL     1       1.267  -1.301  -4.190  0.00  0.00    +0.005 A 
ATOM     13  C   UNL     1       3.531  -0.464  -4.219  0.00  0.00    +0.005 A 
ATOM     14  C   UNL     1       0.979  -0.473  -3.102  0.00  0.00    +0.000 A 
ATOM     15  C   UNL     1       3.239   0.361  -3.133  0.00  0.00    +0.000 A 
ATOM     16  C   UNL     1       1.963   0.355  -2.573  0.00  0.00    +0.000 A 
ENDBRANCH  10  11
ENDBRANCH   1  10
TORSDOF 2
ENDMDL
MODEL 9
REMARK VINA RESULT:    -4.349      3.174      5.014
REMARK INTER + INTRA:          -5.029
REMARK INTER:                  -4.855
REMARK INTRA:                  -0.175
REMARK UNBOUND:                -0.172
REMARK  Name = 1550473
REMARK  2 active torsions:
REMARK  status: ('A' for Active; 'I' for Inactive)
REMARK    1  A    between atoms: N_1  and  C_4
REMARK    2  A    between atoms: C_4  and  C_5
REMARK                            x       y       z     vdW  Elec       q    Type
REMARK                         _______ _______ _______ _____ _____    ______ ____
ROOT
ATOM      1  N   UNL     1       4.678  -1.396  -5.371  0.00  0.00    -0.354 N 
ATOM      2  N   UNL     1       4.217  -3.372  -6.488  0.00  0.00    -0.372 N 
ATOM      3  N   UNL     1       3.497  -1.391  -7.395  0.00  0.00    -0.372 N 
ATOM      4  C   UNL     1       4.132  -2.038  -6.413  0.00  0.00    +0.166 C 
ATOM      5  H   UNL     1       5.119  -1.947  -4.643  0.00  0.00    +0.163 HD
ATOM      6  H   UNL     1       3.819  -3.883  -7.264  0.00  0.00    +0.159 HD
ATOM      7  H   UNL     1       4.699  -3.916  -5.783  0.00  0.00    +0.159 HD
ATOM      8  H   UNL     1       3.393  -0.385  -7.394  0.00  0.00    +0.159 HD
ATOM      9  H   UNL     1       3.081  -1.886  -8.174  0.00  0.00    +0.159 HD
ENDROOT
BRANCH   1  10
ATOM     10  C   UNL     1       4.687   0.058  -5.220  0.00  0.00    +0.151 C 
BRANCH  10  11
ATOM     11  C   UNL     1       3.531   0.469  -4.351  0.00  0.00    -0.028 A 
ATOM     12  C   UNL     1       3.464   0.056  -3.013  0.00  0.00    +0.005 A 
ATOM     13  C   UNL     1       2.502   1.278  -4.859  0.00  0.00    +0.005 A 
ATOM     14  C   UNL     1       2.405   0.462  -2.197  0.00  0.00    +0.000 A 
ATOM     15  C   UNL     1       1.447   1.681  -4.041  0.00  0.00    +0.000 A 
ATOM     16  C   UNL     1       1.400   1.275  -2.709  0.00  0.00    +0.000 A 
ENDBRANCH  10  11
ENDBRANCH   1  10
TORSDOF 2
ENDMDL
