MODEL 1
REMARK VINA RESULT:    -5.621      0.000      0.000
REMARK INTER + INTRA:          -6.408
REMARK INTER:                  -6.278
REMARK INTRA:                  -0.131
REMARK UNBOUND:                -0.131
REMARK  Name = 1550473
REMARK  2 active torsions:
REMARK  status: ('A' for Active; 'I' for Inactive)
REMARK    1  A    between atoms: N_1  and  C_4
REMARK    2  A    between atoms: C_4  and  C_5
REMARK                            x       y       z     vdW  Elec       q    Type
REMARK                         _______ _______ _______ _____ _____    ______ ____
ROOT
ATOM      1  N   UNL     1      -1.170   3.773   8.596  0.00  0.00    -0.354 N 
ATOM      2  N   UNL     1      -2.829   5.357   8.274  0.00  0.00    -0.372 N 
ATOM      3  N   UNL     1      -2.942   3.991  10.115  0.00  0.00    -0.372 N 
ATOM      4  C   UNL     1      -2.304   4.362   8.999  0.00  0.00    +0.166 C 
ATOM      5  H   UNL     1      -0.751   4.081   7.726  0.00  0.00    +0.163 HD
ATOM      6  H   UNL     1      -3.682   5.822   8.555  0.00  0.00    +0.159 HD
ATOM      7  H   UNL     1      -2.384   5.693   7.429  0.00  0.00    +0.159 HD
ATOM      8  H   UNL     1      -2.600   3.243  10.703  0.00  0.00    +0.159 HD
ATOM      9  H   UNL     1      -3.802   4.437  10.406  0.00  0.00    +0.159 HD
ENDROOT
BRANCH   1  10
ATOM     10  C   UNL     1      -0.487   2.718   9.341  0.00  0.00    +0.151 C 
BRANCH  10  11
ATOM     11  C   UNL     1       0.931   3.142   9.606  0.00  0.00    -0.028 A 
ATOM     12  C   UNL     1       1.884   3.124   8.577  0.00  0.00    +0.005 A 
ATOM     13  C   UNL     1       1.328   3.569  10.883  0.00  0.00    +0.005 A 
ATOM     14  C   UNL     1       3.194   3.547   8.815  0.00  0.00    +0.000 A 
ATOM     15  C   UNL     1       2.637   3.989  11.117  0.00  0.00    +0.000 A 
ATOM     16  C   UNL     1       3.569   3.980  10.082  0.00  0.00    +0.000 A 
ENDBRANCH  10  11
ENDBRANCH   1  10
TORSDOF 2
ENDMDL
MODEL 2
REMARK VINA RESULT:    -5.521      4.954      6.450
REMARK INTER + INTRA:          -6.297
REMARK INTER:                  -6.156
REMARK INTRA:                  -0.141
REMARK UNBOUND:                -0.131
REMARK  Name = 1550473
REMARK  2 active torsions:
REMARK  status: ('A' for Active; 'I' for Inactive)
REMARK    1  A    between atoms: N_1  and  C_4
REMARK    2  A    between atoms: C_4  and  C_5
REMARK                            x       y       z     vdW  Elec       q    Type
REMARK                         _______ _______ _______ _____ _____    ______ ____
ROOT
ATOM      1  N   UNL     1       5.621   6.292  10.280  0.00  0.00    -0.354 N 
ATOM      2  N   UNL     1       7.221   7.747  11.110  0.00  0.00    -0.372 N 
ATOM      3  N   UNL     1       7.268   5.551  11.773  0.00  0.00    -0.372 N 
ATOM      4  C   UNL     1       6.694   6.518  11.051  0.00  0.00    +0.166 C 
ATOM      5  H   UNL     1       5.214   7.074   9.780  0.00  0.00    +0.163 HD
ATOM      6  H   UNL     1       8.032   7.947  11.679  0.00  0.00    +0.159 HD
ATOM      7  H   UNL     1       6.839   8.517  10.573  0.00  0.00    +0.159 HD
ATOM      8  H   UNL     1       6.915   4.604  11.777  0.00  0.00    +0.159 HD
ATOM      9  H   UNL     1       8.074   5.735  12.359  0.00  0.00    +0.159 HD
ENDROOT
BRANCH   1  10
ATOM     10  C   UNL     1       5.003   4.979  10.104  0.00  0.00    +0.151 C 
BRANCH  10  11
ATOM     11  C   UNL     1       3.564   5.051  10.535  0.00  0.00    -0.028 A 
ATOM     12  C   UNL     1       2.795   6.190  10.258  0.00  0.00    +0.005 A 
ATOM     13  C   UNL     1       2.963   3.982  11.216  0.00  0.00    +0.005 A 
ATOM     14  C   UNL     1       1.450   6.246  10.631  0.00  0.00    +0.000 A 
ATOM     15  C   UNL     1       1.620   4.042  11.588  0.00  0.00    +0.000 A 
ATOM     16  C   UNL     1       0.863   5.173  11.293  0.00  0.00    +0.000 A 
ENDBRANCH  10  11
ENDBRANCH   1  10
TORSDOF 2
ENDMDL
MODEL 3
REMARK VINA RESULT:    -5.219      3.491      4.955
REMARK INTER + INTRA:          -5.960
REMARK INTER:                  -5.838
REMARK INTRA:                  -0.122
REMARK UNBOUND:                -0.131
REMARK  Name = 1550473
REMARK  2 active torsions:
REMARK  status: ('A' for Active; 'I' for Inactive)
REMARK    1  A    between atoms: N_1  and  C_4
REMARK    2  A    between atoms: C_4  and  C_5
REMARK                            x       y       z     vdW  Elec       q    Type
REMARK                         _______ _______ _______ _____ _____    ______ ____
ROOT
ATOM      1  N   UNL     1       2.905   5.916   6.896  0.00  0.00    -0.354 N 
ATOM      2  N   UNL     1       3.108   5.831   4.591  0.00  0.00    -0.372 N 
ATOM      3  N   UNL     1       4.928   5.303   5.884  0.00  0.00    -0.372 N 
ATOM      4  C   UNL     1       3.648   5.683   5.806  0.00  0.00    +0.166 C 
ATOM      5  H   UNL     1       1.950   6.231   6.770  0.00  0.00    +0.163 HD
ATOM      6  H   UNL     1       3.643   5.659   3.750  0.00  0.00    +0.159 HD
ATOM      7  H   UNL     1       2.140   6.101   4.467  0.00  0.00    +0.159 HD
ATOM      8  H   UNL     1       5.396   5.179   6.772  0.00  0.00    +0.159 HD
ATOM      9  H   UNL     1       5.483   5.137   5.054  0.00  0.00    +0.159 HD
ENDROOT
BRANCH   1  10
ATOM     10  C   UNL     1       3.382   5.732   8.266  0.00  0.00    +0.151 C 
BRANCH  10  11
ATOM     11  C   UNL     1       2.638   4.587   8.896  0.00  0.00    -0.028 A 
ATOM     12  C   UNL     1       1.974   4.758  10.120  0.00  0.00    +0.005 A 
ATOM     13  C   UNL     1       2.587   3.332   8.272  0.00  0.00    +0.005 A 
ATOM     14  C   UNL     1       1.257   3.703  10.691  0.00  0.00    +0.000 A 
ATOM     15  C   UNL     1       1.871   2.281   8.845  0.00  0.00    +0.000 A 
ATOM     16  C   UNL     1       1.204   2.468  10.054  0.00  0.00    +0.000 A 
ENDBRANCH  10  11
ENDBRANCH   1  10
TORSDOF 2
ENDMDL
MODEL 4
REMARK VINA RESULT:    -5.156      3.159      4.331
REMARK INTER + INTRA:          -5.889
REMARK INTER:                  -5.760
REMARK INTRA:                  -0.129
REMARK UNBOUND:                -0.131
REMARK  Name = 1550473
REMARK  2 active torsions:
REMARK  status: ('A' for Active; 'I' for Inactive)
REMARK    1  A    between atoms: N_1  and  C_4
REMARK    2  A    between atoms: C_4  and  C_5
REMARK                            x       y       z     vdW  Elec       q    Type
REMARK                         _______ _______ _______ _____ _____    ______ ____
ROOT
ATOM      1  N   UNL     1       2.664   3.212   9.257  0.00  0.00    -0.354 N 
ATOM      2  N   UNL     1       1.722   1.388   8.185  0.00  0.00    -0.372 N 
ATOM      3  N   UNL     1       2.052   3.323   6.997  0.00  0.00    -0.372 N 
ATOM      4  C   UNL     1       2.152   2.655   8.151  0.00  0.00    +0.166 C 
ATOM      5  H   UNL     1       2.684   2.662  10.108  0.00  0.00    +0.163 HD
ATOM      6  H   UNL     1       1.334   0.939   7.366  0.00  0.00    +0.159 HD
ATOM      7  H   UNL     1       1.786   0.825   9.025  0.00  0.00    +0.159 HD
ATOM      8  H   UNL     1       2.353   4.284   6.907  0.00  0.00    +0.159 HD
ATOM      9  H   UNL     1       1.656   2.895   6.170  0.00  0.00    +0.159 HD
ENDROOT
BRANCH   1  10
ATOM     10  C   UNL     1       3.209   4.567   9.312  0.00  0.00    +0.151 C 
BRANCH  10  11
ATOM     11  C   UNL     1       2.270   5.443  10.094  0.00  0.00    -0.028 A 
ATOM     12  C   UNL     1       2.440   6.835  10.109  0.00  0.00    +0.005 A 
ATOM     13  C   UNL     1       1.204   4.887  10.818  0.00  0.00    +0.005 A 
ATOM     14  C   UNL     1       1.550   7.652  10.811  0.00  0.00    +0.000 A 
ATOM     15  C   UNL     1       0.318   5.706  11.519  0.00  0.00    +0.000 A 
ATOM     16  C   UNL     1       0.490   7.088  11.513  0.00  0.00    +0.000 A 
ENDBRANCH  10  11
ENDBRANCH   1  10
TORSDOF 2
ENDMDL
MODEL 5
REMARK VINA RESULT:    -4.941      9.460     10.682
REMARK INTER + INTRA:          -5.650
REMARK INTER:                  -5.559
REMARK INTRA:                  -0.090
REMARK UNBOUND:                -0.131
REMARK  Name = 1550473
REMARK  2 active torsions:
REMARK  status: ('A' for Active; 'I' for Inactive)
REMARK    1  A    between atoms: N_1  and  C_4
REMARK    2  A    between atoms: C_4  and  C_5
REMARK                            x       y       z     vdW  Elec       q    Type
REMARK                         _______ _______ _______ _____ _____    ______ ____
ROOT
ATOM      1  N   UNL     1       9.517   7.345  12.652  0.00  0.00    -0.354 N 
ATOM      2  N   UNL     1       9.663   5.073  13.079  0.00  0.00    -0.372 N 
ATOM      3  N   UNL     1       9.550   6.530  14.849  0.00  0.00    -0.372 N 
ATOM      4  C   UNL     1       9.576   6.332  13.526  0.00  0.00    +0.166 C 
ATOM      5  H   UNL     1       9.571   7.130  11.662  0.00  0.00    +0.163 HD
ATOM      6  H   UNL     1       9.706   4.288  13.715  0.00  0.00    +0.159 HD
ATOM      7  H   UNL     1       9.671   4.859  12.090  0.00  0.00    +0.159 HD
ATOM      8  H   UNL     1       9.492   7.456  15.250  0.00  0.00    +0.159 HD
ATOM      9  H   UNL     1       9.604   5.758  15.501  0.00  0.00    +0.159 HD
ENDROOT
BRANCH   1  10
ATOM     10  C   UNL     1       9.366   8.748  13.034  0.00  0.00    +0.151 C 
BRANCH  10  11
ATOM     11  C   UNL     1       7.913   9.033  13.293  0.00  0.00    -0.028 A 
ATOM     12  C   UNL     1       7.482   9.435  14.566  0.00  0.00    +0.005 A 
ATOM     13  C   UNL     1       6.961   8.909  12.269  0.00  0.00    +0.005 A 
ATOM     14  C   UNL     1       6.137   9.729  14.800  0.00  0.00    +0.000 A 
ATOM     15  C   UNL     1       5.619   9.202  12.507  0.00  0.00    +0.000 A 
ATOM     16  C   UNL     1       5.207   9.615  13.772  0.00  0.00    +0.000 A 
ENDBRANCH  10  11
ENDBRANCH   1  10
TORSDOF 2
ENDMDL
MODEL 6
REMARK VINA RESULT:    -4.835      4.078      5.080
REMARK INTER + INTRA:          -5.530
REMARK INTER:                  -5.385
REMARK INTRA:                  -0.146
REMARK UNBOUND:                -0.131
REMARK  Name = 1550473
REMARK  2 active torsions:
REMARK  status: ('A' for Active; 'I' for Inactive)
REMARK    1  A    between atoms: N_1  and  C_4
REMARK    2  A    between atoms: C_4  and  C_5
REMARK                            x       y       z     vdW  Elec       q    Type
REMARK                         _______ _______ _______ _____ _____    ______ ____
ROOT
ATOM      1  N   UNL     1       3.614   6.079   5.910  0.00  0.00    -0.354 N 
ATOM      2  N   UNL     1       2.209   6.375   4.093  0.00  0.00    -0.372 N 
ATOM      3  N   UNL     1       3.608   4.557   4.129  0.00  0.00    -0.372 N 
ATOM      4  C   UNL     1       3.154   5.666   4.722  0.00  0.00    +0.166 C 
ATOM      5  H   UNL     1       3.251   6.945   6.293  0.00  0.00    +0.163 HD
ATOM      6  H   UNL     1       1.840   6.087   3.197  0.00  0.00    +0.159 HD
ATOM      7  H   UNL     1       1.815   7.216   4.499  0.00  0.00    +0.159 HD
ATOM      8  H   UNL     1       4.325   3.980   4.548  0.00  0.00    +0.159 HD
ATOM      9  H   UNL     1       3.260   4.258   3.226  0.00  0.00    +0.159 HD
ENDROOT
BRANCH   1  10
ATOM     10  C   UNL     1       4.603   5.350   6.702  0.00  0.00    +0.151 C 
BRANCH  10  11
ATOM     11  C   UNL     1       3.950   4.843   7.959  0.00  0.00    -0.028 A 
ATOM     12  C   UNL     1       2.927   3.887   7.893  0.00  0.00    +0.005 A 
ATOM     13  C   UNL     1       4.355   5.312   9.218  0.00  0.00    +0.005 A 
ATOM     14  C   UNL     1       2.340   3.394   9.061  0.00  0.00    +0.000 A 
ATOM     15  C   UNL     1       3.766   4.817  10.382  0.00  0.00    +0.000 A 
ATOM     16  C   UNL     1       2.761   3.857  10.303  0.00  0.00    +0.000 A 
ENDBRANCH  10  11
ENDBRANCH   1  10
TORSDOF 2
ENDMDL
MODEL 7
REMARK VINA RESULT:    -4.722     19.662     21.378
REMARK INTER + INTRA:          -5.405
REMARK INTER:                  -5.319
REMARK INTRA:                  -0.086
REMARK UNBOUND:                -0.131
REMARK  Name = 1550473
REMARK  2 active torsions:
REMARK  status: ('A' for Active; 'I' for Inactive)
REMARK    1  A    between atoms: N_1  and  C_4
REMARK    2  A    between atoms: C_4  and  C_5
REMARK                            x       y       z     vdW  Elec       q    Type
REMARK                         _______ _______ _______ _____ _____    ______ ____
ROOT
ATOM      1  N   UNL     1     -11.324  -8.214  -0.898  0.00  0.00    -0.354 N 
ATOM      2  N   UNL     1     -10.508  -6.378   0.254  0.00  0.00    -0.372 N 
ATOM      3  N   UNL     1      -9.595  -6.904  -1.784  0.00  0.00    -0.372 N 
ATOM      4  C   UNL     1     -10.479  -7.177  -0.819  0.00  0.00    +0.166 C 
ATOM      5  H   UNL     1     -11.950  -8.385  -0.119  0.00  0.00    +0.163 HD
ATOM      6  H   UNL     1      -9.885  -5.586   0.340  0.00  0.00    +0.159 HD
ATOM      7  H   UNL     1     -11.166  -6.524   1.010  0.00  0.00    +0.159 HD
ATOM      8  H   UNL     1      -9.518  -7.473  -2.617  0.00  0.00    +0.159 HD
ATOM      9  H   UNL     1      -8.955  -6.123  -1.711  0.00  0.00    +0.159 HD
ENDROOT
BRANCH   1  10
ATOM     10  C   UNL     1     -11.410  -9.113  -2.047  0.00  0.00    +0.151 C 
BRANCH  10  11
ATOM     11  C   UNL     1     -12.421  -8.572  -3.020  0.00  0.00    -0.028 A 
ATOM     12  C   UNL     1     -12.319  -8.862  -4.388  0.00  0.00    +0.005 A 
ATOM     13  C   UNL     1     -13.486  -7.772  -2.579  0.00  0.00    +0.005 A 
ATOM     14  C   UNL     1     -13.275  -8.384  -5.288  0.00  0.00    +0.000 A 
ATOM     15  C   UNL     1     -14.438  -7.296  -3.481  0.00  0.00    +0.000 A 
ATOM     16  C   UNL     1     -14.333  -7.604  -4.835  0.00  0.00    +0.000 A 
ENDBRANCH  10  11
ENDBRANCH   1  10
TORSDOF 2
ENDMDL
MODEL 8
REMARK VINA RESULT:    -4.710     10.150     11.432
REMARK INTER + INTRA:          -5.391
REMARK INTER:                  -5.273
REMARK INTRA:                  -0.118
REMARK UNBOUND:                -0.131
REMARK  Name = 1550473
REMARK  2 active torsions:
REMARK  status: ('A' for Active; 'I' for Inactive)
REMARK    1  A    between atoms: N_1  and  C_4
REMARK    2  A    between atoms: C_4  and  C_5
REMARK                            x       y       z     vdW  Elec       q    Type
REMARK                         _______ _______ _______ _____ _____    ______ ____
ROOT
ATOM      1  N   UNL     1      -5.466  11.968  12.610  0.00  0.00    -0.354 N 
ATOM      2  N   UNL     1      -6.798  10.141  12.110  0.00  0.00    -0.372 N 
ATOM      3  N   UNL     1      -5.320   9.990  13.859  0.00  0.00    -0.372 N 
ATOM      4  C   UNL     1      -5.851  10.711  12.865  0.00  0.00    +0.166 C 
ATOM      5  H   UNL     1      -5.886  12.450  11.824  0.00  0.00    +0.163 HD
ATOM      6  H   UNL     1      -7.112   9.195  12.281  0.00  0.00    +0.159 HD
ATOM      7  H   UNL     1      -7.249  10.641  11.354  0.00  0.00    +0.159 HD
ATOM      8  H   UNL     1      -4.597  10.360  14.461  0.00  0.00    +0.159 HD
ATOM      9  H   UNL     1      -5.612   9.038  14.038  0.00  0.00    +0.159 HD
ENDROOT
BRANCH   1  10
ATOM     10  C   UNL     1      -4.481  12.699  13.406  0.00  0.00    +0.151 C 
BRANCH  10  11
ATOM     11  C   UNL     1      -4.012  13.897  12.627  0.00  0.00    -0.028 A 
ATOM     12  C   UNL     1      -3.817  13.813  11.241  0.00  0.00    +0.005 A 
ATOM     13  C   UNL     1      -3.765  15.120  13.269  0.00  0.00    +0.005 A 
ATOM     14  C   UNL     1      -3.410  14.934  10.513  0.00  0.00    +0.000 A 
ATOM     15  C   UNL     1      -3.358  16.236  12.539  0.00  0.00    +0.000 A 
ATOM     16  C   UNL     1      -3.183  16.143  11.160  0.00  0.00    +0.000 A 
ENDBRANCH  10  11
ENDBRANCH   1  10
TORSDOF 2
ENDMDL
MODEL 9
REMARK VINA RESULT:    -4.676     21.377     22.690
REMARK INTER + INTRA:          -5.354
REMARK INTER:                  -5.178
REMARK INTRA:                  -0.176
REMARK UNBOUND:                -0.131
REMARK  Name = 1550473
REMARK  2 active torsions:
REMARK  status: ('A' for Active; 'I' for Inactive)
REMARK    1  A    between atoms: N_1  and  C_4
REMARK    2  A    between atoms: C_4  and  C_5
REMARK                            x       y       z     vdW  Elec       q    Type
REMARK                         _______ _______ _______ _____ _____    ______ ____
ROOT
ATOM      1  N   UNL     1       7.961  -5.636  -8.343  0.00  0.00    -0.354 N 
ATOM      2  N   UNL     1       9.364  -4.149  -9.430  0.00  0.00    -0.372 N 
ATOM      3  N   UNL     1       9.972  -4.939  -7.363  0.00  0.00    -0.372 N 
ATOM      4  C   UNL     1       9.091  -4.918  -8.369  0.00  0.00    +0.166 C 
ATOM      5  H   UNL     1       7.320  -5.554  -9.123  0.00  0.00    +0.163 HD
ATOM      6  H   UNL     1      10.211  -3.598  -9.479  0.00  0.00    +0.159 HD
ATOM      7  H   UNL     1       8.744  -4.104 -10.229  0.00  0.00    +0.159 HD
ATOM      8  H   UNL     1       9.822  -5.494  -6.531  0.00  0.00    +0.159 HD
ATOM      9  H   UNL     1      10.819  -4.385  -7.389  0.00  0.00    +0.159 HD
ENDROOT
BRANCH   1  10
ATOM     10  C   UNL     1       7.595  -6.546  -7.259  0.00  0.00    +0.151 C 
BRANCH  10  11
ATOM     11  C   UNL     1       7.776  -7.964  -7.726  0.00  0.00    -0.028 A 
ATOM     12  C   UNL     1       9.003  -8.621  -7.549  0.00  0.00    +0.005 A 
ATOM     13  C   UNL     1       6.723  -8.659  -8.340  0.00  0.00    +0.005 A 
ATOM     14  C   UNL     1       9.163  -9.948  -7.956  0.00  0.00    +0.000 A 
ATOM     15  C   UNL     1       6.887  -9.983  -8.746  0.00  0.00    +0.000 A 
ATOM     16  C   UNL     1       8.106 -10.628  -8.551  0.00  0.00    +0.000 A 
ENDBRANCH  10  11
ENDBRANCH   1  10
TORSDOF 2
ENDMDL
