MODEL 1
REMARK VINA RESULT:    -5.066      0.000      0.000
REMARK INTER + INTRA:          -5.803
REMARK INTER:                  -5.658
REMARK INTRA:                  -0.145
REMARK UNBOUND:                -0.145
REMARK  Name = 1550473
REMARK  2 active torsions:
REMARK  status: ('A' for Active; 'I' for Inactive)
REMARK    1  A    between atoms: N_1  and  C_4
REMARK    2  A    between atoms: C_4  and  C_5
REMARK                            x       y       z     vdW  Elec       q    Type
REMARK                         _______ _______ _______ _____ _____    ______ ____
ROOT
ATOM      1  N   UNL     1     -19.089 -10.353 -32.516  0.00  0.00    -0.354 N 
ATOM      2  N   UNL     1     -20.821 -10.352 -34.054  0.00  0.00    -0.372 N 
ATOM      3  N   UNL     1     -18.895 -11.494 -34.554  0.00  0.00    -0.372 N 
ATOM      4  C   UNL     1     -19.588 -10.735 -33.699  0.00  0.00    +0.166 C 
ATOM      5  H   UNL     1     -19.654  -9.753 -31.926  0.00  0.00    +0.163 HD
ATOM      6  H   UNL     1     -21.225 -10.627 -34.939  0.00  0.00    +0.159 HD
ATOM      7  H   UNL     1     -21.401  -9.790 -33.443  0.00  0.00    +0.159 HD
ATOM      8  H   UNL     1     -17.957 -11.811 -34.348  0.00  0.00    +0.159 HD
ATOM      9  H   UNL     1     -19.278 -11.770 -35.449  0.00  0.00    +0.159 HD
ENDROOT
BRANCH   1  10
ATOM     10  C   UNL     1     -17.779 -10.760 -32.012  0.00  0.00    +0.151 C 
BRANCH  10  11
ATOM     11  C   UNL     1     -17.954 -11.448 -30.686  0.00  0.00    -0.028 A 
ATOM     12  C   UNL     1     -17.258 -11.001 -29.554  0.00  0.00    +0.005 A 
ATOM     13  C   UNL     1     -18.820 -12.545 -30.555  0.00  0.00    +0.005 A 
ATOM     14  C   UNL     1     -17.443 -11.621 -28.316  0.00  0.00    +0.000 A 
ATOM     15  C   UNL     1     -19.002 -13.162 -29.317  0.00  0.00    +0.000 A 
ATOM     16  C   UNL     1     -18.315 -12.698 -28.197  0.00  0.00    +0.000 A 
ENDBRANCH  10  11
ENDBRANCH   1  10
TORSDOF 2
ENDMDL
MODEL 2
REMARK VINA RESULT:    -4.913     23.571     24.721
REMARK INTER + INTRA:          -5.633
REMARK INTER:                  -5.519
REMARK INTRA:                  -0.114
REMARK UNBOUND:                -0.145
REMARK  Name = 1550473
REMARK  2 active torsions:
REMARK  status: ('A' for Active; 'I' for Inactive)
REMARK    1  A    between atoms: N_1  and  C_4
REMARK    2  A    between atoms: C_4  and  C_5
REMARK                            x       y       z     vdW  Elec       q    Type
REMARK                         _______ _______ _______ _____ _____    ______ ____
ROOT
ATOM      1  N   UNL     1     -37.754 -14.619 -15.277  0.00  0.00    -0.354 N 
ATOM      2  N   UNL     1     -38.439 -16.614 -16.234  0.00  0.00    -0.372 N 
ATOM      3  N   UNL     1     -39.993 -15.305 -15.167  0.00  0.00    -0.372 N 
ATOM      4  C   UNL     1     -38.727 -15.499 -15.552  0.00  0.00    +0.166 C 
ATOM      5  H   UNL     1     -36.809 -14.840 -15.570  0.00  0.00    +0.163 HD
ATOM      6  H   UNL     1     -39.153 -17.295 -16.459  0.00  0.00    +0.159 HD
ATOM      7  H   UNL     1     -37.503 -16.810 -16.565  0.00  0.00    +0.159 HD
ATOM      8  H   UNL     1     -40.274 -14.486 -14.645  0.00  0.00    +0.159 HD
ATOM      9  H   UNL     1     -40.719 -15.980 -15.373  0.00  0.00    +0.159 HD
ENDROOT
BRANCH   1  10
ATOM     10  C   UNL     1     -37.972 -13.349 -14.588  0.00  0.00    +0.151 C 
BRANCH  10  11
ATOM     11  C   UNL     1     -37.119 -12.290 -15.229  0.00  0.00    -0.028 A 
ATOM     12  C   UNL     1     -35.893 -11.920 -14.657  0.00  0.00    +0.005 A 
ATOM     13  C   UNL     1     -37.528 -11.656 -16.412  0.00  0.00    +0.005 A 
ATOM     14  C   UNL     1     -35.086 -10.957 -15.268  0.00  0.00    +0.000 A 
ATOM     15  C   UNL     1     -36.720 -10.695 -17.019  0.00  0.00    +0.000 A 
ATOM     16  C   UNL     1     -35.498 -10.348 -16.448  0.00  0.00    +0.000 A 
ENDBRANCH  10  11
ENDBRANCH   1  10
TORSDOF 2
ENDMDL
MODEL 3
REMARK VINA RESULT:    -4.820      1.580      1.972
REMARK INTER + INTRA:          -5.529
REMARK INTER:                  -5.364
REMARK INTRA:                  -0.164
REMARK UNBOUND:                -0.145
REMARK  Name = 1550473
REMARK  2 active torsions:
REMARK  status: ('A' for Active; 'I' for Inactive)
REMARK    1  A    between atoms: N_1  and  C_4
REMARK    2  A    between atoms: C_4  and  C_5
REMARK                            x       y       z     vdW  Elec       q    Type
REMARK                         _______ _______ _______ _____ _____    ______ ____
ROOT
ATOM      1  N   UNL     1     -18.218 -12.310 -33.007  0.00  0.00    -0.354 N 
ATOM      2  N   UNL     1     -18.110 -13.994 -34.593  0.00  0.00    -0.372 N 
ATOM      3  N   UNL     1     -20.140 -13.486 -33.652  0.00  0.00    -0.372 N 
ATOM      4  C   UNL     1     -18.826 -13.253 -33.739  0.00  0.00    +0.166 C 
ATOM      5  H   UNL     1     -17.214 -12.203 -33.097  0.00  0.00    +0.163 HD
ATOM      6  H   UNL     1     -18.541 -14.711 -35.161  0.00  0.00    +0.159 HD
ATOM      7  H   UNL     1     -17.114 -13.854 -34.715  0.00  0.00    +0.159 HD
ATOM      8  H   UNL     1     -20.736 -12.965 -33.022  0.00  0.00    +0.159 HD
ATOM      9  H   UNL     1     -20.588 -14.206 -34.204  0.00  0.00    +0.159 HD
ENDROOT
BRANCH   1  10
ATOM     10  C   UNL     1     -18.916 -11.413 -32.087  0.00  0.00    +0.151 C 
BRANCH  10  11
ATOM     11  C   UNL     1     -18.555 -11.779 -30.674  0.00  0.00    -0.028 A 
ATOM     12  C   UNL     1     -17.660 -10.987 -29.940  0.00  0.00    +0.005 A 
ATOM     13  C   UNL     1     -19.109 -12.914 -30.062  0.00  0.00    +0.005 A 
ATOM     14  C   UNL     1     -17.348 -11.311 -28.617  0.00  0.00    +0.000 A 
ATOM     15  C   UNL     1     -18.794 -13.234 -28.742  0.00  0.00    +0.000 A 
ATOM     16  C   UNL     1     -17.916 -12.431 -28.019  0.00  0.00    +0.000 A 
ENDBRANCH  10  11
ENDBRANCH   1  10
TORSDOF 2
ENDMDL
MODEL 4
REMARK VINA RESULT:    -4.808     24.061     25.327
REMARK INTER + INTRA:          -5.515
REMARK INTER:                  -5.368
REMARK INTRA:                  -0.147
REMARK UNBOUND:                -0.145
REMARK  Name = 1550473
REMARK  2 active torsions:
REMARK  status: ('A' for Active; 'I' for Inactive)
REMARK    1  A    between atoms: N_1  and  C_4
REMARK    2  A    between atoms: C_4  and  C_5
REMARK                            x       y       z     vdW  Elec       q    Type
REMARK                         _______ _______ _______ _____ _____    ______ ____
ROOT
ATOM      1  N   UNL     1      -8.033  -1.279 -11.019  0.00  0.00    -0.354 N 
ATOM      2  N   UNL     1      -9.192  -3.242 -11.425  0.00  0.00    -0.372 N 
ATOM      3  N   UNL     1     -10.370  -1.287 -11.195  0.00  0.00    -0.372 N 
ATOM      4  C   UNL     1      -9.193  -1.921 -11.210  0.00  0.00    +0.166 C 
ATOM      5  H   UNL     1      -7.178  -1.822 -11.011  0.00  0.00    +0.163 HD
ATOM      6  H   UNL     1     -10.051  -3.754 -11.576  0.00  0.00    +0.159 HD
ATOM      7  H   UNL     1      -8.332  -3.776 -11.463  0.00  0.00    +0.159 HD
ATOM      8  H   UNL     1     -10.439  -0.291 -11.033  0.00  0.00    +0.159 HD
ATOM      9  H   UNL     1     -11.242  -1.783 -11.333  0.00  0.00    +0.159 HD
ENDROOT
BRANCH   1  10
ATOM     10  C   UNL     1      -7.920   0.166 -10.830  0.00  0.00    +0.151 C 
BRANCH  10  11
ATOM     11  C   UNL     1      -7.000   0.728 -11.878  0.00  0.00    -0.028 A 
ATOM     12  C   UNL     1      -6.159  -0.118 -12.615  0.00  0.00    +0.005 A 
ATOM     13  C   UNL     1      -6.968   2.106 -12.143  0.00  0.00    +0.005 A 
ATOM     14  C   UNL     1      -5.325   0.399 -13.609  0.00  0.00    +0.000 A 
ATOM     15  C   UNL     1      -6.134   2.619 -13.136  0.00  0.00    +0.000 A 
ATOM     16  C   UNL     1      -5.315   1.765 -13.871  0.00  0.00    +0.000 A 
ENDBRANCH  10  11
ENDBRANCH   1  10
TORSDOF 2
ENDMDL
MODEL 5
REMARK VINA RESULT:    -4.802     15.487     16.313
REMARK INTER + INTRA:          -5.508
REMARK INTER:                  -5.366
REMARK INTRA:                  -0.142
REMARK UNBOUND:                -0.145
REMARK  Name = 1550473
REMARK  2 active torsions:
REMARK  status: ('A' for Active; 'I' for Inactive)
REMARK    1  A    between atoms: N_1  and  C_4
REMARK    2  A    between atoms: C_4  and  C_5
REMARK                            x       y       z     vdW  Elec       q    Type
REMARK                         _______ _______ _______ _____ _____    ______ ____
ROOT
ATOM      1  N   UNL     1     -19.518   2.086 -23.603  0.00  0.00    -0.354 N 
ATOM      2  N   UNL     1     -17.894   0.612 -24.348  0.00  0.00    -0.372 N 
ATOM      3  N   UNL     1     -18.606   2.280 -25.753  0.00  0.00    -0.372 N 
ATOM      4  C   UNL     1     -18.684   1.670 -24.565  0.00  0.00    +0.166 C 
ATOM      5  H   UNL     1     -19.551   1.562 -22.736  0.00  0.00    +0.163 HD
ATOM      6  H   UNL     1     -17.252   0.277 -25.054  0.00  0.00    +0.159 HD
ATOM      7  H   UNL     1     -17.897   0.118 -23.463  0.00  0.00    +0.159 HD
ATOM      8  H   UNL     1     -19.179   3.081 -25.982  0.00  0.00    +0.159 HD
ATOM      9  H   UNL     1     -17.978   1.953 -26.476  0.00  0.00    +0.159 HD
ENDROOT
BRANCH   1  10
ATOM     10  C   UNL     1     -20.380   3.260 -23.719  0.00  0.00    +0.151 C 
BRANCH  10  11
ATOM     11  C   UNL     1     -21.780   2.883 -23.319  0.00  0.00    -0.028 A 
ATOM     12  C   UNL     1     -22.531   3.721 -22.482  0.00  0.00    +0.005 A 
ATOM     13  C   UNL     1     -22.363   1.693 -23.779  0.00  0.00    +0.005 A 
ATOM     14  C   UNL     1     -23.842   3.386 -22.134  0.00  0.00    +0.000 A 
ATOM     15  C   UNL     1     -23.672   1.361 -23.429  0.00  0.00    +0.000 A 
ATOM     16  C   UNL     1     -24.412   2.209 -22.609  0.00  0.00    +0.000 A 
ENDBRANCH  10  11
ENDBRANCH   1  10
TORSDOF 2
ENDMDL
MODEL 6
REMARK VINA RESULT:    -4.784     14.510     15.374
REMARK INTER + INTRA:          -5.489
REMARK INTER:                  -5.330
REMARK INTRA:                  -0.159
REMARK UNBOUND:                -0.145
REMARK  Name = 1550473
REMARK  2 active torsions:
REMARK  status: ('A' for Active; 'I' for Inactive)
REMARK    1  A    between atoms: N_1  and  C_4
REMARK    2  A    between atoms: C_4  and  C_5
REMARK                            x       y       z     vdW  Elec       q    Type
REMARK                         _______ _______ _______ _____ _____    ______ ____
ROOT
ATOM      1  N   UNL     1     -19.257   1.259 -24.627  0.00  0.00    -0.354 N 
ATOM      2  N   UNL     1     -18.054  -0.690 -24.969  0.00  0.00    -0.372 N 
ATOM      3  N   UNL     1     -19.297   0.164 -26.698  0.00  0.00    -0.372 N 
ATOM      4  C   UNL     1     -18.879   0.257 -25.432  0.00  0.00    +0.166 C 
ATOM      5  H   UNL     1     -18.929   1.256 -23.668  0.00  0.00    +0.163 HD
ATOM      6  H   UNL     1     -17.749  -1.456 -25.554  0.00  0.00    +0.159 HD
ATOM      7  H   UNL     1     -17.691  -0.666 -24.024  0.00  0.00    +0.159 HD
ATOM      8  H   UNL     1     -19.925   0.844 -27.106  0.00  0.00    +0.159 HD
ATOM      9  H   UNL     1     -19.012  -0.602 -27.296  0.00  0.00    +0.159 HD
ENDROOT
BRANCH   1  10
ATOM     10  C   UNL     1     -20.108   2.370 -25.049  0.00  0.00    +0.151 C 
BRANCH  10  11
ATOM     11  C   UNL     1     -21.370   2.359 -24.231  0.00  0.00    -0.028 A 
ATOM     12  C   UNL     1     -22.295   1.313 -24.362  0.00  0.00    +0.005 A 
ATOM     13  C   UNL     1     -21.645   3.390 -23.319  0.00  0.00    +0.005 A 
ATOM     14  C   UNL     1     -23.453   1.287 -23.581  0.00  0.00    +0.000 A 
ATOM     15  C   UNL     1     -22.803   3.361 -22.542  0.00  0.00    +0.000 A 
ATOM     16  C   UNL     1     -23.705   2.308 -22.671  0.00  0.00    +0.000 A 
ENDBRANCH  10  11
ENDBRANCH   1  10
TORSDOF 2
ENDMDL
MODEL 7
REMARK VINA RESULT:    -4.701     18.946     20.525
REMARK INTER + INTRA:          -5.396
REMARK INTER:                  -5.235
REMARK INTRA:                  -0.161
REMARK UNBOUND:                -0.145
REMARK  Name = 1550473
REMARK  2 active torsions:
REMARK  status: ('A' for Active; 'I' for Inactive)
REMARK    1  A    between atoms: N_1  and  C_4
REMARK    2  A    between atoms: C_4  and  C_5
REMARK                            x       y       z     vdW  Elec       q    Type
REMARK                         _______ _______ _______ _____ _____    ______ ____
ROOT
ATOM      1  N   UNL     1      -7.951 -10.318 -15.697  0.00  0.00    -0.354 N 
ATOM      2  N   UNL     1      -9.809 -10.937 -14.460  0.00  0.00    -0.372 N 
ATOM      3  N   UNL     1      -8.577 -12.568 -15.502  0.00  0.00    -0.372 N 
ATOM      4  C   UNL     1      -8.766 -11.273 -15.228  0.00  0.00    +0.166 C 
ATOM      5  H   UNL     1      -8.167  -9.352 -15.478  0.00  0.00    +0.163 HD
ATOM      6  H   UNL     1     -10.439 -11.636 -14.089  0.00  0.00    +0.159 HD
ATOM      7  H   UNL     1      -9.995  -9.975 -14.205  0.00  0.00    +0.159 HD
ATOM      8  H   UNL     1      -7.811 -12.887 -16.081  0.00  0.00    +0.159 HD
ATOM      9  H   UNL     1      -9.203 -13.281 -15.150  0.00  0.00    +0.159 HD
ENDROOT
BRANCH   1  10
ATOM     10  C   UNL     1      -6.757 -10.583 -16.498  0.00  0.00    +0.151 C 
BRANCH  10  11
ATOM     11  C   UNL     1      -5.543 -10.136 -15.731  0.00  0.00    -0.028 A 
ATOM     12  C   UNL     1      -4.864  -8.963 -16.093  0.00  0.00    +0.005 A 
ATOM     13  C   UNL     1      -5.069 -10.879 -14.639  0.00  0.00    +0.005 A 
ATOM     14  C   UNL     1      -3.754  -8.532 -15.363  0.00  0.00    +0.000 A 
ATOM     15  C   UNL     1      -3.960 -10.445 -13.913  0.00  0.00    +0.000 A 
ATOM     16  C   UNL     1      -3.304  -9.270 -14.273  0.00  0.00    +0.000 A 
ENDBRANCH  10  11
ENDBRANCH   1  10
TORSDOF 2
ENDMDL
MODEL 8
REMARK VINA RESULT:    -4.550     34.580     36.308
REMARK INTER + INTRA:          -5.227
REMARK INTER:                  -5.089
REMARK INTRA:                  -0.138
REMARK UNBOUND:                -0.145
REMARK  Name = 1550473
REMARK  2 active torsions:
REMARK  status: ('A' for Active; 'I' for Inactive)
REMARK    1  A    between atoms: N_1  and  C_4
REMARK    2  A    between atoms: C_4  and  C_5
REMARK                            x       y       z     vdW  Elec       q    Type
REMARK                         _______ _______ _______ _____ _____    ______ ____
ROOT
ATOM      1  N   UNL     1     -15.187   3.062   3.414  0.00  0.00    -0.354 N 
ATOM      2  N   UNL     1     -15.544   2.915   5.698  0.00  0.00    -0.372 N 
ATOM      3  N   UNL     1     -17.248   3.664   4.355  0.00  0.00    -0.372 N 
ATOM      4  C   UNL     1     -15.993   3.216   4.473  0.00  0.00    +0.166 C 
ATOM      5  H   UNL     1     -14.237   2.747   3.574  0.00  0.00    +0.163 HD
ATOM      6  H   UNL     1     -16.130   3.018   6.516  0.00  0.00    +0.159 HD
ATOM      7  H   UNL     1     -14.609   2.557   5.850  0.00  0.00    +0.159 HD
ATOM      8  H   UNL     1     -17.645   3.914   3.460  0.00  0.00    +0.159 HD
ATOM      9  H   UNL     1     -17.846   3.785   5.163  0.00  0.00    +0.159 HD
ENDROOT
BRANCH   1  10
ATOM     10  C   UNL     1     -15.596   3.310   2.033  0.00  0.00    +0.151 C 
BRANCH  10  11
ATOM     11  C   UNL     1     -15.229   2.120   1.191  0.00  0.00    -0.028 A 
ATOM     12  C   UNL     1     -14.809   2.289  -0.136  0.00  0.00    +0.005 A 
ATOM     13  C   UNL     1     -15.295   0.820   1.716  0.00  0.00    +0.005 A 
ATOM     14  C   UNL     1     -14.439   1.186  -0.910  0.00  0.00    +0.000 A 
ATOM     15  C   UNL     1     -14.925  -0.279   0.940  0.00  0.00    +0.000 A 
ATOM     16  C   UNL     1     -14.495  -0.095  -0.371  0.00  0.00    +0.000 A 
ENDBRANCH  10  11
ENDBRANCH   1  10
TORSDOF 2
ENDMDL
MODEL 9
REMARK VINA RESULT:    -4.471     14.434     15.350
REMARK INTER + INTRA:          -5.139
REMARK INTER:                  -5.010
REMARK INTRA:                  -0.129
REMARK UNBOUND:                -0.145
REMARK  Name = 1550473
REMARK  2 active torsions:
REMARK  status: ('A' for Active; 'I' for Inactive)
REMARK    1  A    between atoms: N_1  and  C_4
REMARK    2  A    between atoms: C_4  and  C_5
REMARK                            x       y       z     vdW  Elec       q    Type
REMARK                         _______ _______ _______ _____ _____    ______ ____
ROOT
ATOM      1  N   UNL     1     -18.741   1.401 -25.792  0.00  0.00    -0.354 N 
ATOM      2  N   UNL     1     -17.788  -0.618 -26.409  0.00  0.00    -0.372 N 
ATOM      3  N   UNL     1     -19.980  -0.587 -25.729  0.00  0.00    -0.372 N 
ATOM      4  C   UNL     1     -18.845   0.078 -25.971  0.00  0.00    +0.166 C 
ATOM      5  H   UNL     1     -17.844   1.841 -25.965  0.00  0.00    +0.163 HD
ATOM      6  H   UNL     1     -17.838  -1.617 -26.557  0.00  0.00    +0.159 HD
ATOM      7  H   UNL     1     -16.907  -0.168 -26.625  0.00  0.00    +0.159 HD
ATOM      8  H   UNL     1     -20.811  -0.121 -25.391  0.00  0.00    +0.159 HD
ATOM      9  H   UNL     1     -20.046  -1.589 -25.860  0.00  0.00    +0.159 HD
ENDROOT
BRANCH   1  10
ATOM     10  C   UNL     1     -19.847   2.259 -25.370  0.00  0.00    +0.151 C 
BRANCH  10  11
ATOM     11  C   UNL     1     -19.691   2.580 -23.909  0.00  0.00    -0.028 A 
ATOM     12  C   UNL     1     -18.451   2.420 -23.274  0.00  0.00    +0.005 A 
ATOM     13  C   UNL     1     -20.778   3.050 -23.156  0.00  0.00    +0.005 A 
ATOM     14  C   UNL     1     -18.298   2.747 -21.924  0.00  0.00    +0.000 A 
ATOM     15  C   UNL     1     -20.621   3.374 -21.809  0.00  0.00    +0.000 A 
ATOM     16  C   UNL     1     -19.380   3.225 -21.194  0.00  0.00    +0.000 A 
ENDBRANCH  10  11
ENDBRANCH   1  10
TORSDOF 2
ENDMDL
