MODEL 1
REMARK VINA RESULT:    -5.506      0.000      0.000
REMARK INTER + INTRA:          -6.281
REMARK INTER:                  -6.150
REMARK INTRA:                  -0.132
REMARK UNBOUND:                -0.132
REMARK  Name = 1550473
REMARK  2 active torsions:
REMARK  status: ('A' for Active; 'I' for Inactive)
REMARK    1  A    between atoms: N_1  and  C_4
REMARK    2  A    between atoms: C_4  and  C_5
REMARK                            x       y       z     vdW  Elec       q    Type
REMARK                         _______ _______ _______ _____ _____    ______ ____
ROOT
ATOM      1  N   UNL     1      14.061  11.770   7.481  0.00  0.00    -0.354 N 
ATOM      2  N   UNL     1      14.477  10.263   5.773  0.00  0.00    -0.372 N 
ATOM      3  N   UNL     1      14.229   9.473   7.913  0.00  0.00    -0.372 N 
ATOM      4  C   UNL     1      14.253  10.510   7.069  0.00  0.00    +0.166 C 
ATOM      5  H   UNL     1      14.122  12.515   6.797  0.00  0.00    +0.163 HD
ATOM      6  H   UNL     1      14.622   9.323   5.432  0.00  0.00    +0.159 HD
ATOM      7  H   UNL     1      14.491  11.005   5.084  0.00  0.00    +0.159 HD
ATOM      8  H   UNL     1      14.071   9.593   8.904  0.00  0.00    +0.159 HD
ATOM      9  H   UNL     1      14.383   8.525   7.592  0.00  0.00    +0.159 HD
ENDROOT
BRANCH   1  10
ATOM     10  C   UNL     1      13.756  12.142   8.862  0.00  0.00    +0.151 C 
BRANCH  10  11
ATOM     11  C   UNL     1      12.484  12.942   8.886  0.00  0.00    -0.028 A 
ATOM     12  C   UNL     1      11.640  12.972   7.766  0.00  0.00    +0.005 A 
ATOM     13  C   UNL     1      12.113  13.668  10.029  0.00  0.00    +0.005 A 
ATOM     14  C   UNL     1      10.443  13.692   7.799  0.00  0.00    +0.000 A 
ATOM     15  C   UNL     1      10.917  14.386  10.057  0.00  0.00    +0.000 A 
ATOM     16  C   UNL     1      10.081  14.395   8.943  0.00  0.00    +0.000 A 
ENDBRANCH  10  11
ENDBRANCH   1  10
TORSDOF 2
ENDMDL
MODEL 2
REMARK VINA RESULT:    -4.933      1.955      2.526
REMARK INTER + INTRA:          -5.641
REMARK INTER:                  -5.524
REMARK INTRA:                  -0.118
REMARK UNBOUND:                -0.132
REMARK  Name = 1550473
REMARK  2 active torsions:
REMARK  status: ('A' for Active; 'I' for Inactive)
REMARK    1  A    between atoms: N_1  and  C_4
REMARK    2  A    between atoms: C_4  and  C_5
REMARK                            x       y       z     vdW  Elec       q    Type
REMARK                         _______ _______ _______ _____ _____    ______ ____
ROOT
ATOM      1  N   UNL     1      15.370  12.394   6.906  0.00  0.00    -0.354 N 
ATOM      2  N   UNL     1      17.019  13.436   5.656  0.00  0.00    -0.372 N 
ATOM      3  N   UNL     1      16.623  11.200   5.326  0.00  0.00    -0.372 N 
ATOM      4  C   UNL     1      16.327  12.334   5.970  0.00  0.00    +0.166 C 
ATOM      5  H   UNL     1      15.215  13.277   7.379  0.00  0.00    +0.163 HD
ATOM      6  H   UNL     1      17.745  13.422   4.952  0.00  0.00    +0.159 HD
ATOM      7  H   UNL     1      16.830  14.327   6.098  0.00  0.00    +0.159 HD
ATOM      8  H   UNL     1      16.142  10.332   5.520  0.00  0.00    +0.159 HD
ATOM      9  H   UNL     1      17.354  11.163   4.626  0.00  0.00    +0.159 HD
ENDROOT
BRANCH   1  10
ATOM     10  C   UNL     1      14.523  11.264   7.282  0.00  0.00    +0.151 C 
BRANCH  10  11
ATOM     11  C   UNL     1      13.240  11.786   7.869  0.00  0.00    -0.028 A 
ATOM     12  C   UNL     1      12.529  12.811   7.227  0.00  0.00    +0.005 A 
ATOM     13  C   UNL     1      12.729  11.257   9.064  0.00  0.00    +0.005 A 
ATOM     14  C   UNL     1      11.322  13.275   7.756  0.00  0.00    +0.000 A 
ATOM     15  C   UNL     1      11.524  11.724   9.589  0.00  0.00    +0.000 A 
ATOM     16  C   UNL     1      10.820  12.732   8.933  0.00  0.00    +0.000 A 
ENDBRANCH  10  11
ENDBRANCH   1  10
TORSDOF 2
ENDMDL
MODEL 3
REMARK VINA RESULT:    -4.922      7.849      9.484
REMARK INTER + INTRA:          -5.629
REMARK INTER:                  -5.504
REMARK INTRA:                  -0.125
REMARK UNBOUND:                -0.132
REMARK  Name = 1550473
REMARK  2 active torsions:
REMARK  status: ('A' for Active; 'I' for Inactive)
REMARK    1  A    between atoms: N_1  and  C_4
REMARK    2  A    between atoms: C_4  and  C_5
REMARK                            x       y       z     vdW  Elec       q    Type
REMARK                         _______ _______ _______ _____ _____    ______ ____
ROOT
ATOM      1  N   UNL     1      13.582   2.296  11.644  0.00  0.00    -0.354 N 
ATOM      2  N   UNL     1      13.232   0.517  13.086  0.00  0.00    -0.372 N 
ATOM      3  N   UNL     1      12.063   0.592  11.112  0.00  0.00    -0.372 N 
ATOM      4  C   UNL     1      12.959   1.146  11.936  0.00  0.00    +0.166 C 
ATOM      5  H   UNL     1      14.229   2.679  12.325  0.00  0.00    +0.163 HD
ATOM      6  H   UNL     1      12.780  -0.354  13.332  0.00  0.00    +0.159 HD
ATOM      7  H   UNL     1      13.912   0.879  13.743  0.00  0.00    +0.159 HD
ATOM      8  H   UNL     1      11.809   1.020  10.232  0.00  0.00    +0.159 HD
ATOM      9  H   UNL     1      11.592  -0.273  11.346  0.00  0.00    +0.159 HD
ENDROOT
BRANCH   1  10
ATOM     10  C   UNL     1      13.397   3.032  10.395  0.00  0.00    +0.151 C 
BRANCH  10  11
ATOM     11  C   UNL     1      13.659   4.492  10.642  0.00  0.00    -0.028 A 
ATOM     12  C   UNL     1      13.164   5.463   9.759  0.00  0.00    +0.005 A 
ATOM     13  C   UNL     1      14.396   4.911  11.760  0.00  0.00    +0.005 A 
ATOM     14  C   UNL     1      13.381   6.821  10.004  0.00  0.00    +0.000 A 
ATOM     15  C   UNL     1      14.612   6.268  12.000  0.00  0.00    +0.000 A 
ATOM     16  C   UNL     1      14.102   7.223  11.124  0.00  0.00    +0.000 A 
ENDBRANCH  10  11
ENDBRANCH   1  10
TORSDOF 2
ENDMDL
MODEL 4
REMARK VINA RESULT:    -4.685     43.611     44.737
REMARK INTER + INTRA:          -5.364
REMARK INTER:                  -5.211
REMARK INTRA:                  -0.153
REMARK UNBOUND:                -0.132
REMARK  Name = 1550473
REMARK  2 active torsions:
REMARK  status: ('A' for Active; 'I' for Inactive)
REMARK    1  A    between atoms: N_1  and  C_4
REMARK    2  A    between atoms: C_4  and  C_5
REMARK                            x       y       z     vdW  Elec       q    Type
REMARK                         _______ _______ _______ _____ _____    ______ ____
ROOT
ATOM      1  N   UNL     1     -23.920  -2.749  -8.305  0.00  0.00    -0.354 N 
ATOM      2  N   UNL     1     -23.461  -1.679  -6.303  0.00  0.00    -0.372 N 
ATOM      3  N   UNL     1     -24.533  -3.707  -6.256  0.00  0.00    -0.372 N 
ATOM      4  C   UNL     1     -23.975  -2.721  -6.967  0.00  0.00    +0.166 C 
ATOM      5  H   UNL     1     -23.511  -1.956  -8.786  0.00  0.00    +0.163 HD
ATOM      6  H   UNL     1     -23.485  -1.631  -5.293  0.00  0.00    +0.159 HD
ATOM      7  H   UNL     1     -23.012  -0.909  -6.785  0.00  0.00    +0.159 HD
ATOM      8  H   UNL     1     -24.944  -4.518  -6.697  0.00  0.00    +0.159 HD
ATOM      9  H   UNL     1     -24.577  -3.672  -5.245  0.00  0.00    +0.159 HD
ENDROOT
BRANCH   1  10
ATOM     10  C   UNL     1     -24.403  -3.862  -9.120  0.00  0.00    +0.151 C 
BRANCH  10  11
ATOM     11  C   UNL     1     -25.602  -3.410  -9.907  0.00  0.00    -0.028 A 
ATOM     12  C   UNL     1     -26.788  -4.159  -9.891  0.00  0.00    +0.005 A 
ATOM     13  C   UNL     1     -25.560  -2.231 -10.667  0.00  0.00    +0.005 A 
ATOM     14  C   UNL     1     -27.911  -3.724 -10.598  0.00  0.00    +0.000 A 
ATOM     15  C   UNL     1     -26.684  -1.801 -11.372  0.00  0.00    +0.000 A 
ATOM     16  C   UNL     1     -27.860  -2.546 -11.335  0.00  0.00    +0.000 A 
ENDBRANCH  10  11
ENDBRANCH   1  10
TORSDOF 2
ENDMDL
MODEL 5
REMARK VINA RESULT:    -4.519     26.818     28.939
REMARK INTER + INTRA:          -5.179
REMARK INTER:                  -5.048
REMARK INTRA:                  -0.131
REMARK UNBOUND:                -0.132
REMARK  Name = 1550473
REMARK  2 active torsions:
REMARK  status: ('A' for Active; 'I' for Inactive)
REMARK    1  A    between atoms: N_1  and  C_4
REMARK    2  A    between atoms: C_4  and  C_5
REMARK                            x       y       z     vdW  Elec       q    Type
REMARK                         _______ _______ _______ _____ _____    ______ ____
ROOT
ATOM      1  N   UNL     1      17.360  -5.762 -12.663  0.00  0.00    -0.354 N 
ATOM      2  N   UNL     1      17.905  -3.783 -11.589  0.00  0.00    -0.372 N 
ATOM      3  N   UNL     1      15.735  -4.124 -12.251  0.00  0.00    -0.372 N 
ATOM      4  C   UNL     1      16.994  -4.569 -12.175  0.00  0.00    +0.166 C 
ATOM      5  H   UNL     1      18.336  -6.028 -12.601  0.00  0.00    +0.163 HD
ATOM      6  H   UNL     1      17.658  -2.879 -11.209  0.00  0.00    +0.159 HD
ATOM      7  H   UNL     1      18.871  -4.072 -11.488  0.00  0.00    +0.159 HD
ATOM      8  H   UNL     1      15.001  -4.666 -12.686  0.00  0.00    +0.159 HD
ATOM      9  H   UNL     1      15.470  -3.217 -11.887  0.00  0.00    +0.159 HD
ENDROOT
BRANCH   1  10
ATOM     10  C   UNL     1      16.434  -6.715 -13.271  0.00  0.00    +0.151 C 
BRANCH  10  11
ATOM     11  C   UNL     1      16.515  -8.021 -12.529  0.00  0.00    -0.028 A 
ATOM     12  C   UNL     1      17.703  -8.765 -12.527  0.00  0.00    +0.005 A 
ATOM     13  C   UNL     1      15.408  -8.515 -11.822  0.00  0.00    +0.005 A 
ATOM     14  C   UNL     1      17.788  -9.963 -11.813  0.00  0.00    +0.000 A 
ATOM     15  C   UNL     1      15.497  -9.712 -11.111  0.00  0.00    +0.000 A 
ATOM     16  C   UNL     1      16.688 -10.434 -11.105  0.00  0.00    +0.000 A 
ENDBRANCH  10  11
ENDBRANCH   1  10
TORSDOF 2
ENDMDL
MODEL 6
REMARK VINA RESULT:    -4.482     16.515     17.953
REMARK INTER + INTRA:          -5.137
REMARK INTER:                  -4.992
REMARK INTRA:                  -0.145
REMARK UNBOUND:                -0.132
REMARK  Name = 1550473
REMARK  2 active torsions:
REMARK  status: ('A' for Active; 'I' for Inactive)
REMARK    1  A    between atoms: N_1  and  C_4
REMARK    2  A    between atoms: C_4  and  C_5
REMARK                            x       y       z     vdW  Elec       q    Type
REMARK                         _______ _______ _______ _____ _____    ______ ____
ROOT
ATOM      1  N   UNL     1      27.145  15.742  12.952  0.00  0.00    -0.354 N 
ATOM      2  N   UNL     1      25.009  16.612  13.164  0.00  0.00    -0.372 N 
ATOM      3  N   UNL     1      25.763  15.126  14.742  0.00  0.00    -0.372 N 
ATOM      4  C   UNL     1      25.986  15.819  13.620  0.00  0.00    +0.166 C 
ATOM      5  H   UNL     1      27.241  16.269  12.092  0.00  0.00    +0.163 HD
ATOM      6  H   UNL     1      24.125  16.694  13.649  0.00  0.00    +0.159 HD
ATOM      7  H   UNL     1      25.125  17.173  12.329  0.00  0.00    +0.159 HD
ATOM      8  H   UNL     1      26.458  14.506  15.135  0.00  0.00    +0.159 HD
ATOM      9  H   UNL     1      24.881  15.186  15.235  0.00  0.00    +0.159 HD
ENDROOT
BRANCH   1  10
ATOM     10  C   UNL     1      28.292  14.950  13.393  0.00  0.00    +0.151 C 
BRANCH  10  11
ATOM     11  C   UNL     1      29.446  15.871  13.677  0.00  0.00    -0.028 A 
ATOM     12  C   UNL     1      30.593  15.396  14.329  0.00  0.00    +0.005 A 
ATOM     13  C   UNL     1      29.400  17.220  13.291  0.00  0.00    +0.005 A 
ATOM     14  C   UNL     1      31.677  16.245  14.565  0.00  0.00    +0.000 A 
ATOM     15  C   UNL     1      30.484  18.064  13.530  0.00  0.00    +0.000 A 
ATOM     16  C   UNL     1      31.624  17.576  14.165  0.00  0.00    +0.000 A 
ENDBRANCH  10  11
ENDBRANCH   1  10
TORSDOF 2
ENDMDL
MODEL 7
REMARK VINA RESULT:    -4.426     49.946     51.217
REMARK INTER + INTRA:          -5.076
REMARK INTER:                  -4.971
REMARK INTRA:                  -0.105
REMARK UNBOUND:                -0.132
REMARK  Name = 1550473
REMARK  2 active torsions:
REMARK  status: ('A' for Active; 'I' for Inactive)
REMARK    1  A    between atoms: N_1  and  C_4
REMARK    2  A    between atoms: C_4  and  C_5
REMARK                            x       y       z     vdW  Elec       q    Type
REMARK                         _______ _______ _______ _____ _____    ______ ____
ROOT
ATOM      1  N   UNL     1      -7.093 -20.342 -28.126  0.00  0.00    -0.354 N 
ATOM      2  N   UNL     1      -7.579 -19.271 -30.121  0.00  0.00    -0.372 N 
ATOM      3  N   UNL     1      -5.726 -18.620 -28.936  0.00  0.00    -0.372 N 
ATOM      4  C   UNL     1      -6.794 -19.416 -29.047  0.00  0.00    +0.166 C 
ATOM      5  H   UNL     1      -7.933 -20.894 -28.254  0.00  0.00    +0.163 HD
ATOM      6  H   UNL     1      -7.377 -18.583 -30.834  0.00  0.00    +0.159 HD
ATOM      7  H   UNL     1      -8.393 -19.855 -30.269  0.00  0.00    +0.159 HD
ATOM      8  H   UNL     1      -5.096 -18.675 -28.146  0.00  0.00    +0.159 HD
ATOM      9  H   UNL     1      -5.513 -17.917 -29.634  0.00  0.00    +0.159 HD
ENDROOT
BRANCH   1  10
ATOM     10  C   UNL     1      -6.273 -20.618 -26.948  0.00  0.00    +0.151 C 
BRANCH  10  11
ATOM     11  C   UNL     1      -6.967 -20.075 -25.729  0.00  0.00    -0.028 A 
ATOM     12  C   UNL     1      -7.317 -20.927 -24.671  0.00  0.00    +0.005 A 
ATOM     13  C   UNL     1      -7.272 -18.709 -25.624  0.00  0.00    +0.005 A 
ATOM     14  C   UNL     1      -7.935 -20.418 -23.526  0.00  0.00    +0.000 A 
ATOM     15  C   UNL     1      -7.890 -18.206 -24.479  0.00  0.00    +0.000 A 
ATOM     16  C   UNL     1      -8.219 -19.060 -23.430  0.00  0.00    +0.000 A 
ENDBRANCH  10  11
ENDBRANCH   1  10
TORSDOF 2
ENDMDL
MODEL 8
REMARK VINA RESULT:    -4.401     50.611     51.585
REMARK INTER + INTRA:          -5.047
REMARK INTER:                  -4.928
REMARK INTRA:                  -0.119
REMARK UNBOUND:                -0.132
REMARK  Name = 1550473
REMARK  2 active torsions:
REMARK  status: ('A' for Active; 'I' for Inactive)
REMARK    1  A    between atoms: N_1  and  C_4
REMARK    2  A    between atoms: C_4  and  C_5
REMARK                            x       y       z     vdW  Elec       q    Type
REMARK                         _______ _______ _______ _____ _____    ______ ____
ROOT
ATOM      1  N   UNL     1      -6.028 -21.033 -26.249  0.00  0.00    -0.354 N 
ATOM      2  N   UNL     1      -6.872 -18.887 -26.464  0.00  0.00    -0.372 N 
ATOM      3  N   UNL     1      -6.209 -20.012 -28.351  0.00  0.00    -0.372 N 
ATOM      4  C   UNL     1      -6.363 -19.992 -27.023  0.00  0.00    +0.166 C 
ATOM      5  H   UNL     1      -6.142 -20.943 -25.246  0.00  0.00    +0.163 HD
ATOM      6  H   UNL     1      -7.137 -18.086 -27.023  0.00  0.00    +0.159 HD
ATOM      7  H   UNL     1      -7.027 -18.817 -25.466  0.00  0.00    +0.159 HD
ATOM      8  H   UNL     1      -5.825 -20.814 -28.833  0.00  0.00    +0.159 HD
ATOM      9  H   UNL     1      -6.457 -19.217 -28.926  0.00  0.00    +0.159 HD
ENDROOT
BRANCH   1  10
ATOM     10  C   UNL     1      -5.517 -22.302 -26.763  0.00  0.00    +0.151 C 
BRANCH  10  11
ATOM     11  C   UNL     1      -4.301 -22.698 -25.971  0.00  0.00    -0.028 A 
ATOM     12  C   UNL     1      -3.074 -22.921 -26.613  0.00  0.00    +0.005 A 
ATOM     13  C   UNL     1      -4.369 -22.848 -24.577  0.00  0.00    +0.005 A 
ATOM     14  C   UNL     1      -1.938 -23.260 -25.875  0.00  0.00    +0.000 A 
ATOM     15  C   UNL     1      -3.232 -23.187 -23.844  0.00  0.00    +0.000 A 
ATOM     16  C   UNL     1      -2.016 -23.391 -24.492  0.00  0.00    +0.000 A 
ENDBRANCH  10  11
ENDBRANCH   1  10
TORSDOF 2
ENDMDL
MODEL 9
REMARK VINA RESULT:    -4.391     30.933     31.949
REMARK INTER + INTRA:          -5.036
REMARK INTER:                  -4.899
REMARK INTRA:                  -0.137
REMARK UNBOUND:                -0.132
REMARK  Name = 1550473
REMARK  2 active torsions:
REMARK  status: ('A' for Active; 'I' for Inactive)
REMARK    1  A    between atoms: N_1  and  C_4
REMARK    2  A    between atoms: C_4  and  C_5
REMARK                            x       y       z     vdW  Elec       q    Type
REMARK                         _______ _______ _______ _____ _____    ______ ____
ROOT
ATOM      1  N   UNL     1       6.756 -12.610 -10.556  0.00  0.00    -0.354 N 
ATOM      2  N   UNL     1       9.038 -12.328 -10.280  0.00  0.00    -0.372 N 
ATOM      3  N   UNL     1       8.218 -14.439 -10.652  0.00  0.00    -0.372 N 
ATOM      4  C   UNL     1       7.989 -13.130 -10.498  0.00  0.00    +0.166 C 
ATOM      5  H   UNL     1       6.646 -11.614 -10.401  0.00  0.00    +0.163 HD
ATOM      6  H   UNL     1       9.980 -12.692 -10.234  0.00  0.00    +0.159 HD
ATOM      7  H   UNL     1       8.930 -11.327 -10.171  0.00  0.00    +0.159 HD
ATOM      8  H   UNL     1       7.468 -15.098 -10.813  0.00  0.00    +0.159 HD
ATOM      9  H   UNL     1       9.152 -14.823 -10.598  0.00  0.00    +0.159 HD
ENDROOT
BRANCH   1  10
ATOM     10  C   UNL     1       5.552 -13.388 -10.841  0.00  0.00    +0.151 C 
BRANCH  10  11
ATOM     11  C   UNL     1       4.552 -13.169  -9.740  0.00  0.00    -0.028 A 
ATOM     12  C   UNL     1       4.973 -13.060  -8.406  0.00  0.00    +0.005 A 
ATOM     13  C   UNL     1       3.182 -13.062 -10.023  0.00  0.00    +0.005 A 
ATOM     14  C   UNL     1       4.048 -12.826  -7.386  0.00  0.00    +0.000 A 
ATOM     15  C   UNL     1       2.261 -12.829  -9.002  0.00  0.00    +0.000 A 
ATOM     16  C   UNL     1       2.695 -12.709  -7.684  0.00  0.00    +0.000 A 
ENDBRANCH  10  11
ENDBRANCH   1  10
TORSDOF 2
ENDMDL
