MODEL 1
REMARK VINA RESULT:    -6.182      0.000      0.000
REMARK INTER + INTRA:          -7.022
REMARK INTER:                  -6.904
REMARK INTRA:                  -0.118
REMARK UNBOUND:                -0.118
REMARK  Name = 1550473
REMARK  2 active torsions:
REMARK  status: ('A' for Active; 'I' for Inactive)
REMARK    1  A    between atoms: N_1  and  C_4
REMARK    2  A    between atoms: C_4  and  C_5
REMARK                            x       y       z     vdW  Elec       q    Type
REMARK                         _______ _______ _______ _____ _____    ______ ____
ROOT
ATOM      1  N   UNL     1       3.946   4.504  27.587  0.00  0.00    -0.354 N 
ATOM      2  N   UNL     1       3.484   2.658  26.267  0.00  0.00    -0.372 N 
ATOM      3  N   UNL     1       5.649   3.036  26.927  0.00  0.00    -0.372 N 
ATOM      4  C   UNL     1       4.365   3.411  26.936  0.00  0.00    +0.166 C 
ATOM      5  H   UNL     1       2.964   4.751  27.530  0.00  0.00    +0.163 HD
ATOM      6  H   UNL     1       3.771   1.826  25.769  0.00  0.00    +0.159 HD
ATOM      7  H   UNL     1       2.496   2.882  26.250  0.00  0.00    +0.159 HD
ATOM      8  H   UNL     1       6.365   3.565  27.407  0.00  0.00    +0.159 HD
ATOM      9  H   UNL     1       5.957   2.213  26.425  0.00  0.00    +0.159 HD
ENDROOT
BRANCH   1  10
ATOM     10  C   UNL     1       4.816   5.362  28.390  0.00  0.00    +0.151 C 
BRANCH  10  11
ATOM     11  C   UNL     1       4.127   6.678  28.624  0.00  0.00    -0.028 A 
ATOM     12  C   UNL     1       2.726   6.757  28.629  0.00  0.00    +0.005 A 
ATOM     13  C   UNL     1       4.868   7.848  28.848  0.00  0.00    +0.005 A 
ATOM     14  C   UNL     1       2.086   7.974  28.877  0.00  0.00    +0.000 A 
ATOM     15  C   UNL     1       4.225   9.061  29.095  0.00  0.00    +0.000 A 
ATOM     16  C   UNL     1       2.834   9.123  29.111  0.00  0.00    +0.000 A 
ENDBRANCH  10  11
ENDBRANCH   1  10
TORSDOF 2
ENDMDL
MODEL 2
REMARK VINA RESULT:    -5.984      2.977      4.467
REMARK INTER + INTRA:          -6.801
REMARK INTER:                  -6.685
REMARK INTRA:                  -0.116
REMARK UNBOUND:                -0.118
REMARK  Name = 1550473
REMARK  2 active torsions:
REMARK  status: ('A' for Active; 'I' for Inactive)
REMARK    1  A    between atoms: N_1  and  C_4
REMARK    2  A    between atoms: C_4  and  C_5
REMARK                            x       y       z     vdW  Elec       q    Type
REMARK                         _______ _______ _______ _____ _____    ______ ____
ROOT
ATOM      1  N   UNL     1       3.270   7.892  29.256  0.00  0.00    -0.354 N 
ATOM      2  N   UNL     1       4.946   7.104  27.866  0.00  0.00    -0.372 N 
ATOM      3  N   UNL     1       5.342   7.224  30.123  0.00  0.00    -0.372 N 
ATOM      4  C   UNL     1       4.510   7.412  29.093  0.00  0.00    +0.166 C 
ATOM      5  H   UNL     1       2.699   8.040  28.431  0.00  0.00    +0.163 HD
ATOM      6  H   UNL     1       5.876   6.736  27.712  0.00  0.00    +0.159 HD
ATOM      7  H   UNL     1       4.358   7.209  27.048  0.00  0.00    +0.159 HD
ATOM      8  H   UNL     1       5.076   7.443  31.073  0.00  0.00    +0.159 HD
ATOM      9  H   UNL     1       6.280   6.868  29.988  0.00  0.00    +0.159 HD
ENDROOT
BRANCH   1  10
ATOM     10  C   UNL     1       2.680   8.208  30.555  0.00  0.00    +0.151 C 
BRANCH  10  11
ATOM     11  C   UNL     1       1.188   8.320  30.403  0.00  0.00    -0.028 A 
ATOM     12  C   UNL     1       0.627   8.775  29.200  0.00  0.00    +0.005 A 
ATOM     13  C   UNL     1       0.329   7.967  31.455  0.00  0.00    +0.005 A 
ATOM     14  C   UNL     1      -0.760   8.850  29.047  0.00  0.00    +0.000 A 
ATOM     15  C   UNL     1      -1.055   8.045  31.299  0.00  0.00    +0.000 A 
ATOM     16  C   UNL     1      -1.599   8.484  30.094  0.00  0.00    +0.000 A 
ENDBRANCH  10  11
ENDBRANCH   1  10
TORSDOF 2
ENDMDL
MODEL 3
REMARK VINA RESULT:    -5.794      6.657      8.333
REMARK INTER + INTRA:          -6.590
REMARK INTER:                  -6.478
REMARK INTRA:                  -0.111
REMARK UNBOUND:                -0.118
REMARK  Name = 1550473
REMARK  2 active torsions:
REMARK  status: ('A' for Active; 'I' for Inactive)
REMARK    1  A    between atoms: N_1  and  C_4
REMARK    2  A    between atoms: C_4  and  C_5
REMARK                            x       y       z     vdW  Elec       q    Type
REMARK                         _______ _______ _______ _____ _____    ______ ____
ROOT
ATOM      1  N   UNL     1      -3.726   9.514  29.942  0.00  0.00    -0.354 N 
ATOM      2  N   UNL     1      -5.463  10.920  29.331  0.00  0.00    -0.372 N 
ATOM      3  N   UNL     1      -5.955   8.796  30.044  0.00  0.00    -0.372 N 
ATOM      4  C   UNL     1      -5.038   9.732  29.777  0.00  0.00    +0.166 C 
ATOM      5  H   UNL     1      -3.081  10.255  29.693  0.00  0.00    +0.163 HD
ATOM      6  H   UNL     1      -6.446  11.115  29.201  0.00  0.00    +0.159 HD
ATOM      7  H   UNL     1      -4.818  11.674  29.127  0.00  0.00    +0.159 HD
ATOM      8  H   UNL     1      -5.699   7.876  30.378  0.00  0.00    +0.159 HD
ATOM      9  H   UNL     1      -6.943   8.967  29.908  0.00  0.00    +0.159 HD
ENDROOT
BRANCH   1  10
ATOM     10  C   UNL     1      -3.164   8.274  30.472  0.00  0.00    +0.151 C 
BRANCH  10  11
ATOM     11  C   UNL     1      -1.664   8.336  30.381  0.00  0.00    -0.028 A 
ATOM     12  C   UNL     1      -1.041   8.822  29.222  0.00  0.00    +0.005 A 
ATOM     13  C   UNL     1      -0.860   7.917  31.453  0.00  0.00    +0.005 A 
ATOM     14  C   UNL     1       0.352   8.908  29.149  0.00  0.00    +0.000 A 
ATOM     15  C   UNL     1       0.529   8.004  31.375  0.00  0.00    +0.000 A 
ATOM     16  C   UNL     1       1.135   8.502  30.224  0.00  0.00    +0.000 A 
ENDBRANCH  10  11
ENDBRANCH   1  10
TORSDOF 2
ENDMDL
MODEL 4
REMARK VINA RESULT:    -5.716      5.347      6.703
REMARK INTER + INTRA:          -6.502
REMARK INTER:                  -6.384
REMARK INTRA:                  -0.117
REMARK UNBOUND:                -0.118
REMARK  Name = 1550473
REMARK  2 active torsions:
REMARK  status: ('A' for Active; 'I' for Inactive)
REMARK    1  A    between atoms: N_1  and  C_4
REMARK    2  A    between atoms: C_4  and  C_5
REMARK                            x       y       z     vdW  Elec       q    Type
REMARK                         _______ _______ _______ _____ _____    ______ ____
ROOT
ATOM      1  N   UNL     1      -1.612   6.842  30.599  0.00  0.00    -0.354 N 
ATOM      2  N   UNL     1      -3.613   5.681  30.480  0.00  0.00    -0.372 N 
ATOM      3  N   UNL     1      -3.665   7.972  30.590  0.00  0.00    -0.372 N 
ATOM      4  C   UNL     1      -2.951   6.842  30.557  0.00  0.00    +0.166 C 
ATOM      5  H   UNL     1      -1.131   5.950  30.602  0.00  0.00    +0.163 HD
ATOM      6  H   UNL     1      -4.623   5.650  30.443  0.00  0.00    +0.159 HD
ATOM      7  H   UNL     1      -3.128   4.793  30.436  0.00  0.00    +0.159 HD
ATOM      8  H   UNL     1      -3.226   8.881  30.654  0.00  0.00    +0.159 HD
ATOM      9  H   UNL     1      -4.677   7.961  30.566  0.00  0.00    +0.159 HD
ENDROOT
BRANCH   1  10
ATOM     10  C   UNL     1      -0.795   8.053  30.630  0.00  0.00    +0.151 C 
BRANCH  10  11
ATOM     11  C   UNL     1       0.430   7.799  31.464  0.00  0.00    -0.028 A 
ATOM     12  C   UNL     1       1.706   7.834  30.884  0.00  0.00    +0.005 A 
ATOM     13  C   UNL     1       0.321   7.527  32.836  0.00  0.00    +0.005 A 
ATOM     14  C   UNL     1       2.846   7.627  31.664  0.00  0.00    +0.000 A 
ATOM     15  C   UNL     1       1.462   7.320  33.612  0.00  0.00    +0.000 A 
ATOM     16  C   UNL     1       2.724   7.373  33.026  0.00  0.00    +0.000 A 
ENDBRANCH  10  11
ENDBRANCH   1  10
TORSDOF 2
ENDMDL
MODEL 5
REMARK VINA RESULT:    -5.678      5.960      7.176
REMARK INTER + INTRA:          -6.459
REMARK INTER:                  -6.305
REMARK INTRA:                  -0.154
REMARK UNBOUND:                -0.118
REMARK  Name = 1550473
REMARK  2 active torsions:
REMARK  status: ('A' for Active; 'I' for Inactive)
REMARK    1  A    between atoms: N_1  and  C_4
REMARK    2  A    between atoms: C_4  and  C_5
REMARK                            x       y       z     vdW  Elec       q    Type
REMARK                         _______ _______ _______ _____ _____    ______ ____
ROOT
ATOM      1  N   UNL     1      -3.546   7.885  30.524  0.00  0.00    -0.354 N 
ATOM      2  N   UNL     1      -5.175   6.756  29.326  0.00  0.00    -0.372 N 
ATOM      3  N   UNL     1      -3.971   5.613  30.910  0.00  0.00    -0.372 N 
ATOM      4  C   UNL     1      -4.219   6.757  30.263  0.00  0.00    +0.166 C 
ATOM      5  H   UNL     1      -3.760   8.711  29.977  0.00  0.00    +0.163 HD
ATOM      6  H   UNL     1      -5.703   5.921  29.110  0.00  0.00    +0.159 HD
ATOM      7  H   UNL     1      -5.419   7.595  28.814  0.00  0.00    +0.159 HD
ATOM      8  H   UNL     1      -3.258   5.545  31.623  0.00  0.00    +0.159 HD
ATOM      9  H   UNL     1      -4.480   4.764  30.699  0.00  0.00    +0.159 HD
ENDROOT
BRANCH   1  10
ATOM     10  C   UNL     1      -2.523   8.005  31.561  0.00  0.00    +0.151 C 
BRANCH  10  11
ATOM     11  C   UNL     1      -1.181   8.195  30.909  0.00  0.00    -0.028 A 
ATOM     12  C   UNL     1      -1.089   8.715  29.610  0.00  0.00    +0.005 A 
ATOM     13  C   UNL     1       0.002   7.861  31.586  0.00  0.00    +0.005 A 
ATOM     14  C   UNL     1       0.159   8.920  29.014  0.00  0.00    +0.000 A 
ATOM     15  C   UNL     1       1.245   8.066  30.988  0.00  0.00    +0.000 A 
ATOM     16  C   UNL     1       1.323   8.598  29.703  0.00  0.00    +0.000 A 
ENDBRANCH  10  11
ENDBRANCH   1  10
TORSDOF 2
ENDMDL
MODEL 6
REMARK VINA RESULT:    -5.470     43.867     44.938
REMARK INTER + INTRA:          -6.227
REMARK INTER:                  -6.112
REMARK INTRA:                  -0.116
REMARK UNBOUND:                -0.118
REMARK  Name = 1550473
REMARK  2 active torsions:
REMARK  status: ('A' for Active; 'I' for Inactive)
REMARK    1  A    between atoms: N_1  and  C_4
REMARK    2  A    between atoms: C_4  and  C_5
REMARK                            x       y       z     vdW  Elec       q    Type
REMARK                         _______ _______ _______ _____ _____    ______ ____
ROOT
ATOM      1  N   UNL     1     -15.322   7.517 -14.089  0.00  0.00    -0.354 N 
ATOM      2  N   UNL     1     -16.639   9.017 -15.264  0.00  0.00    -0.372 N 
ATOM      3  N   UNL     1     -14.532   8.544 -16.042  0.00  0.00    -0.372 N 
ATOM      4  C   UNL     1     -15.487   8.350 -15.125  0.00  0.00    +0.166 C 
ATOM      5  H   UNL     1     -16.073   7.437 -13.412  0.00  0.00    +0.163 HD
ATOM      6  H   UNL     1     -16.793   9.650 -16.037  0.00  0.00    +0.159 HD
ATOM      7  H   UNL     1     -17.404   8.900 -14.611  0.00  0.00    +0.159 HD
ATOM      8  H   UNL     1     -13.638   8.075 -15.991  0.00  0.00    +0.159 HD
ATOM      9  H   UNL     1     -14.664   9.182 -16.817  0.00  0.00    +0.159 HD
ENDROOT
BRANCH   1  10
ATOM     10  C   UNL     1     -14.127   6.702 -13.876  0.00  0.00    +0.151 C 
BRANCH  10  11
ATOM     11  C   UNL     1     -13.718   6.798 -12.433  0.00  0.00    -0.028 A 
ATOM     12  C   UNL     1     -12.443   7.266 -12.084  0.00  0.00    +0.005 A 
ATOM     13  C   UNL     1     -14.603   6.428 -11.408  0.00  0.00    +0.005 A 
ATOM     14  C   UNL     1     -12.073   7.384 -10.742  0.00  0.00    +0.000 A 
ATOM     15  C   UNL     1     -14.229   6.546 -10.070  0.00  0.00    +0.000 A 
ATOM     16  C   UNL     1     -12.965   7.026  -9.737  0.00  0.00    +0.000 A 
ENDBRANCH  10  11
ENDBRANCH   1  10
TORSDOF 2
ENDMDL
MODEL 7
REMARK VINA RESULT:    -5.319      1.683      2.978
REMARK INTER + INTRA:          -6.058
REMARK INTER:                  -5.886
REMARK INTRA:                  -0.173
REMARK UNBOUND:                -0.118
REMARK  Name = 1550473
REMARK  2 active torsions:
REMARK  status: ('A' for Active; 'I' for Inactive)
REMARK    1  A    between atoms: N_1  and  C_4
REMARK    2  A    between atoms: C_4  and  C_5
REMARK                            x       y       z     vdW  Elec       q    Type
REMARK                         _______ _______ _______ _____ _____    ______ ____
ROOT
ATOM      1  N   UNL     1       5.814   3.601  26.228  0.00  0.00    -0.354 N 
ATOM      2  N   UNL     1       6.660   4.049  24.119  0.00  0.00    -0.372 N 
ATOM      3  N   UNL     1       4.388   3.878  24.389  0.00  0.00    -0.372 N 
ATOM      4  C   UNL     1       5.612   3.839  24.925  0.00  0.00    +0.166 C 
ATOM      5  H   UNL     1       6.768   3.555  26.567  0.00  0.00    +0.163 HD
ATOM      6  H   UNL     1       6.539   4.235  23.132  0.00  0.00    +0.159 HD
ATOM      7  H   UNL     1       7.610   4.048  24.469  0.00  0.00    +0.159 HD
ATOM      8  H   UNL     1       3.556   3.722  24.943  0.00  0.00    +0.159 HD
ATOM      9  H   UNL     1       4.246   4.050  23.402  0.00  0.00    +0.159 HD
ENDROOT
BRANCH   1  10
ATOM     10  C   UNL     1       4.740   3.414  27.201  0.00  0.00    +0.151 C 
BRANCH  10  11
ATOM     11  C   UNL     1       4.631   4.645  28.057  0.00  0.00    -0.028 A 
ATOM     12  C   UNL     1       5.649   4.973  28.965  0.00  0.00    +0.005 A 
ATOM     13  C   UNL     1       3.516   5.492  27.961  0.00  0.00    +0.005 A 
ATOM     14  C   UNL     1       5.563   6.133  29.739  0.00  0.00    +0.000 A 
ATOM     15  C   UNL     1       3.434   6.649  28.735  0.00  0.00    +0.000 A 
ATOM     16  C   UNL     1       4.458   6.970  29.623  0.00  0.00    +0.000 A 
ENDBRANCH  10  11
ENDBRANCH   1  10
TORSDOF 2
ENDMDL
MODEL 8
REMARK VINA RESULT:    -5.265     27.231     27.933
REMARK INTER + INTRA:          -5.998
REMARK INTER:                  -5.832
REMARK INTRA:                  -0.166
REMARK UNBOUND:                -0.118
REMARK  Name = 1550473
REMARK  2 active torsions:
REMARK  status: ('A' for Active; 'I' for Inactive)
REMARK    1  A    between atoms: N_1  and  C_4
REMARK    2  A    between atoms: C_4  and  C_5
REMARK                            x       y       z     vdW  Elec       q    Type
REMARK                         _______ _______ _______ _____ _____    ______ ____
ROOT
ATOM      1  N   UNL     1      -7.208   0.639   3.515  0.00  0.00    -0.354 N 
ATOM      2  N   UNL     1      -6.463  -0.990   4.982  0.00  0.00    -0.372 N 
ATOM      3  N   UNL     1      -6.256  -1.351   2.726  0.00  0.00    -0.372 N 
ATOM      4  C   UNL     1      -6.647  -0.558   3.729  0.00  0.00    +0.166 C 
ATOM      5  H   UNL     1      -7.511   1.180   4.318  0.00  0.00    +0.163 HD
ATOM      6  H   UNL     1      -6.039  -1.888   5.175  0.00  0.00    +0.159 HD
ATOM      7  H   UNL     1      -6.724  -0.428   5.784  0.00  0.00    +0.159 HD
ATOM      8  H   UNL     1      -6.372  -1.086   1.757  0.00  0.00    +0.159 HD
ATOM      9  H   UNL     1      -5.840  -2.258   2.898  0.00  0.00    +0.159 HD
ENDROOT
BRANCH   1  10
ATOM     10  C   UNL     1      -7.404   1.226   2.190  0.00  0.00    +0.151 C 
BRANCH  10  11
ATOM     11  C   UNL     1      -6.420   2.347   1.999  0.00  0.00    -0.028 A 
ATOM     12  C   UNL     1      -5.093   2.075   1.635  0.00  0.00    +0.005 A 
ATOM     13  C   UNL     1      -6.810   3.683   2.175  0.00  0.00    +0.005 A 
ATOM     14  C   UNL     1      -4.187   3.118   1.428  0.00  0.00    +0.000 A 
ATOM     15  C   UNL     1      -5.902   4.721   1.968  0.00  0.00    +0.000 A 
ATOM     16  C   UNL     1      -4.591   4.438   1.592  0.00  0.00    +0.000 A 
ENDBRANCH  10  11
ENDBRANCH   1  10
TORSDOF 2
ENDMDL
MODEL 9
REMARK VINA RESULT:    -5.183      7.765      9.122
REMARK INTER + INTRA:          -5.907
REMARK INTER:                  -5.739
REMARK INTRA:                  -0.168
REMARK UNBOUND:                -0.118
REMARK  Name = 1550473
REMARK  2 active torsions:
REMARK  status: ('A' for Active; 'I' for Inactive)
REMARK    1  A    between atoms: N_1  and  C_4
REMARK    2  A    between atoms: C_4  and  C_5
REMARK                            x       y       z     vdW  Elec       q    Type
REMARK                         _______ _______ _______ _____ _____    ______ ____
ROOT
ATOM      1  N   UNL     1      -5.104   4.679  30.995  0.00  0.00    -0.354 N 
ATOM      2  N   UNL     1      -5.493   3.436  32.910  0.00  0.00    -0.372 N 
ATOM      3  N   UNL     1      -6.388   5.543  32.755  0.00  0.00    -0.372 N 
ATOM      4  C   UNL     1      -5.660   4.563  32.208  0.00  0.00    +0.166 C 
ATOM      5  H   UNL     1      -4.539   3.912  30.650  0.00  0.00    +0.163 HD
ATOM      6  H   UNL     1      -5.904   3.319  33.827  0.00  0.00    +0.159 HD
ATOM      7  H   UNL     1      -4.966   2.653  32.543  0.00  0.00    +0.159 HD
ATOM      8  H   UNL     1      -6.547   6.421  32.279  0.00  0.00    +0.159 HD
ATOM      9  H   UNL     1      -6.797   5.449  33.676  0.00  0.00    +0.159 HD
ENDROOT
BRANCH   1  10
ATOM     10  C   UNL     1      -5.271   5.843  30.127  0.00  0.00    +0.151 C 
BRANCH  10  11
ATOM     11  C   UNL     1      -4.038   6.700  30.212  0.00  0.00    -0.028 A 
ATOM     12  C   UNL     1      -4.144   8.097  30.267  0.00  0.00    +0.005 A 
ATOM     13  C   UNL     1      -2.760   6.120  30.246  0.00  0.00    +0.005 A 
ATOM     14  C   UNL     1      -3.000   8.892  30.376  0.00  0.00    +0.000 A 
ATOM     15  C   UNL     1      -1.621   6.917  30.354  0.00  0.00    +0.000 A 
ATOM     16  C   UNL     1      -1.742   8.303  30.422  0.00  0.00    +0.000 A 
ENDBRANCH  10  11
ENDBRANCH   1  10
TORSDOF 2
ENDMDL
