MODEL 1
REMARK VINA RESULT:    -5.724      0.000      0.000
REMARK INTER + INTRA:          -6.496
REMARK INTER:                  -6.393
REMARK INTRA:                  -0.102
REMARK UNBOUND:                -0.102
REMARK  Name = 1550473
REMARK  2 active torsions:
REMARK  status: ('A' for Active; 'I' for Inactive)
REMARK    1  A    between atoms: N_1  and  C_4
REMARK    2  A    between atoms: C_4  and  C_5
REMARK                            x       y       z     vdW  Elec       q    Type
REMARK                         _______ _______ _______ _____ _____    ______ ____
ROOT
ATOM      1  N   UNL     1     -16.132  -3.431  -5.489  0.00  0.00    -0.354 N 
ATOM      2  N   UNL     1     -16.588  -1.925  -7.188  0.00  0.00    -0.372 N 
ATOM      3  N   UNL     1     -17.478  -4.036  -7.310  0.00  0.00    -0.372 N 
ATOM      4  C   UNL     1     -16.731  -3.143  -6.653  0.00  0.00    +0.166 C 
ATOM      5  H   UNL     1     -15.555  -2.720  -5.056  0.00  0.00    +0.163 HD
ATOM      6  H   UNL     1     -17.030  -1.677  -8.063  0.00  0.00    +0.159 HD
ATOM      7  H   UNL     1     -16.047  -1.201  -6.730  0.00  0.00    +0.159 HD
ATOM      8  H   UNL     1     -17.620  -4.975  -6.962  0.00  0.00    +0.159 HD
ATOM      9  H   UNL     1     -17.919  -3.811  -8.193  0.00  0.00    +0.159 HD
ENDROOT
BRANCH   1  10
ATOM     10  C   UNL     1     -16.269  -4.710  -4.794  0.00  0.00    +0.151 C 
BRANCH  10  11
ATOM     11  C   UNL     1     -14.998  -4.999  -4.044  0.00  0.00    -0.028 A 
ATOM     12  C   UNL     1     -13.963  -5.727  -4.650  0.00  0.00    +0.005 A 
ATOM     13  C   UNL     1     -14.820  -4.543  -2.729  0.00  0.00    +0.005 A 
ATOM     14  C   UNL     1     -12.771  -5.970  -3.963  0.00  0.00    +0.000 A 
ATOM     15  C   UNL     1     -13.628  -4.788  -2.047  0.00  0.00    +0.000 A 
ATOM     16  C   UNL     1     -12.603  -5.500  -2.665  0.00  0.00    +0.000 A 
ENDBRANCH  10  11
ENDBRANCH   1  10
TORSDOF 2
ENDMDL
MODEL 2
REMARK VINA RESULT:    -5.517      1.395      2.135
REMARK INTER + INTRA:          -6.264
REMARK INTER:                  -6.137
REMARK INTRA:                  -0.127
REMARK UNBOUND:                -0.102
REMARK  Name = 1550473
REMARK  2 active torsions:
REMARK  status: ('A' for Active; 'I' for Inactive)
REMARK    1  A    between atoms: N_1  and  C_4
REMARK    2  A    between atoms: C_4  and  C_5
REMARK                            x       y       z     vdW  Elec       q    Type
REMARK                         _______ _______ _______ _____ _____    ______ ____
ROOT
ATOM      1  N   UNL     1     -16.278  -3.106  -6.345  0.00  0.00    -0.354 N 
ATOM      2  N   UNL     1     -17.879  -1.702  -7.255  0.00  0.00    -0.372 N 
ATOM      3  N   UNL     1     -16.431  -2.792  -8.662  0.00  0.00    -0.372 N 
ATOM      4  C   UNL     1     -16.851  -2.543  -7.417  0.00  0.00    +0.166 C 
ATOM      5  H   UNL     1     -16.623  -2.853  -5.426  0.00  0.00    +0.163 HD
ATOM      6  H   UNL     1     -18.333  -1.264  -8.045  0.00  0.00    +0.159 HD
ATOM      7  H   UNL     1     -18.251  -1.486  -6.338  0.00  0.00    +0.159 HD
ATOM      8  H   UNL     1     -15.656  -3.414  -8.851  0.00  0.00    +0.159 HD
ATOM      9  H   UNL     1     -16.865  -2.355  -9.465  0.00  0.00    +0.159 HD
ENDROOT
BRANCH   1  10
ATOM     10  C   UNL     1     -15.188  -4.078  -6.415  0.00  0.00    +0.151 C 
BRANCH  10  11
ATOM     11  C   UNL     1     -15.129  -4.845  -5.123  0.00  0.00    -0.028 A 
ATOM     12  C   UNL     1     -16.174  -4.753  -4.192  0.00  0.00    +0.005 A 
ATOM     13  C   UNL     1     -14.033  -5.670  -4.827  0.00  0.00    +0.005 A 
ATOM     14  C   UNL     1     -16.134  -5.489  -3.006  0.00  0.00    +0.000 A 
ATOM     15  C   UNL     1     -13.997  -6.403  -3.640  0.00  0.00    +0.000 A 
ATOM     16  C   UNL     1     -15.048  -6.314  -2.731  0.00  0.00    +0.000 A 
ENDBRANCH  10  11
ENDBRANCH   1  10
TORSDOF 2
ENDMDL
MODEL 3
REMARK VINA RESULT:    -5.364      3.173      5.038
REMARK INTER + INTRA:          -6.093
REMARK INTER:                  -5.979
REMARK INTRA:                  -0.114
REMARK UNBOUND:                -0.102
REMARK  Name = 1550473
REMARK  2 active torsions:
REMARK  status: ('A' for Active; 'I' for Inactive)
REMARK    1  A    between atoms: N_1  and  C_4
REMARK    2  A    between atoms: C_4  and  C_5
REMARK                            x       y       z     vdW  Elec       q    Type
REMARK                         _______ _______ _______ _____ _____    ______ ____
ROOT
ATOM      1  N   UNL     1     -12.877  -5.581  -3.415  0.00  0.00    -0.354 N 
ATOM      2  N   UNL     1     -11.350  -5.008  -1.770  0.00  0.00    -0.372 N 
ATOM      3  N   UNL     1     -12.980  -6.548  -1.282  0.00  0.00    -0.372 N 
ATOM      4  C   UNL     1     -12.414  -5.718  -2.165  0.00  0.00    +0.166 C 
ATOM      5  H   UNL     1     -12.422  -4.912  -4.026  0.00  0.00    +0.163 HD
ATOM      6  H   UNL     1     -10.976  -5.093  -0.835  0.00  0.00    +0.159 HD
ATOM      7  H   UNL     1     -10.869  -4.375  -2.398  0.00  0.00    +0.159 HD
ATOM      8  H   UNL     1     -13.789  -7.107  -1.516  0.00  0.00    +0.159 HD
ATOM      9  H   UNL     1     -12.627  -6.638  -0.338  0.00  0.00    +0.159 HD
ENDROOT
BRANCH   1  10
ATOM     10  C   UNL     1     -13.996  -6.347  -3.960  0.00  0.00    +0.151 C 
BRANCH  10  11
ATOM     11  C   UNL     1     -14.920  -5.412  -4.692  0.00  0.00    -0.028 A 
ATOM     12  C   UNL     1     -14.546  -4.863  -5.927  0.00  0.00    +0.005 A 
ATOM     13  C   UNL     1     -16.174  -5.077  -4.158  0.00  0.00    +0.005 A 
ATOM     14  C   UNL     1     -15.417  -4.019  -6.621  0.00  0.00    +0.000 A 
ATOM     15  C   UNL     1     -17.040  -4.234  -4.854  0.00  0.00    +0.000 A 
ATOM     16  C   UNL     1     -16.662  -3.707  -6.086  0.00  0.00    +0.000 A 
ENDBRANCH  10  11
ENDBRANCH   1  10
TORSDOF 2
ENDMDL
MODEL 4
REMARK VINA RESULT:    -5.139     21.153     22.649
REMARK INTER + INTRA:          -5.843
REMARK INTER:                  -5.721
REMARK INTRA:                  -0.122
REMARK UNBOUND:                -0.102
REMARK  Name = 1550473
REMARK  2 active torsions:
REMARK  status: ('A' for Active; 'I' for Inactive)
REMARK    1  A    between atoms: N_1  and  C_4
REMARK    2  A    between atoms: C_4  and  C_5
REMARK                            x       y       z     vdW  Elec       q    Type
REMARK                         _______ _______ _______ _____ _____    ______ ____
ROOT
ATOM      1  N   UNL     1       6.669  -9.382  -9.786  0.00  0.00    -0.354 N 
ATOM      2  N   UNL     1       6.773 -11.662 -10.181  0.00  0.00    -0.372 N 
ATOM      3  N   UNL     1       8.636 -10.590  -9.378  0.00  0.00    -0.372 N 
ATOM      4  C   UNL     1       7.361 -10.529  -9.778  0.00  0.00    +0.166 C 
ATOM      5  H   UNL     1       5.715  -9.397 -10.129  0.00  0.00    +0.163 HD
ATOM      6  H   UNL     1       7.269 -12.543 -10.184  0.00  0.00    +0.159 HD
ATOM      7  H   UNL     1       5.805 -11.682 -10.481  0.00  0.00    +0.159 HD
ATOM      8  H   UNL     1       9.139  -9.769  -9.068  0.00  0.00    +0.159 HD
ATOM      9  H   UNL     1       9.152 -11.460  -9.384  0.00  0.00    +0.159 HD
ENDROOT
BRANCH   1  10
ATOM     10  C   UNL     1       7.200  -8.104  -9.316  0.00  0.00    +0.151 C 
BRANCH  10  11
ATOM     11  C   UNL     1       6.181  -7.027  -9.566  0.00  0.00    -0.028 A 
ATOM     12  C   UNL     1       6.533  -5.674  -9.457  0.00  0.00    +0.005 A 
ATOM     13  C   UNL     1       4.862  -7.353  -9.919  0.00  0.00    +0.005 A 
ATOM     14  C   UNL     1       5.594  -4.672  -9.718  0.00  0.00    +0.000 A 
ATOM     15  C   UNL     1       3.928  -6.350 -10.179  0.00  0.00    +0.000 A 
ATOM     16  C   UNL     1       4.295  -5.010 -10.081  0.00  0.00    +0.000 A 
ENDBRANCH  10  11
ENDBRANCH   1  10
TORSDOF 2
ENDMDL
MODEL 5
REMARK VINA RESULT:    -5.104     22.788     23.418
REMARK INTER + INTRA:          -5.803
REMARK INTER:                  -5.667
REMARK INTRA:                  -0.137
REMARK UNBOUND:                -0.102
REMARK  Name = 1550473
REMARK  2 active torsions:
REMARK  status: ('A' for Active; 'I' for Inactive)
REMARK    1  A    between atoms: N_1  and  C_4
REMARK    2  A    between atoms: C_4  and  C_5
REMARK                            x       y       z     vdW  Elec       q    Type
REMARK                         _______ _______ _______ _____ _____    ______ ____
ROOT
ATOM      1  N   UNL     1       0.467  14.492  -6.149  0.00  0.00    -0.354 N 
ATOM      2  N   UNL     1       2.184  15.931  -6.739  0.00  0.00    -0.372 N 
ATOM      3  N   UNL     1       0.408  16.754  -5.542  0.00  0.00    -0.372 N 
ATOM      4  C   UNL     1       1.007  15.718  -6.138  0.00  0.00    +0.166 C 
ATOM      5  H   UNL     1       0.957  13.755  -6.644  0.00  0.00    +0.163 HD
ATOM      6  H   UNL     1       2.617  16.844  -6.744  0.00  0.00    +0.159 HD
ATOM      7  H   UNL     1       2.692  15.182  -7.194  0.00  0.00    +0.159 HD
ATOM      8  H   UNL     1      -0.485  16.661  -5.076  0.00  0.00    +0.159 HD
ATOM      9  H   UNL     1       0.820  17.679  -5.546  0.00  0.00    +0.159 HD
ENDROOT
BRANCH   1  10
ATOM     10  C   UNL     1      -0.784  14.143  -5.478  0.00  0.00    +0.151 C 
BRANCH  10  11
ATOM     11  C   UNL     1      -1.540  13.161  -6.329  0.00  0.00    -0.028 A 
ATOM     12  C   UNL     1      -1.127  12.890  -7.642  0.00  0.00    +0.005 A 
ATOM     13  C   UNL     1      -2.668  12.493  -5.827  0.00  0.00    +0.005 A 
ATOM     14  C   UNL     1      -1.812  11.956  -8.423  0.00  0.00    +0.000 A 
ATOM     15  C   UNL     1      -3.349  11.562  -6.610  0.00  0.00    +0.000 A 
ATOM     16  C   UNL     1      -2.919  11.292  -7.907  0.00  0.00    +0.000 A 
ENDBRANCH  10  11
ENDBRANCH   1  10
TORSDOF 2
ENDMDL
MODEL 6
REMARK VINA RESULT:    -4.925     20.483     21.047
REMARK INTER + INTRA:          -5.603
REMARK INTER:                  -5.426
REMARK INTRA:                  -0.177
REMARK UNBOUND:                -0.102
REMARK  Name = 1550473
REMARK  2 active torsions:
REMARK  status: ('A' for Active; 'I' for Inactive)
REMARK    1  A    between atoms: N_1  and  C_4
REMARK    2  A    between atoms: C_4  and  C_5
REMARK                            x       y       z     vdW  Elec       q    Type
REMARK                         _______ _______ _______ _____ _____    ______ ____
ROOT
ATOM      1  N   UNL     1      -3.830  11.469 -10.079  0.00  0.00    -0.354 N 
ATOM      2  N   UNL     1      -4.611  12.892 -11.731  0.00  0.00    -0.372 N 
ATOM      3  N   UNL     1      -2.347  12.702 -11.411  0.00  0.00    -0.372 N 
ATOM      4  C   UNL     1      -3.588  12.346 -11.063  0.00  0.00    +0.166 C 
ATOM      5  H   UNL     1      -4.794  11.263  -9.844  0.00  0.00    +0.163 HD
ATOM      6  H   UNL     1      -4.460  13.553 -12.481  0.00  0.00    +0.159 HD
ATOM      7  H   UNL     1      -5.573  12.650 -11.524  0.00  0.00    +0.159 HD
ATOM      8  H   UNL     1      -1.532  12.331 -10.942  0.00  0.00    +0.159 HD
ATOM      9  H   UNL     1      -2.176  13.372 -12.151  0.00  0.00    +0.159 HD
ENDROOT
BRANCH   1  10
ATOM     10  C   UNL     1      -2.785  10.777  -9.326  0.00  0.00    +0.151 C 
BRANCH  10  11
ATOM     11  C   UNL     1      -2.562  11.494  -8.024  0.00  0.00    -0.028 A 
ATOM     12  C   UNL     1      -1.449  12.331  -7.853  0.00  0.00    +0.005 A 
ATOM     13  C   UNL     1      -3.462  11.345  -6.957  0.00  0.00    +0.005 A 
ATOM     14  C   UNL     1      -1.258  13.020  -6.653  0.00  0.00    +0.000 A 
ATOM     15  C   UNL     1      -3.267  12.034  -5.761  0.00  0.00    +0.000 A 
ATOM     16  C   UNL     1      -2.166  12.874  -5.610  0.00  0.00    +0.000 A 
ENDBRANCH  10  11
ENDBRANCH   1  10
TORSDOF 2
ENDMDL
MODEL 7
REMARK VINA RESULT:    -4.862     20.188     21.729
REMARK INTER + INTRA:          -5.533
REMARK INTER:                  -5.417
REMARK INTRA:                  -0.116
REMARK UNBOUND:                -0.102
REMARK  Name = 1550473
REMARK  2 active torsions:
REMARK  status: ('A' for Active; 'I' for Inactive)
REMARK    1  A    between atoms: N_1  and  C_4
REMARK    2  A    between atoms: C_4  and  C_5
REMARK                            x       y       z     vdW  Elec       q    Type
REMARK                         _______ _______ _______ _____ _____    ______ ____
ROOT
ATOM      1  N   UNL     1      -0.004 -18.745  -6.365  0.00  0.00    -0.354 N 
ATOM      2  N   UNL     1      -2.277 -18.316  -6.489  0.00  0.00    -0.372 N 
ATOM      3  N   UNL     1      -1.060 -18.415  -8.431  0.00  0.00    -0.372 N 
ATOM      4  C   UNL     1      -1.098 -18.495  -7.097  0.00  0.00    +0.166 C 
ATOM      5  H   UNL     1      -0.094 -18.762  -5.356  0.00  0.00    +0.163 HD
ATOM      6  H   UNL     1      -3.120 -18.130  -7.015  0.00  0.00    +0.159 HD
ATOM      7  H   UNL     1      -2.373 -18.380  -5.483  0.00  0.00    +0.159 HD
ATOM      8  H   UNL     1      -0.200 -18.534  -8.950  0.00  0.00    +0.159 HD
ATOM      9  H   UNL     1      -1.891 -18.218  -8.975  0.00  0.00    +0.159 HD
ENDROOT
BRANCH   1  10
ATOM     10  C   UNL     1       1.317 -19.007  -6.933  0.00  0.00    +0.151 C 
BRANCH  10  11
ATOM     11  C   UNL     1       2.367 -18.447  -6.013  0.00  0.00    -0.028 A 
ATOM     12  C   UNL     1       3.483 -17.774  -6.532  0.00  0.00    +0.005 A 
ATOM     13  C   UNL     1       2.249 -18.580  -4.621  0.00  0.00    +0.005 A 
ATOM     14  C   UNL     1       4.443 -17.227  -5.677  0.00  0.00    +0.000 A 
ATOM     15  C   UNL     1       3.210 -18.034  -3.771  0.00  0.00    +0.000 A 
ATOM     16  C   UNL     1       4.305 -17.355  -4.299  0.00  0.00    +0.000 A 
ENDBRANCH  10  11
ENDBRANCH   1  10
TORSDOF 2
ENDMDL
MODEL 8
REMARK VINA RESULT:    -4.759     30.186     31.122
REMARK INTER + INTRA:          -5.417
REMARK INTER:                  -5.264
REMARK INTRA:                  -0.153
REMARK UNBOUND:                -0.102
REMARK  Name = 1550473
REMARK  2 active torsions:
REMARK  status: ('A' for Active; 'I' for Inactive)
REMARK    1  A    between atoms: N_1  and  C_4
REMARK    2  A    between atoms: C_4  and  C_5
REMARK                            x       y       z     vdW  Elec       q    Type
REMARK                         _______ _______ _______ _____ _____    ______ ____
ROOT
ATOM      1  N   UNL     1       7.535  16.287  -3.284  0.00  0.00    -0.354 N 
ATOM      2  N   UNL     1       7.745  16.359  -0.978  0.00  0.00    -0.372 N 
ATOM      3  N   UNL     1       9.040  17.759  -2.254  0.00  0.00    -0.372 N 
ATOM      4  C   UNL     1       8.107  16.803  -2.188  0.00  0.00    +0.166 C 
ATOM      5  H   UNL     1       6.857  15.543  -3.167  0.00  0.00    +0.163 HD
ATOM      6  H   UNL     1       8.156  16.732  -0.133  0.00  0.00    +0.159 HD
ATOM      7  H   UNL     1       7.033  15.648  -0.863  0.00  0.00    +0.159 HD
ATOM      8  H   UNL     1       9.362  18.133  -3.136  0.00  0.00    +0.159 HD
ATOM      9  H   UNL     1       9.472  18.137  -1.420  0.00  0.00    +0.159 HD
ENDROOT
BRANCH   1  10
ATOM     10  C   UNL     1       7.820  16.738  -4.644  0.00  0.00    +0.151 C 
BRANCH  10  11
ATOM     11  C   UNL     1       8.294  15.568  -5.461  0.00  0.00    -0.028 A 
ATOM     12  C   UNL     1       7.566  15.141  -6.582  0.00  0.00    +0.005 A 
ATOM     13  C   UNL     1       9.472  14.884  -5.123  0.00  0.00    +0.005 A 
ATOM     14  C   UNL     1       8.022  14.073  -7.359  0.00  0.00    +0.000 A 
ATOM     15  C   UNL     1       9.922  13.817  -5.900  0.00  0.00    +0.000 A 
ATOM     16  C   UNL     1       9.198  13.413  -7.019  0.00  0.00    +0.000 A 
ENDBRANCH  10  11
ENDBRANCH   1  10
TORSDOF 2
ENDMDL
MODEL 9
REMARK VINA RESULT:    -4.719      3.092      5.012
REMARK INTER + INTRA:          -5.373
REMARK INTER:                  -5.332
REMARK INTRA:                  -0.041
REMARK UNBOUND:                -0.102
REMARK  Name = 1550473
REMARK  2 active torsions:
REMARK  status: ('A' for Active; 'I' for Inactive)
REMARK    1  A    between atoms: N_1  and  C_4
REMARK    2  A    between atoms: C_4  and  C_5
REMARK                            x       y       z     vdW  Elec       q    Type
REMARK                         _______ _______ _______ _____ _____    ______ ____
ROOT
ATOM      1  N   UNL     1     -14.664  -5.748  -2.443  0.00  0.00    -0.354 N 
ATOM      2  N   UNL     1     -12.477  -6.062  -1.748  0.00  0.00    -0.372 N 
ATOM      3  N   UNL     1     -13.436  -3.994  -1.491  0.00  0.00    -0.372 N 
ATOM      4  C   UNL     1     -13.540  -5.263  -1.898  0.00  0.00    +0.166 C 
ATOM      5  H   UNL     1     -14.669  -6.712  -2.758  0.00  0.00    +0.163 HD
ATOM      6  H   UNL     1     -11.617  -5.725  -1.337  0.00  0.00    +0.159 HD
ATOM      7  H   UNL     1     -12.500  -7.037  -2.022  0.00  0.00    +0.159 HD
ATOM      8  H   UNL     1     -14.200  -3.338  -1.582  0.00  0.00    +0.159 HD
ATOM      9  H   UNL     1     -12.579  -3.635  -1.088  0.00  0.00    +0.159 HD
ENDROOT
BRANCH   1  10
ATOM     10  C   UNL     1     -15.895  -4.976  -2.602  0.00  0.00    +0.151 C 
BRANCH  10  11
ATOM     11  C   UNL     1     -16.057  -4.603  -4.050  0.00  0.00    -0.028 A 
ATOM     12  C   UNL     1     -17.310  -4.222  -4.551  0.00  0.00    +0.005 A 
ATOM     13  C   UNL     1     -14.960  -4.622  -4.924  0.00  0.00    +0.005 A 
ATOM     14  C   UNL     1     -17.455  -3.847  -5.888  0.00  0.00    +0.000 A 
ATOM     15  C   UNL     1     -15.109  -4.247  -6.259  0.00  0.00    +0.000 A 
ATOM     16  C   UNL     1     -16.356  -3.857  -6.740  0.00  0.00    +0.000 A 
ENDBRANCH  10  11
ENDBRANCH   1  10
TORSDOF 2
ENDMDL
