MODEL 1
REMARK VINA RESULT:    -5.112      0.000      0.000
REMARK INTER + INTRA:          -5.814
REMARK INTER:                  -5.710
REMARK INTRA:                  -0.104
REMARK UNBOUND:                -0.104
REMARK  Name = 1550473
REMARK  2 active torsions:
REMARK  status: ('A' for Active; 'I' for Inactive)
REMARK    1  A    between atoms: N_1  and  C_4
REMARK    2  A    between atoms: C_4  and  C_5
REMARK                            x       y       z     vdW  Elec       q    Type
REMARK                         _______ _______ _______ _____ _____    ______ ____
ROOT
ATOM      1  N   UNL     1      -6.281  -7.521 -12.339  0.00  0.00    -0.354 N 
ATOM      2  N   UNL     1      -7.441  -5.521 -12.211  0.00  0.00    -0.372 N 
ATOM      3  N   UNL     1      -6.624  -6.201 -14.244  0.00  0.00    -0.372 N 
ATOM      4  C   UNL     1      -6.774  -6.427 -12.935  0.00  0.00    +0.166 C 
ATOM      5  H   UNL     1      -6.402  -7.619 -11.337  0.00  0.00    +0.163 HD
ATOM      6  H   UNL     1      -7.827  -4.687 -12.633  0.00  0.00    +0.159 HD
ATOM      7  H   UNL     1      -7.600  -5.644 -11.218  0.00  0.00    +0.159 HD
ATOM      8  H   UNL     1      -6.125  -6.843 -14.845  0.00  0.00    +0.159 HD
ATOM      9  H   UNL     1      -6.993  -5.367 -14.683  0.00  0.00    +0.159 HD
ENDROOT
BRANCH   1  10
ATOM     10  C   UNL     1      -5.585  -8.594 -13.046  0.00  0.00    +0.151 C 
BRANCH  10  11
ATOM     11  C   UNL     1      -6.432  -9.837 -13.009  0.00  0.00    -0.028 A 
ATOM     12  C   UNL     1      -7.799  -9.776 -13.314  0.00  0.00    +0.005 A 
ATOM     13  C   UNL     1      -5.871 -11.079 -12.674  0.00  0.00    +0.005 A 
ATOM     14  C   UNL     1      -8.580 -10.934 -13.309  0.00  0.00    +0.000 A 
ATOM     15  C   UNL     1      -6.654 -12.233 -12.669  0.00  0.00    +0.000 A 
ATOM     16  C   UNL     1      -8.008 -12.161 -12.989  0.00  0.00    +0.000 A 
ENDBRANCH  10  11
ENDBRANCH   1  10
TORSDOF 2
ENDMDL
MODEL 2
REMARK VINA RESULT:    -4.744     11.257     14.030
REMARK INTER + INTRA:          -5.403
REMARK INTER:                  -5.258
REMARK INTRA:                  -0.145
REMARK UNBOUND:                -0.104
REMARK  Name = 1550473
REMARK  2 active torsions:
REMARK  status: ('A' for Active; 'I' for Inactive)
REMARK    1  A    between atoms: N_1  and  C_4
REMARK    2  A    between atoms: C_4  and  C_5
REMARK                            x       y       z     vdW  Elec       q    Type
REMARK                         _______ _______ _______ _____ _____    ______ ____
ROOT
ATOM      1  N   UNL     1      -4.236   1.724 -14.532  0.00  0.00    -0.354 N 
ATOM      2  N   UNL     1      -2.634   0.091 -14.897  0.00  0.00    -0.372 N 
ATOM      3  N   UNL     1      -3.139   1.549 -16.596  0.00  0.00    -0.372 N 
ATOM      4  C   UNL     1      -3.347   1.133 -15.342  0.00  0.00    +0.166 C 
ATOM      5  H   UNL     1      -4.368   1.342 -13.603  0.00  0.00    +0.163 HD
ATOM      6  H   UNL     1      -1.953  -0.372 -15.484  0.00  0.00    +0.159 HD
ATOM      7  H   UNL     1      -2.735  -0.259 -13.952  0.00  0.00    +0.159 HD
ATOM      8  H   UNL     1      -3.649   2.326 -16.994  0.00  0.00    +0.159 HD
ATOM      9  H   UNL     1      -2.470   1.090 -17.202  0.00  0.00    +0.159 HD
ENDROOT
BRANCH   1  10
ATOM     10  C   UNL     1      -5.024   2.898 -14.902  0.00  0.00    +0.151 C 
BRANCH  10  11
ATOM     11  C   UNL     1      -4.232   4.138 -14.591  0.00  0.00    -0.028 A 
ATOM     12  C   UNL     1      -3.867   5.025 -15.615  0.00  0.00    +0.005 A 
ATOM     13  C   UNL     1      -3.849   4.436 -13.274  0.00  0.00    +0.005 A 
ATOM     14  C   UNL     1      -3.157   6.192 -15.323  0.00  0.00    +0.000 A 
ATOM     15  C   UNL     1      -3.140   5.602 -12.987  0.00  0.00    +0.000 A 
ATOM     16  C   UNL     1      -2.797   6.481 -14.011  0.00  0.00    +0.000 A 
ENDBRANCH  10  11
ENDBRANCH   1  10
TORSDOF 2
ENDMDL
MODEL 3
REMARK VINA RESULT:    -4.669      1.301      2.126
REMARK INTER + INTRA:          -5.319
REMARK INTER:                  -5.149
REMARK INTRA:                  -0.170
REMARK UNBOUND:                -0.104
REMARK  Name = 1550473
REMARK  2 active torsions:
REMARK  status: ('A' for Active; 'I' for Inactive)
REMARK    1  A    between atoms: N_1  and  C_4
REMARK    2  A    between atoms: C_4  and  C_5
REMARK                            x       y       z     vdW  Elec       q    Type
REMARK                         _______ _______ _______ _____ _____    ______ ____
ROOT
ATOM      1  N   UNL     1      -7.819  -7.703 -13.080  0.00  0.00    -0.354 N 
ATOM      2  N   UNL     1      -7.347  -5.690 -12.036  0.00  0.00    -0.372 N 
ATOM      3  N   UNL     1      -6.539  -6.058 -14.152  0.00  0.00    -0.372 N 
ATOM      4  C   UNL     1      -7.237  -6.496 -13.098  0.00  0.00    +0.166 C 
ATOM      5  H   UNL     1      -8.308  -7.988 -12.239  0.00  0.00    +0.163 HD
ATOM      6  H   UNL     1      -6.921  -4.773 -12.022  0.00  0.00    +0.159 HD
ATOM      7  H   UNL     1      -7.875  -5.959 -11.215  0.00  0.00    +0.159 HD
ATOM      8  H   UNL     1      -6.413  -6.621 -14.983  0.00  0.00    +0.159 HD
ATOM      9  H   UNL     1      -6.096  -5.148 -14.153  0.00  0.00    +0.159 HD
ENDROOT
BRANCH   1  10
ATOM     10  C   UNL     1      -7.804  -8.635 -14.206  0.00  0.00    +0.151 C 
BRANCH  10  11
ATOM     11  C   UNL     1      -6.734  -9.666 -13.975  0.00  0.00    -0.028 A 
ATOM     12  C   UNL     1      -5.459  -9.508 -14.539  0.00  0.00    +0.005 A 
ATOM     13  C   UNL     1      -6.986 -10.801 -13.189  0.00  0.00    +0.005 A 
ATOM     14  C   UNL     1      -4.456 -10.450 -14.300  0.00  0.00    +0.000 A 
ATOM     15  C   UNL     1      -5.982 -11.740 -12.954  0.00  0.00    +0.000 A 
ATOM     16  C   UNL     1      -4.717 -11.563 -13.508  0.00  0.00    +0.000 A 
ENDBRANCH  10  11
ENDBRANCH   1  10
TORSDOF 2
ENDMDL
MODEL 4
REMARK VINA RESULT:    -4.335      8.136      9.627
REMARK INTER + INTRA:          -4.946
REMARK INTER:                  -4.823
REMARK INTRA:                  -0.123
REMARK UNBOUND:                -0.104
REMARK  Name = 1550473
REMARK  2 active torsions:
REMARK  status: ('A' for Active; 'I' for Inactive)
REMARK    1  A    between atoms: N_1  and  C_4
REMARK    2  A    between atoms: C_4  and  C_5
REMARK                            x       y       z     vdW  Elec       q    Type
REMARK                         _______ _______ _______ _____ _____    ______ ____
ROOT
ATOM      1  N   UNL     1       1.193 -14.259  -9.667  0.00  0.00    -0.354 N 
ATOM      2  N   UNL     1       3.381 -13.573  -9.344  0.00  0.00    -0.372 N 
ATOM      3  N   UNL     1       2.489 -15.137  -7.923  0.00  0.00    -0.372 N 
ATOM      4  C   UNL     1       2.340 -14.329  -8.978  0.00  0.00    +0.166 C 
ATOM      5  H   UNL     1       1.134 -13.604 -10.438  0.00  0.00    +0.163 HD
ATOM      6  H   UNL     1       4.260 -13.607  -8.846  0.00  0.00    +0.159 HD
ATOM      7  H   UNL     1       3.335 -12.953 -10.144  0.00  0.00    +0.159 HD
ATOM      8  H   UNL     1       1.739 -15.729  -7.591  0.00  0.00    +0.159 HD
ATOM      9  H   UNL     1       3.357 -15.177  -7.404  0.00  0.00    +0.159 HD
ENDROOT
BRANCH   1  10
ATOM     10  C   UNL     1       0.017 -15.079  -9.383  0.00  0.00    +0.151 C 
BRANCH  10  11
ATOM     11  C   UNL     1      -1.046 -14.785 -10.405  0.00  0.00    -0.028 A 
ATOM     12  C   UNL     1      -2.321 -15.359 -10.292  0.00  0.00    +0.005 A 
ATOM     13  C   UNL     1      -0.786 -13.928 -11.486  0.00  0.00    +0.005 A 
ATOM     14  C   UNL     1      -3.318 -15.062 -11.225  0.00  0.00    +0.000 A 
ATOM     15  C   UNL     1      -1.784 -13.635 -12.415  0.00  0.00    +0.000 A 
ATOM     16  C   UNL     1      -3.050 -14.200 -12.283  0.00  0.00    +0.000 A 
ENDBRANCH  10  11
ENDBRANCH   1  10
TORSDOF 2
ENDMDL
MODEL 5
REMARK VINA RESULT:    -4.269     15.393     16.157
REMARK INTER + INTRA:          -4.872
REMARK INTER:                  -4.747
REMARK INTRA:                  -0.126
REMARK UNBOUND:                -0.104
REMARK  Name = 1550473
REMARK  2 active torsions:
REMARK  status: ('A' for Active; 'I' for Inactive)
REMARK    1  A    between atoms: N_1  and  C_4
REMARK    2  A    between atoms: C_4  and  C_5
REMARK                            x       y       z     vdW  Elec       q    Type
REMARK                         _______ _______ _______ _____ _____    ______ ____
ROOT
ATOM      1  N   UNL     1      -9.294 -13.097   3.085  0.00  0.00    -0.354 N 
ATOM      2  N   UNL     1      -9.725 -11.779   4.940  0.00  0.00    -0.372 N 
ATOM      3  N   UNL     1      -7.730 -12.907   4.820  0.00  0.00    -0.372 N 
ATOM      4  C   UNL     1      -8.911 -12.604   4.270  0.00  0.00    +0.166 C 
ATOM      5  H   UNL     1     -10.214 -12.853   2.737  0.00  0.00    +0.163 HD
ATOM      6  H   UNL     1      -9.462 -11.389   5.835  0.00  0.00    +0.159 HD
ATOM      7  H   UNL     1     -10.625 -11.501   4.568  0.00  0.00    +0.159 HD
ATOM      8  H   UNL     1      -7.072 -13.528   4.368  0.00  0.00    +0.159 HD
ATOM      9  H   UNL     1      -7.454 -12.536   5.720  0.00  0.00    +0.159 HD
ENDROOT
BRANCH   1  10
ATOM     10  C   UNL     1      -8.460 -13.960   2.250  0.00  0.00    +0.151 C 
BRANCH  10  11
ATOM     11  C   UNL     1      -9.335 -14.686   1.266  0.00  0.00    -0.028 A 
ATOM     12  C   UNL     1     -10.691 -14.354   1.139  0.00  0.00    +0.005 A 
ATOM     13  C   UNL     1      -8.812 -15.704   0.454  0.00  0.00    +0.005 A 
ATOM     14  C   UNL     1     -11.498 -15.008   0.205  0.00  0.00    +0.000 A 
ATOM     15  C   UNL     1      -9.620 -16.355  -0.478  0.00  0.00    +0.000 A 
ATOM     16  C   UNL     1     -10.962 -16.005  -0.604  0.00  0.00    +0.000 A 
ENDBRANCH  10  11
ENDBRANCH   1  10
TORSDOF 2
ENDMDL
MODEL 6
REMARK VINA RESULT:    -4.253     11.900     13.296
REMARK INTER + INTRA:          -4.854
REMARK INTER:                  -4.695
REMARK INTRA:                  -0.159
REMARK UNBOUND:                -0.104
REMARK  Name = 1550473
REMARK  2 active torsions:
REMARK  status: ('A' for Active; 'I' for Inactive)
REMARK    1  A    between atoms: N_1  and  C_4
REMARK    2  A    between atoms: C_4  and  C_5
REMARK                            x       y       z     vdW  Elec       q    Type
REMARK                         _______ _______ _______ _____ _____    ______ ____
ROOT
ATOM      1  N   UNL     1      -4.664   5.059 -13.997  0.00  0.00    -0.354 N 
ATOM      2  N   UNL     1      -4.110   7.299 -14.190  0.00  0.00    -0.372 N 
ATOM      3  N   UNL     1      -5.973   6.520 -15.279  0.00  0.00    -0.372 N 
ATOM      4  C   UNL     1      -4.921   6.278 -14.490  0.00  0.00    +0.166 C 
ATOM      5  H   UNL     1      -3.834   4.935 -13.429  0.00  0.00    +0.163 HD
ATOM      6  H   UNL     1      -4.280   8.231 -14.544  0.00  0.00    +0.159 HD
ATOM      7  H   UNL     1      -3.307   7.182 -13.585  0.00  0.00    +0.159 HD
ATOM      8  H   UNL     1      -6.620   5.791 -15.548  0.00  0.00    +0.159 HD
ATOM      9  H   UNL     1      -6.154   7.444 -15.653  0.00  0.00    +0.159 HD
ENDROOT
BRANCH   1  10
ATOM     10  C   UNL     1      -5.516   3.892 -14.219  0.00  0.00    +0.151 C 
BRANCH  10  11
ATOM     11  C   UNL     1      -4.731   2.845 -14.961  0.00  0.00    -0.028 A 
ATOM     12  C   UNL     1      -4.649   2.877 -16.361  0.00  0.00    +0.005 A 
ATOM     13  C   UNL     1      -4.062   1.823 -14.270  0.00  0.00    +0.005 A 
ATOM     14  C   UNL     1      -3.895   1.922 -17.049  0.00  0.00    +0.000 A 
ATOM     15  C   UNL     1      -3.312   0.872 -14.960  0.00  0.00    +0.000 A 
ATOM     16  C   UNL     1      -3.226   0.923 -16.350  0.00  0.00    +0.000 A 
ENDBRANCH  10  11
ENDBRANCH   1  10
TORSDOF 2
ENDMDL
MODEL 7
REMARK VINA RESULT:    -4.249     15.137     16.499
REMARK INTER + INTRA:          -4.849
REMARK INTER:                  -4.717
REMARK INTRA:                  -0.132
REMARK UNBOUND:                -0.104
REMARK  Name = 1550473
REMARK  2 active torsions:
REMARK  status: ('A' for Active; 'I' for Inactive)
REMARK    1  A    between atoms: N_1  and  C_4
REMARK    2  A    between atoms: C_4  and  C_5
REMARK                            x       y       z     vdW  Elec       q    Type
REMARK                         _______ _______ _______ _____ _____    ______ ____
ROOT
ATOM      1  N   UNL     1       8.252   0.210 -13.640  0.00  0.00    -0.354 N 
ATOM      2  N   UNL     1       8.474   2.325 -12.722  0.00  0.00    -0.372 N 
ATOM      3  N   UNL     1       9.073   0.502 -11.465  0.00  0.00    -0.372 N 
ATOM      4  C   UNL     1       8.599   0.997 -12.613  0.00  0.00    +0.166 C 
ATOM      5  H   UNL     1       7.871   0.645 -14.472  0.00  0.00    +0.163 HD
ATOM      6  H   UNL     1       8.731   2.944 -11.965  0.00  0.00    +0.159 HD
ATOM      7  H   UNL     1       8.136   2.760 -13.572  0.00  0.00    +0.159 HD
ATOM      8  H   UNL     1       9.186  -0.492 -11.316  0.00  0.00    +0.159 HD
ATOM      9  H   UNL     1       9.325   1.104 -10.691  0.00  0.00    +0.159 HD
ENDROOT
BRANCH   1  10
ATOM     10  C   UNL     1       8.400  -1.244 -13.643  0.00  0.00    +0.151 C 
BRANCH  10  11
ATOM     11  C   UNL     1       7.282  -1.850 -14.446  0.00  0.00    -0.028 A 
ATOM     12  C   UNL     1       6.391  -1.032 -15.156  0.00  0.00    +0.005 A 
ATOM     13  C   UNL     1       7.113  -3.242 -14.506  0.00  0.00    +0.005 A 
ATOM     14  C   UNL     1       5.371  -1.596 -15.926  0.00  0.00    +0.000 A 
ATOM     15  C   UNL     1       6.092  -3.800 -15.276  0.00  0.00    +0.000 A 
ATOM     16  C   UNL     1       5.223  -2.977 -15.988  0.00  0.00    +0.000 A 
ENDBRANCH  10  11
ENDBRANCH   1  10
TORSDOF 2
ENDMDL
MODEL 8
REMARK VINA RESULT:    -4.241     29.953     31.254
REMARK INTER + INTRA:          -4.841
REMARK INTER:                  -4.718
REMARK INTRA:                  -0.123
REMARK UNBOUND:                -0.104
REMARK  Name = 1550473
REMARK  2 active torsions:
REMARK  status: ('A' for Active; 'I' for Inactive)
REMARK    1  A    between atoms: N_1  and  C_4
REMARK    2  A    between atoms: C_4  and  C_5
REMARK                            x       y       z     vdW  Elec       q    Type
REMARK                         _______ _______ _______ _____ _____    ______ ____
ROOT
ATOM      1  N   UNL     1       6.379   5.339  10.687  0.00  0.00    -0.354 N 
ATOM      2  N   UNL     1       5.792   3.112  10.929  0.00  0.00    -0.372 N 
ATOM      3  N   UNL     1       5.369   4.564  12.654  0.00  0.00    -0.372 N 
ATOM      4  C   UNL     1       5.850   4.354  11.424  0.00  0.00    +0.166 C 
ATOM      5  H   UNL     1       6.754   5.109   9.774  0.00  0.00    +0.163 HD
ATOM      6  H   UNL     1       5.395   2.349  11.461  0.00  0.00    +0.159 HD
ATOM      7  H   UNL     1       6.125   2.893   9.998  0.00  0.00    +0.159 HD
ATOM      8  H   UNL     1       5.388   5.477  13.088  0.00  0.00    +0.159 HD
ATOM      9  H   UNL     1       4.979   3.811  13.207  0.00  0.00    +0.159 HD
ENDROOT
BRANCH   1  10
ATOM     10  C   UNL     1       6.440   6.736  11.112  0.00  0.00    +0.151 C 
BRANCH  10  11
ATOM     11  C   UNL     1       6.530   7.616   9.896  0.00  0.00    -0.028 A 
ATOM     12  C   UNL     1       7.280   8.801   9.928  0.00  0.00    +0.005 A 
ATOM     13  C   UNL     1       5.872   7.268   8.706  0.00  0.00    +0.005 A 
ATOM     14  C   UNL     1       7.388   9.604   8.790  0.00  0.00    +0.000 A 
ATOM     15  C   UNL     1       5.982   8.073   7.572  0.00  0.00    +0.000 A 
ATOM     16  C   UNL     1       6.742   9.239   7.614  0.00  0.00    +0.000 A 
ENDBRANCH  10  11
ENDBRANCH   1  10
TORSDOF 2
ENDMDL
MODEL 9
REMARK VINA RESULT:    -4.192     11.111     12.081
REMARK INTER + INTRA:          -4.786
REMARK INTER:                  -4.671
REMARK INTRA:                  -0.115
REMARK UNBOUND:                -0.104
REMARK  Name = 1550473
REMARK  2 active torsions:
REMARK  status: ('A' for Active; 'I' for Inactive)
REMARK    1  A    between atoms: N_1  and  C_4
REMARK    2  A    between atoms: C_4  and  C_5
REMARK                            x       y       z     vdW  Elec       q    Type
REMARK                         _______ _______ _______ _____ _____    ______ ____
ROOT
ATOM      1  N   UNL     1      -5.474   0.597 -18.611  0.00  0.00    -0.354 N 
ATOM      2  N   UNL     1      -6.339  -1.205 -19.782  0.00  0.00    -0.372 N 
ATOM      3  N   UNL     1      -4.550  -0.068 -20.659  0.00  0.00    -0.372 N 
ATOM      4  C   UNL     1      -5.447  -0.213 -19.678  0.00  0.00    +0.166 C 
ATOM      5  H   UNL     1      -6.198   0.453 -17.917  0.00  0.00    +0.163 HD
ATOM      6  H   UNL     1      -6.341  -1.833 -20.574  0.00  0.00    +0.159 HD
ATOM      7  H   UNL     1      -7.033  -1.374 -19.064  0.00  0.00    +0.159 HD
ATOM      8  H   UNL     1      -3.853   0.665 -20.644  0.00  0.00    +0.159 HD
ATOM      9  H   UNL     1      -4.543  -0.680 -21.466  0.00  0.00    +0.159 HD
ENDROOT
BRANCH   1  10
ATOM     10  C   UNL     1      -4.513   1.673 -18.376  0.00  0.00    +0.151 C 
BRANCH  10  11
ATOM     11  C   UNL     1      -4.291   1.820 -16.896  0.00  0.00    -0.028 A 
ATOM     12  C   UNL     1      -4.700   2.982 -16.226  0.00  0.00    +0.005 A 
ATOM     13  C   UNL     1      -3.678   0.797 -16.157  0.00  0.00    +0.005 A 
ATOM     14  C   UNL     1      -4.521   3.106 -14.846  0.00  0.00    +0.000 A 
ATOM     15  C   UNL     1      -3.500   0.925 -14.779  0.00  0.00    +0.000 A 
ATOM     16  C   UNL     1      -3.924   2.078 -14.124  0.00  0.00    +0.000 A 
ENDBRANCH  10  11
ENDBRANCH   1  10
TORSDOF 2
ENDMDL
