MODEL 1
REMARK VINA RESULT:    -5.097      0.000      0.000
REMARK INTER + INTRA:          -5.866
REMARK INTER:                  -5.693
REMARK INTRA:                  -0.172
REMARK UNBOUND:                -0.172
REMARK  Name = 1550473
REMARK  2 active torsions:
REMARK  status: ('A' for Active; 'I' for Inactive)
REMARK    1  A    between atoms: N_1  and  C_4
REMARK    2  A    between atoms: C_4  and  C_5
REMARK                            x       y       z     vdW  Elec       q    Type
REMARK                         _______ _______ _______ _____ _____    ______ ____
ROOT
ATOM      1  N   UNL     1      -1.896   2.390  10.506  0.00  0.00    -0.354 N 
ATOM      2  N   UNL     1      -0.701   0.434  10.834  0.00  0.00    -0.372 N 
ATOM      3  N   UNL     1      -2.262   0.511   9.155  0.00  0.00    -0.372 N 
ATOM      4  C   UNL     1      -1.629   1.123  10.161  0.00  0.00    +0.166 C 
ATOM      5  H   UNL     1      -1.404   2.787  11.298  0.00  0.00    +0.163 HD
ATOM      6  H   UNL     1      -0.475  -0.522  10.594  0.00  0.00    +0.159 HD
ATOM      7  H   UNL     1      -0.177   0.848  11.595  0.00  0.00    +0.159 HD
ATOM      8  H   UNL     1      -2.978   0.974   8.611  0.00  0.00    +0.159 HD
ATOM      9  H   UNL     1      -2.059  -0.450   8.907  0.00  0.00    +0.159 HD
ENDROOT
BRANCH   1  10
ATOM     10  C   UNL     1      -2.851   3.245   9.803  0.00  0.00    +0.151 C 
BRANCH  10  11
ATOM     11  C   UNL     1      -2.096   4.209   8.930  0.00  0.00    -0.028 A 
ATOM     12  C   UNL     1      -1.760   5.486   9.404  0.00  0.00    +0.005 A 
ATOM     13  C   UNL     1      -1.709   3.850   7.630  0.00  0.00    +0.005 A 
ATOM     14  C   UNL     1      -1.033   6.371   8.604  0.00  0.00    +0.000 A 
ATOM     15  C   UNL     1      -0.984   4.737   6.834  0.00  0.00    +0.000 A 
ATOM     16  C   UNL     1      -0.644   5.996   7.323  0.00  0.00    +0.000 A 
ENDBRANCH  10  11
ENDBRANCH   1  10
TORSDOF 2
ENDMDL
MODEL 2
REMARK VINA RESULT:    -4.690      8.317      9.172
REMARK INTER + INTRA:          -5.410
REMARK INTER:                  -5.278
REMARK INTRA:                  -0.132
REMARK UNBOUND:                -0.172
REMARK  Name = 1550473
REMARK  2 active torsions:
REMARK  status: ('A' for Active; 'I' for Inactive)
REMARK    1  A    between atoms: N_1  and  C_4
REMARK    2  A    between atoms: C_4  and  C_5
REMARK                            x       y       z     vdW  Elec       q    Type
REMARK                         _______ _______ _______ _____ _____    ______ ____
ROOT
ATOM      1  N   UNL     1      -5.642   5.336   0.625  0.00  0.00    -0.354 N 
ATOM      2  N   UNL     1      -5.656   3.247  -0.374  0.00  0.00    -0.372 N 
ATOM      3  N   UNL     1      -3.654   4.137   0.306  0.00  0.00    -0.372 N 
ATOM      4  C   UNL     1      -4.981   4.254   0.192  0.00  0.00    +0.166 C 
ATOM      5  H   UNL     1      -6.644   5.377   0.482  0.00  0.00    +0.163 HD
ATOM      6  H   UNL     1      -5.185   2.416  -0.706  0.00  0.00    +0.159 HD
ATOM      7  H   UNL     1      -6.664   3.270  -0.473  0.00  0.00    +0.159 HD
ATOM      8  H   UNL     1      -3.085   4.865   0.718  0.00  0.00    +0.159 HD
ATOM      9  H   UNL     1      -3.163   3.319  -0.032  0.00  0.00    +0.159 HD
ENDROOT
BRANCH   1  10
ATOM     10  C   UNL     1      -5.007   6.465   1.304  0.00  0.00    +0.151 C 
BRANCH  10  11
ATOM     11  C   UNL     1      -5.865   6.885   2.465  0.00  0.00    -0.028 A 
ATOM     12  C   UNL     1      -5.317   7.622   3.525  0.00  0.00    +0.005 A 
ATOM     13  C   UNL     1      -7.228   6.554   2.508  0.00  0.00    +0.005 A 
ATOM     14  C   UNL     1      -6.121   8.038   4.589  0.00  0.00    +0.000 A 
ATOM     15  C   UNL     1      -8.027   6.971   3.573  0.00  0.00    +0.000 A 
ATOM     16  C   UNL     1      -7.474   7.715   4.612  0.00  0.00    +0.000 A 
ENDBRANCH  10  11
ENDBRANCH   1  10
TORSDOF 2
ENDMDL
MODEL 3
REMARK VINA RESULT:    -4.625     27.990     29.371
REMARK INTER + INTRA:          -5.338
REMARK INTER:                  -5.194
REMARK INTRA:                  -0.144
REMARK UNBOUND:                -0.172
REMARK  Name = 1550473
REMARK  2 active torsions:
REMARK  status: ('A' for Active; 'I' for Inactive)
REMARK    1  A    between atoms: N_1  and  C_4
REMARK    2  A    between atoms: C_4  and  C_5
REMARK                            x       y       z     vdW  Elec       q    Type
REMARK                         _______ _______ _______ _____ _____    ______ ____
ROOT
ATOM      1  N   UNL     1      -6.240  -5.648 -19.322  0.00  0.00    -0.354 N 
ATOM      2  N   UNL     1      -5.758  -6.995 -21.143  0.00  0.00    -0.372 N 
ATOM      3  N   UNL     1      -4.071  -6.456 -19.685  0.00  0.00    -0.372 N 
ATOM      4  C   UNL     1      -5.357  -6.357 -20.037  0.00  0.00    +0.166 C 
ATOM      5  H   UNL     1      -7.194  -5.588 -19.659  0.00  0.00    +0.163 HD
ATOM      6  H   UNL     1      -5.115  -7.541 -21.701  0.00  0.00    +0.159 HD
ATOM      7  H   UNL     1      -6.722  -6.971 -21.452  0.00  0.00    +0.159 HD
ATOM      8  H   UNL     1      -3.703  -5.994 -18.864  0.00  0.00    +0.159 HD
ATOM      9  H   UNL     1      -3.409  -6.988 -20.237  0.00  0.00    +0.159 HD
ENDROOT
BRANCH   1  10
ATOM     10  C   UNL     1      -5.917  -4.961 -18.073  0.00  0.00    +0.151 C 
BRANCH  10  11
ATOM     11  C   UNL     1      -6.434  -3.550 -18.141  0.00  0.00    -0.028 A 
ATOM     12  C   UNL     1      -7.162  -3.112 -19.257  0.00  0.00    +0.005 A 
ATOM     13  C   UNL     1      -6.203  -2.649 -17.091  0.00  0.00    +0.005 A 
ATOM     14  C   UNL     1      -7.668  -1.810 -19.307  0.00  0.00    +0.000 A 
ATOM     15  C   UNL     1      -6.709  -1.350 -17.145  0.00  0.00    +0.000 A 
ATOM     16  C   UNL     1      -7.444  -0.932 -18.252  0.00  0.00    +0.000 A 
ENDBRANCH  10  11
ENDBRANCH   1  10
TORSDOF 2
ENDMDL
MODEL 4
REMARK VINA RESULT:    -4.359      2.211      3.410
REMARK INTER + INTRA:          -5.040
REMARK INTER:                  -4.903
REMARK INTRA:                  -0.138
REMARK UNBOUND:                -0.172
REMARK  Name = 1550473
REMARK  2 active torsions:
REMARK  status: ('A' for Active; 'I' for Inactive)
REMARK    1  A    between atoms: N_1  and  C_4
REMARK    2  A    between atoms: C_4  and  C_5
REMARK                            x       y       z     vdW  Elec       q    Type
REMARK                         _______ _______ _______ _____ _____    ______ ____
ROOT
ATOM      1  N   UNL     1      -2.859   3.599  11.578  0.00  0.00    -0.354 N 
ATOM      2  N   UNL     1      -3.959   2.651  13.382  0.00  0.00    -0.372 N 
ATOM      3  N   UNL     1      -4.716   4.650  12.547  0.00  0.00    -0.372 N 
ATOM      4  C   UNL     1      -3.839   3.642  12.490  0.00  0.00    +0.166 C 
ATOM      5  H   UNL     1      -2.208   2.823  11.607  0.00  0.00    +0.163 HD
ATOM      6  H   UNL     1      -4.690   2.655  14.080  0.00  0.00    +0.159 HD
ATOM      7  H   UNL     1      -3.335   1.854  13.380  0.00  0.00    +0.159 HD
ATOM      8  H   UNL     1      -4.676   5.431  11.906  0.00  0.00    +0.159 HD
ATOM      9  H   UNL     1      -5.448   4.677  13.246  0.00  0.00    +0.159 HD
ENDROOT
BRANCH   1  10
ATOM     10  C   UNL     1      -2.674   4.600  10.529  0.00  0.00    +0.151 C 
BRANCH  10  11
ATOM     11  C   UNL     1      -2.440   3.901   9.218  0.00  0.00    -0.028 A 
ATOM     12  C   UNL     1      -3.039   2.660   8.957  0.00  0.00    +0.005 A 
ATOM     13  C   UNL     1      -1.625   4.476   8.232  0.00  0.00    +0.005 A 
ATOM     14  C   UNL     1      -2.846   2.024   7.728  0.00  0.00    +0.000 A 
ATOM     15  C   UNL     1      -1.434   3.838   7.006  0.00  0.00    +0.000 A 
ATOM     16  C   UNL     1      -2.047   2.613   6.754  0.00  0.00    +0.000 A 
ENDBRANCH  10  11
ENDBRANCH   1  10
TORSDOF 2
ENDMDL
MODEL 5
REMARK VINA RESULT:    -4.192     28.500     29.968
REMARK INTER + INTRA:          -4.855
REMARK INTER:                  -4.707
REMARK INTRA:                  -0.147
REMARK UNBOUND:                -0.172
REMARK  Name = 1550473
REMARK  2 active torsions:
REMARK  status: ('A' for Active; 'I' for Inactive)
REMARK    1  A    between atoms: N_1  and  C_4
REMARK    2  A    between atoms: C_4  and  C_5
REMARK                            x       y       z     vdW  Elec       q    Type
REMARK                         _______ _______ _______ _____ _____    ______ ____
ROOT
ATOM      1  N   UNL     1      -5.764  -2.938 -21.440  0.00  0.00    -0.354 N 
ATOM      2  N   UNL     1      -3.956  -3.815 -22.590  0.00  0.00    -0.372 N 
ATOM      3  N   UNL     1      -4.223  -1.538 -22.515  0.00  0.00    -0.372 N 
ATOM      4  C   UNL     1      -4.659  -2.755 -22.175  0.00  0.00    +0.166 C 
ATOM      5  H   UNL     1      -6.059  -3.888 -21.241  0.00  0.00    +0.163 HD
ATOM      6  H   UNL     1      -3.116  -3.708 -23.143  0.00  0.00    +0.159 HD
ATOM      7  H   UNL     1      -4.227  -4.762 -22.351  0.00  0.00    +0.159 HD
ATOM      8  H   UNL     1      -4.713  -0.697 -22.238  0.00  0.00    +0.159 HD
ATOM      9  H   UNL     1      -3.392  -1.411 -23.077  0.00  0.00    +0.159 HD
ENDROOT
BRANCH   1  10
ATOM     10  C   UNL     1      -6.572  -1.850 -20.892  0.00  0.00    +0.151 C 
BRANCH  10  11
ATOM     11  C   UNL     1      -6.612  -1.974 -19.394  0.00  0.00    -0.028 A 
ATOM     12  C   UNL     1      -6.378  -3.210 -18.775  0.00  0.00    +0.005 A 
ATOM     13  C   UNL     1      -6.879  -0.857 -18.587  0.00  0.00    +0.005 A 
ATOM     14  C   UNL     1      -6.385  -3.319 -17.382  0.00  0.00    +0.000 A 
ATOM     15  C   UNL     1      -6.887  -0.970 -17.197  0.00  0.00    +0.000 A 
ATOM     16  C   UNL     1      -6.637  -2.201 -16.595  0.00  0.00    +0.000 A 
ENDBRANCH  10  11
ENDBRANCH   1  10
TORSDOF 2
ENDMDL
MODEL 6
REMARK VINA RESULT:    -4.188      5.529      7.191
REMARK INTER + INTRA:          -4.850
REMARK INTER:                  -4.728
REMARK INTRA:                  -0.122
REMARK UNBOUND:                -0.172
REMARK  Name = 1550473
REMARK  2 active torsions:
REMARK  status: ('A' for Active; 'I' for Inactive)
REMARK    1  A    between atoms: N_1  and  C_4
REMARK    2  A    between atoms: C_4  and  C_5
REMARK                            x       y       z     vdW  Elec       q    Type
REMARK                         _______ _______ _______ _____ _____    ______ ____
ROOT
ATOM      1  N   UNL     1       1.629   9.377   7.888  0.00  0.00    -0.354 N 
ATOM      2  N   UNL     1       3.636   9.950   8.893  0.00  0.00    -0.372 N 
ATOM      3  N   UNL     1       2.840  11.255   7.182  0.00  0.00    -0.372 N 
ATOM      4  C   UNL     1       2.689  10.192   7.979  0.00  0.00    +0.166 C 
ATOM      5  H   UNL     1       1.589   8.571   8.501  0.00  0.00    +0.163 HD
ATOM      6  H   UNL     1       4.445  10.549   8.988  0.00  0.00    +0.159 HD
ATOM      7  H   UNL     1       3.570   9.169   9.535  0.00  0.00    +0.159 HD
ATOM      8  H   UNL     1       2.163  11.490   6.468  0.00  0.00    +0.159 HD
ATOM      9  H   UNL     1       3.648  11.861   7.254  0.00  0.00    +0.159 HD
ENDROOT
BRANCH   1  10
ATOM     10  C   UNL     1       0.516   9.583   6.964  0.00  0.00    +0.151 C 
BRANCH  10  11
ATOM     11  C   UNL     1      -0.153   8.263   6.698  0.00  0.00    -0.028 A 
ATOM     12  C   UNL     1      -0.911   8.070   5.534  0.00  0.00    +0.005 A 
ATOM     13  C   UNL     1      -0.027   7.198   7.604  0.00  0.00    +0.005 A 
ATOM     14  C   UNL     1      -1.507   6.834   5.272  0.00  0.00    +0.000 A 
ATOM     15  C   UNL     1      -0.625   5.966   7.339  0.00  0.00    +0.000 A 
ATOM     16  C   UNL     1      -1.363   5.784   6.172  0.00  0.00    +0.000 A 
ENDBRANCH  10  11
ENDBRANCH   1  10
TORSDOF 2
ENDMDL
MODEL 7
REMARK VINA RESULT:    -4.098      2.943      4.017
REMARK INTER + INTRA:          -4.749
REMARK INTER:                  -4.618
REMARK INTRA:                  -0.131
REMARK UNBOUND:                -0.172
REMARK  Name = 1550473
REMARK  2 active torsions:
REMARK  status: ('A' for Active; 'I' for Inactive)
REMARK    1  A    between atoms: N_1  and  C_4
REMARK    2  A    between atoms: C_4  and  C_5
REMARK                            x       y       z     vdW  Elec       q    Type
REMARK                         _______ _______ _______ _____ _____    ______ ____
ROOT
ATOM      1  N   UNL     1      -3.054   4.566  12.828  0.00  0.00    -0.354 N 
ATOM      2  N   UNL     1      -3.434   3.541  14.870  0.00  0.00    -0.372 N 
ATOM      3  N   UNL     1      -2.202   5.476  14.813  0.00  0.00    -0.372 N 
ATOM      4  C   UNL     1      -2.893   4.537  14.158  0.00  0.00    +0.166 C 
ATOM      5  H   UNL     1      -3.563   3.808  12.388  0.00  0.00    +0.163 HD
ATOM      6  H   UNL     1      -3.332   3.494  15.875  0.00  0.00    +0.159 HD
ATOM      7  H   UNL     1      -3.981   2.809  14.433  0.00  0.00    +0.159 HD
ATOM      8  H   UNL     1      -1.764   6.251  14.333  0.00  0.00    +0.159 HD
ATOM      9  H   UNL     1      -2.079   5.440  15.817  0.00  0.00    +0.159 HD
ENDROOT
BRANCH   1  10
ATOM     10  C   UNL     1      -2.551   5.635  11.967  0.00  0.00    +0.151 C 
BRANCH  10  11
ATOM     11  C   UNL     1      -2.233   5.065  10.612  0.00  0.00    -0.028 A 
ATOM     12  C   UNL     1      -2.510   3.722  10.322  0.00  0.00    +0.005 A 
ATOM     13  C   UNL     1      -1.659   5.866   9.612  0.00  0.00    +0.005 A 
ATOM     14  C   UNL     1      -2.243   3.200   9.054  0.00  0.00    +0.000 A 
ATOM     15  C   UNL     1      -1.393   5.341   8.348  0.00  0.00    +0.000 A 
ATOM     16  C   UNL     1      -1.687   4.009   8.068  0.00  0.00    +0.000 A 
ENDBRANCH  10  11
ENDBRANCH   1  10
TORSDOF 2
ENDMDL
MODEL 8
REMARK VINA RESULT:    -3.983      3.005      4.142
REMARK INTER + INTRA:          -4.621
REMARK INTER:                  -4.477
REMARK INTRA:                  -0.144
REMARK UNBOUND:                -0.172
REMARK  Name = 1550473
REMARK  2 active torsions:
REMARK  status: ('A' for Active; 'I' for Inactive)
REMARK    1  A    between atoms: N_1  and  C_4
REMARK    2  A    between atoms: C_4  and  C_5
REMARK                            x       y       z     vdW  Elec       q    Type
REMARK                         _______ _______ _______ _____ _____    ______ ____
ROOT
ATOM      1  N   UNL     1      -3.643   3.485  13.024  0.00  0.00    -0.354 N 
ATOM      2  N   UNL     1      -2.825   4.263  15.046  0.00  0.00    -0.372 N 
ATOM      3  N   UNL     1      -4.445   5.476  13.965  0.00  0.00    -0.372 N 
ATOM      4  C   UNL     1      -3.645   4.405  13.998  0.00  0.00    +0.166 C 
ATOM      5  H   UNL     1      -2.991   2.712  13.093  0.00  0.00    +0.163 HD
ATOM      6  H   UNL     1      -2.807   4.939  15.798  0.00  0.00    +0.159 HD
ATOM      7  H   UNL     1      -2.207   3.466  15.136  0.00  0.00    +0.159 HD
ATOM      8  H   UNL     1      -5.082   5.645  13.198  0.00  0.00    +0.159 HD
ATOM      9  H   UNL     1      -4.433   6.170  14.702  0.00  0.00    +0.159 HD
ENDROOT
BRANCH   1  10
ATOM     10  C   UNL     1      -4.535   3.518  11.866  0.00  0.00    +0.151 C 
BRANCH  10  11
ATOM     11  C   UNL     1      -3.714   3.403  10.611  0.00  0.00    -0.028 A 
ATOM     12  C   UNL     1      -2.562   4.184  10.440  0.00  0.00    +0.005 A 
ATOM     13  C   UNL     1      -4.081   2.512   9.591  0.00  0.00    +0.005 A 
ATOM     14  C   UNL     1      -1.783   4.056   9.287  0.00  0.00    +0.000 A 
ATOM     15  C   UNL     1      -3.301   2.388   8.442  0.00  0.00    +0.000 A 
ATOM     16  C   UNL     1      -2.151   3.158   8.291  0.00  0.00    +0.000 A 
ENDBRANCH  10  11
ENDBRANCH   1  10
TORSDOF 2
ENDMDL
MODEL 9
REMARK VINA RESULT:    -3.982     11.000     12.438
REMARK INTER + INTRA:          -4.620
REMARK INTER:                  -4.439
REMARK INTRA:                  -0.181
REMARK UNBOUND:                -0.172
REMARK  Name = 1550473
REMARK  2 active torsions:
REMARK  status: ('A' for Active; 'I' for Inactive)
REMARK    1  A    between atoms: N_1  and  C_4
REMARK    2  A    between atoms: C_4  and  C_5
REMARK                            x       y       z     vdW  Elec       q    Type
REMARK                         _______ _______ _______ _____ _____    ______ ____
ROOT
ATOM      1  N   UNL     1       1.089  -7.480   9.590  0.00  0.00    -0.354 N 
ATOM      2  N   UNL     1      -0.615  -8.994  10.000  0.00  0.00    -0.372 N 
ATOM      3  N   UNL     1       0.150  -7.691  11.727  0.00  0.00    -0.372 N 
ATOM      4  C   UNL     1       0.220  -8.044  10.439  0.00  0.00    +0.166 C 
ATOM      5  H   UNL     1       1.112  -7.813   8.633  0.00  0.00    +0.163 HD
ATOM      6  H   UNL     1      -1.284  -9.435  10.616  0.00  0.00    +0.159 HD
ATOM      7  H   UNL     1      -0.621  -9.292   9.032  0.00  0.00    +0.159 HD
ATOM      8  H   UNL     1       0.757  -6.985  12.122  0.00  0.00    +0.159 HD
ATOM      9  H   UNL     1      -0.504  -8.130  12.362  0.00  0.00    +0.159 HD
ENDROOT
BRANCH   1  10
ATOM     10  C   UNL     1       2.003  -6.399   9.954  0.00  0.00    +0.151 C 
BRANCH  10  11
ATOM     11  C   UNL     1       3.369  -6.976  10.209  0.00  0.00    -0.028 A 
ATOM     12  C   UNL     1       3.860  -7.093  11.517  0.00  0.00    +0.005 A 
ATOM     13  C   UNL     1       4.174  -7.414   9.146  0.00  0.00    +0.005 A 
ATOM     14  C   UNL     1       5.115  -7.657  11.756  0.00  0.00    +0.000 A 
ATOM     15  C   UNL     1       5.427  -7.975   9.388  0.00  0.00    +0.000 A 
ATOM     16  C   UNL     1       5.896  -8.099  10.694  0.00  0.00    +0.000 A 
ENDBRANCH  10  11
ENDBRANCH   1  10
TORSDOF 2
ENDMDL
