MODEL 1
REMARK VINA RESULT:    -5.041      0.000      0.000
REMARK INTER + INTRA:          -5.763
REMARK INTER:                  -5.630
REMARK INTRA:                  -0.133
REMARK UNBOUND:                -0.133
REMARK  Name = 1550473
REMARK  2 active torsions:
REMARK  status: ('A' for Active; 'I' for Inactive)
REMARK    1  A    between atoms: N_1  and  C_4
REMARK    2  A    between atoms: C_4  and  C_5
REMARK                            x       y       z     vdW  Elec       q    Type
REMARK                         _______ _______ _______ _____ _____    ______ ____
ROOT
ATOM      1  N   UNL     1      -9.807  -2.663 -11.396  0.00  0.00    -0.354 N 
ATOM      2  N   UNL     1      -9.009  -1.682 -13.337  0.00  0.00    -0.372 N 
ATOM      3  N   UNL     1     -10.215  -0.403 -11.863  0.00  0.00    -0.372 N 
ATOM      4  C   UNL     1      -9.684  -1.587 -12.185  0.00  0.00    +0.166 C 
ATOM      5  H   UNL     1      -9.407  -3.539 -11.711  0.00  0.00    +0.163 HD
ATOM      6  H   UNL     1      -8.896  -0.887 -13.951  0.00  0.00    +0.159 HD
ATOM      7  H   UNL     1      -8.570  -2.548 -13.627  0.00  0.00    +0.159 HD
ATOM      8  H   UNL     1     -10.742  -0.266 -11.010  0.00  0.00    +0.159 HD
ATOM      9  H   UNL     1     -10.124   0.402 -12.470  0.00  0.00    +0.159 HD
ENDROOT
BRANCH   1  10
ATOM     10  C   UNL     1     -10.476  -2.652 -10.096  0.00  0.00    +0.151 C 
BRANCH  10  11
ATOM     11  C   UNL     1     -11.095  -4.000  -9.851  0.00  0.00    -0.028 A 
ATOM     12  C   UNL     1     -11.167  -4.948 -10.882  0.00  0.00    +0.005 A 
ATOM     13  C   UNL     1     -11.607  -4.337  -8.589  0.00  0.00    +0.005 A 
ATOM     14  C   UNL     1     -11.715  -6.212 -10.646  0.00  0.00    +0.000 A 
ATOM     15  C   UNL     1     -12.154  -5.599  -8.358  0.00  0.00    +0.000 A 
ATOM     16  C   UNL     1     -12.206  -6.537  -9.386  0.00  0.00    +0.000 A 
ENDBRANCH  10  11
ENDBRANCH   1  10
TORSDOF 2
ENDMDL
MODEL 2
REMARK VINA RESULT:    -5.039      1.285      2.034
REMARK INTER + INTRA:          -5.761
REMARK INTER:                  -5.631
REMARK INTRA:                  -0.130
REMARK UNBOUND:                -0.133
REMARK  Name = 1550473
REMARK  2 active torsions:
REMARK  status: ('A' for Active; 'I' for Inactive)
REMARK    1  A    between atoms: N_1  and  C_4
REMARK    2  A    between atoms: C_4  and  C_5
REMARK                            x       y       z     vdW  Elec       q    Type
REMARK                         _______ _______ _______ _____ _____    ______ ____
ROOT
ATOM      1  N   UNL     1     -10.270  -2.896  -9.847  0.00  0.00    -0.354 N 
ATOM      2  N   UNL     1      -9.116  -1.348 -11.125  0.00  0.00    -0.372 N 
ATOM      3  N   UNL     1     -11.229  -0.829 -10.398  0.00  0.00    -0.372 N 
ATOM      4  C   UNL     1     -10.215  -1.700 -10.448  0.00  0.00    +0.166 C 
ATOM      5  H   UNL     1      -9.480  -3.522  -9.948  0.00  0.00    +0.163 HD
ATOM      6  H   UNL     1      -9.044  -0.451 -11.586  0.00  0.00    +0.159 HD
ATOM      7  H   UNL     1      -8.309  -1.957 -11.186  0.00  0.00    +0.159 HD
ATOM      8  H   UNL     1     -12.089  -1.037  -9.908  0.00  0.00    +0.159 HD
ATOM      9  H   UNL     1     -11.181   0.069 -10.862  0.00  0.00    +0.159 HD
ENDROOT
BRANCH   1  10
ATOM     10  C   UNL     1     -11.400  -3.353  -9.039  0.00  0.00    +0.151 C 
BRANCH  10  11
ATOM     11  C   UNL     1     -11.615  -4.822  -9.284  0.00  0.00    -0.028 A 
ATOM     12  C   UNL     1     -11.892  -5.688  -8.217  0.00  0.00    +0.005 A 
ATOM     13  C   UNL     1     -11.550  -5.351 -10.582  0.00  0.00    +0.005 A 
ATOM     14  C   UNL     1     -12.122  -7.047  -8.447  0.00  0.00    +0.000 A 
ATOM     15  C   UNL     1     -11.779  -6.708 -10.808  0.00  0.00    +0.000 A 
ATOM     16  C   UNL     1     -12.067  -7.555  -9.740  0.00  0.00    +0.000 A 
ENDBRANCH  10  11
ENDBRANCH   1  10
TORSDOF 2
ENDMDL
MODEL 3
REMARK VINA RESULT:    -5.000      0.088      1.456
REMARK INTER + INTRA:          -5.718
REMARK INTER:                  -5.589
REMARK INTRA:                  -0.129
REMARK UNBOUND:                -0.133
REMARK  Name = 1550473
REMARK  2 active torsions:
REMARK  status: ('A' for Active; 'I' for Inactive)
REMARK    1  A    between atoms: N_1  and  C_4
REMARK    2  A    between atoms: C_4  and  C_5
REMARK                            x       y       z     vdW  Elec       q    Type
REMARK                         _______ _______ _______ _____ _____    ______ ____
ROOT
ATOM      1  N   UNL     1      -9.825  -2.676 -11.463  0.00  0.00    -0.354 N 
ATOM      2  N   UNL     1      -8.971  -1.738 -13.400  0.00  0.00    -0.372 N 
ATOM      3  N   UNL     1     -10.080  -0.390 -11.911  0.00  0.00    -0.372 N 
ATOM      4  C   UNL     1      -9.632  -1.605 -12.244  0.00  0.00    +0.166 C 
ATOM      5  H   UNL     1      -9.487  -3.575 -11.786  0.00  0.00    +0.163 HD
ATOM      6  H   UNL     1      -8.807  -0.947 -14.009  0.00  0.00    +0.159 HD
ATOM      7  H   UNL     1      -8.594  -2.629 -13.700  0.00  0.00    +0.159 HD
ATOM      8  H   UNL     1     -10.592  -0.224 -11.055  0.00  0.00    +0.159 HD
ATOM      9  H   UNL     1      -9.936   0.412 -12.513  0.00  0.00    +0.159 HD
ENDROOT
BRANCH   1  10
ATOM     10  C   UNL     1     -10.485  -2.629 -10.160  0.00  0.00    +0.151 C 
BRANCH  10  11
ATOM     11  C   UNL     1     -11.084  -3.976  -9.863  0.00  0.00    -0.028 A 
ATOM     12  C   UNL     1     -11.617  -4.255  -8.597  0.00  0.00    +0.005 A 
ATOM     13  C   UNL     1     -11.127  -4.976 -10.847  0.00  0.00    +0.005 A 
ATOM     14  C   UNL     1     -12.201  -5.496  -8.330  0.00  0.00    +0.000 A 
ATOM     15  C   UNL     1     -11.709  -6.214 -10.577  0.00  0.00    +0.000 A 
ATOM     16  C   UNL     1     -12.248  -6.473  -9.319  0.00  0.00    +0.000 A 
ENDBRANCH  10  11
ENDBRANCH   1  10
TORSDOF 2
ENDMDL
MODEL 4
REMARK VINA RESULT:    -4.494      5.164      6.951
REMARK INTER + INTRA:          -5.152
REMARK INTER:                  -5.027
REMARK INTRA:                  -0.125
REMARK UNBOUND:                -0.133
REMARK  Name = 1550473
REMARK  2 active torsions:
REMARK  status: ('A' for Active; 'I' for Inactive)
REMARK    1  A    between atoms: N_1  and  C_4
REMARK    2  A    between atoms: C_4  and  C_5
REMARK                            x       y       z     vdW  Elec       q    Type
REMARK                         _______ _______ _______ _____ _____    ______ ____
ROOT
ATOM      1  N   UNL     1     -11.936  -9.539  -8.093  0.00  0.00    -0.354 N 
ATOM      2  N   UNL     1     -11.327 -11.752  -7.784  0.00  0.00    -0.372 N 
ATOM      3  N   UNL     1     -11.354 -10.346  -5.971  0.00  0.00    -0.372 N 
ATOM      4  C   UNL     1     -11.542 -10.530  -7.282  0.00  0.00    +0.166 C 
ATOM      5  H   UNL     1     -12.031  -9.736  -9.082  0.00  0.00    +0.163 HD
ATOM      6  H   UNL     1     -11.033 -12.521  -7.196  0.00  0.00    +0.159 HD
ATOM      7  H   UNL     1     -11.468 -11.958  -8.765  0.00  0.00    +0.159 HD
ATOM      8  H   UNL     1     -11.494  -9.446  -5.531  0.00  0.00    +0.159 HD
ATOM      9  H   UNL     1     -11.048 -11.100  -5.368  0.00  0.00    +0.159 HD
ENDROOT
BRANCH   1  10
ATOM     10  C   UNL     1     -12.249  -8.186  -7.638  0.00  0.00    +0.151 C 
BRANCH  10  11
ATOM     11  C   UNL     1     -12.048  -7.225  -8.777  0.00  0.00    -0.028 A 
ATOM     12  C   UNL     1     -11.944  -5.847  -8.537  0.00  0.00    +0.005 A 
ATOM     13  C   UNL     1     -11.953  -7.688 -10.099  0.00  0.00    +0.005 A 
ATOM     14  C   UNL     1     -11.727  -4.958  -9.592  0.00  0.00    +0.000 A 
ATOM     15  C   UNL     1     -11.737  -6.796 -11.149  0.00  0.00    +0.000 A 
ATOM     16  C   UNL     1     -11.622  -5.431 -10.895  0.00  0.00    +0.000 A 
ENDBRANCH  10  11
ENDBRANCH   1  10
TORSDOF 2
ENDMDL
MODEL 5
REMARK VINA RESULT:    -4.448     12.948     14.199
REMARK INTER + INTRA:          -5.101
REMARK INTER:                  -4.983
REMARK INTRA:                  -0.118
REMARK UNBOUND:                -0.133
REMARK  Name = 1550473
REMARK  2 active torsions:
REMARK  status: ('A' for Active; 'I' for Inactive)
REMARK    1  A    between atoms: N_1  and  C_4
REMARK    2  A    between atoms: C_4  and  C_5
REMARK                            x       y       z     vdW  Elec       q    Type
REMARK                         _______ _______ _______ _____ _____    ______ ____
ROOT
ATOM      1  N   UNL     1       0.281   2.608 -15.822  0.00  0.00    -0.354 N 
ATOM      2  N   UNL     1       2.294   3.060 -14.770  0.00  0.00    -0.372 N 
ATOM      3  N   UNL     1       0.830   4.786 -15.152  0.00  0.00    -0.372 N 
ATOM      4  C   UNL     1       1.121   3.484 -15.255  0.00  0.00    +0.166 C 
ATOM      5  H   UNL     1       0.573   1.640 -15.897  0.00  0.00    +0.163 HD
ATOM      6  H   UNL     1       2.947   3.698 -14.334  0.00  0.00    +0.159 HD
ATOM      7  H   UNL     1       2.564   2.085 -14.805  0.00  0.00    +0.159 HD
ATOM      8  H   UNL     1      -0.036   5.170 -15.504  0.00  0.00    +0.159 HD
ATOM      9  H   UNL     1       1.476   5.441 -14.730  0.00  0.00    +0.159 HD
ENDROOT
BRANCH   1  10
ATOM     10  C   UNL     1      -1.043   2.958 -16.333  0.00  0.00    +0.151 C 
BRANCH  10  11
ATOM     11  C   UNL     1      -1.260   2.265 -17.650  0.00  0.00    -0.028 A 
ATOM     12  C   UNL     1      -1.967   1.054 -17.709  0.00  0.00    +0.005 A 
ATOM     13  C   UNL     1      -0.767   2.816 -18.842  0.00  0.00    +0.005 A 
ATOM     14  C   UNL     1      -2.195   0.425 -18.935  0.00  0.00    +0.000 A 
ATOM     15  C   UNL     1      -0.996   2.184 -20.065  0.00  0.00    +0.000 A 
ATOM     16  C   UNL     1      -1.712   0.990 -20.111  0.00  0.00    +0.000 A 
ENDBRANCH  10  11
ENDBRANCH   1  10
TORSDOF 2
ENDMDL
MODEL 6
REMARK VINA RESULT:    -4.432      9.180     11.334
REMARK INTER + INTRA:          -5.082
REMARK INTER:                  -4.955
REMARK INTRA:                  -0.128
REMARK UNBOUND:                -0.133
REMARK  Name = 1550473
REMARK  2 active torsions:
REMARK  status: ('A' for Active; 'I' for Inactive)
REMARK    1  A    between atoms: N_1  and  C_4
REMARK    2  A    between atoms: C_4  and  C_5
REMARK                            x       y       z     vdW  Elec       q    Type
REMARK                         _______ _______ _______ _____ _____    ______ ____
ROOT
ATOM      1  N   UNL     1      -8.474   5.724  -9.729  0.00  0.00    -0.354 N 
ATOM      2  N   UNL     1      -9.752   4.340  -8.382  0.00  0.00    -0.372 N 
ATOM      3  N   UNL     1      -7.493   3.964  -8.532  0.00  0.00    -0.372 N 
ATOM      4  C   UNL     1      -8.562   4.684  -8.890  0.00  0.00    +0.166 C 
ATOM      5  H   UNL     1      -9.326   6.210  -9.985  0.00  0.00    +0.163 HD
ATOM      6  H   UNL     1      -9.849   3.562  -7.743  0.00  0.00    +0.159 HD
ATOM      7  H   UNL     1     -10.595   4.855  -8.603  0.00  0.00    +0.159 HD
ATOM      8  H   UNL     1      -6.568   4.169  -8.884  0.00  0.00    +0.159 HD
ATOM      9  H   UNL     1      -7.572   3.175  -7.903  0.00  0.00    +0.159 HD
ENDROOT
BRANCH   1  10
ATOM     10  C   UNL     1      -7.218   6.214 -10.295  0.00  0.00    +0.151 C 
BRANCH  10  11
ATOM     11  C   UNL     1      -7.445   6.603 -11.730  0.00  0.00    -0.028 A 
ATOM     12  C   UNL     1      -7.114   7.889 -12.180  0.00  0.00    +0.005 A 
ATOM     13  C   UNL     1      -7.986   5.687 -12.646  0.00  0.00    +0.005 A 
ATOM     14  C   UNL     1      -7.296   8.241 -13.519  0.00  0.00    +0.000 A 
ATOM     15  C   UNL     1      -8.167   6.043 -13.983  0.00  0.00    +0.000 A 
ATOM     16  C   UNL     1      -7.820   7.319 -14.419  0.00  0.00    +0.000 A 
ENDBRANCH  10  11
ENDBRANCH   1  10
TORSDOF 2
ENDMDL
MODEL 7
REMARK VINA RESULT:    -4.212      5.487      7.249
REMARK INTER + INTRA:          -4.837
REMARK INTER:                  -4.715
REMARK INTRA:                  -0.122
REMARK UNBOUND:                -0.133
REMARK  Name = 1550473
REMARK  2 active torsions:
REMARK  status: ('A' for Active; 'I' for Inactive)
REMARK    1  A    between atoms: N_1  and  C_4
REMARK    2  A    between atoms: C_4  and  C_5
REMARK                            x       y       z     vdW  Elec       q    Type
REMARK                         _______ _______ _______ _____ _____    ______ ____
ROOT
ATOM      1  N   UNL     1     -11.752  -9.061  -6.396  0.00  0.00    -0.354 N 
ATOM      2  N   UNL     1     -11.425 -11.197  -5.563  0.00  0.00    -0.372 N 
ATOM      3  N   UNL     1     -13.176  -9.949  -4.760  0.00  0.00    -0.372 N 
ATOM      4  C   UNL     1     -12.122 -10.054  -5.577  0.00  0.00    +0.166 C 
ATOM      5  H   UNL     1     -10.925  -9.192  -6.968  0.00  0.00    +0.163 HD
ATOM      6  H   UNL     1     -11.683 -11.966  -4.958  0.00  0.00    +0.159 HD
ATOM      7  H   UNL     1     -10.627 -11.342  -6.169  0.00  0.00    +0.159 HD
ATOM      8  H   UNL     1     -13.739  -9.111  -4.719  0.00  0.00    +0.159 HD
ATOM      9  H   UNL     1     -13.442 -10.703  -4.139  0.00  0.00    +0.159 HD
ENDROOT
BRANCH   1  10
ATOM     10  C   UNL     1     -12.474  -7.797  -6.527  0.00  0.00    +0.151 C 
BRANCH  10  11
ATOM     11  C   UNL     1     -12.203  -7.215  -7.886  0.00  0.00    -0.028 A 
ATOM     12  C   UNL     1     -12.130  -8.045  -9.015  0.00  0.00    +0.005 A 
ATOM     13  C   UNL     1     -12.024  -5.833  -8.054  0.00  0.00    +0.005 A 
ATOM     14  C   UNL     1     -11.908  -7.501 -10.282  0.00  0.00    +0.000 A 
ATOM     15  C   UNL     1     -11.801  -5.294  -9.321  0.00  0.00    +0.000 A 
ATOM     16  C   UNL     1     -11.746  -6.128 -10.435  0.00  0.00    +0.000 A 
ENDBRANCH  10  11
ENDBRANCH   1  10
TORSDOF 2
ENDMDL
MODEL 8
REMARK VINA RESULT:    -4.076     14.330     15.342
REMARK INTER + INTRA:          -4.685
REMARK INTER:                  -4.562
REMARK INTRA:                  -0.123
REMARK UNBOUND:                -0.133
REMARK  Name = 1550473
REMARK  2 active torsions:
REMARK  status: ('A' for Active; 'I' for Inactive)
REMARK    1  A    between atoms: N_1  and  C_4
REMARK    2  A    between atoms: C_4  and  C_5
REMARK                            x       y       z     vdW  Elec       q    Type
REMARK                         _______ _______ _______ _____ _____    ______ ____
ROOT
ATOM      1  N   UNL     1       1.683  -7.487 -16.069  0.00  0.00    -0.354 N 
ATOM      2  N   UNL     1       0.920  -9.360 -17.198  0.00  0.00    -0.372 N 
ATOM      3  N   UNL     1       2.256  -7.862 -18.310  0.00  0.00    -0.372 N 
ATOM      4  C   UNL     1       1.626  -8.223 -17.187  0.00  0.00    +0.166 C 
ATOM      5  H   UNL     1       1.159  -7.800 -15.260  0.00  0.00    +0.163 HD
ATOM      6  H   UNL     1       0.862  -9.938 -18.026  0.00  0.00    +0.159 HD
ATOM      7  H   UNL     1       0.434  -9.693 -16.374  0.00  0.00    +0.159 HD
ATOM      8  H   UNL     1       2.801  -7.012 -18.369  0.00  0.00    +0.159 HD
ATOM      9  H   UNL     1       2.200  -8.421 -19.152  0.00  0.00    +0.159 HD
ENDROOT
BRANCH   1  10
ATOM     10  C   UNL     1       2.468  -6.261 -15.936  0.00  0.00    +0.151 C 
BRANCH  10  11
ATOM     11  C   UNL     1       3.236  -6.307 -14.644  0.00  0.00    -0.028 A 
ATOM     12  C   UNL     1       4.456  -6.993 -14.565  0.00  0.00    +0.005 A 
ATOM     13  C   UNL     1       2.751  -5.660 -13.496  0.00  0.00    +0.005 A 
ATOM     14  C   UNL     1       5.184  -7.011 -13.373  0.00  0.00    +0.000 A 
ATOM     15  C   UNL     1       3.481  -5.681 -12.308  0.00  0.00    +0.000 A 
ATOM     16  C   UNL     1       4.699  -6.354 -12.247  0.00  0.00    +0.000 A 
ENDBRANCH  10  11
ENDBRANCH   1  10
TORSDOF 2
ENDMDL
