MODEL 1
REMARK VINA RESULT:    -5.102      0.000      0.000
REMARK INTER + INTRA:          -5.839
REMARK INTER:                  -5.699
REMARK INTRA:                  -0.140
REMARK UNBOUND:                -0.140
REMARK  Name = 1550473
REMARK  2 active torsions:
REMARK  status: ('A' for Active; 'I' for Inactive)
REMARK    1  A    between atoms: N_1  and  C_4
REMARK    2  A    between atoms: C_4  and  C_5
REMARK                            x       y       z     vdW  Elec       q    Type
REMARK                         _______ _______ _______ _____ _____    ______ ____
ROOT
ATOM      1  N   UNL     1       7.718   3.854   6.603  0.00  0.00    -0.354 N 
ATOM      2  N   UNL     1       9.660   4.596   5.581  0.00  0.00    -0.372 N 
ATOM      3  N   UNL     1       9.309   5.099   7.792  0.00  0.00    -0.372 N 
ATOM      4  C   UNL     1       8.883   4.512   6.668  0.00  0.00    +0.166 C 
ATOM      5  H   UNL     1       7.439   3.457   5.714  0.00  0.00    +0.163 HD
ATOM      6  H   UNL     1      10.545   5.083   5.601  0.00  0.00    +0.159 HD
ATOM      7  H   UNL     1       9.399   4.159   4.705  0.00  0.00    +0.159 HD
ATOM      8  H   UNL     1       8.766   5.077   8.645  0.00  0.00    +0.159 HD
ATOM      9  H   UNL     1      10.187   5.601   7.828  0.00  0.00    +0.159 HD
ENDROOT
BRANCH   1  10
ATOM     10  C   UNL     1       6.825   3.659   7.744  0.00  0.00    +0.151 C 
BRANCH  10  11
ATOM     11  C   UNL     1       5.415   3.972   7.322  0.00  0.00    -0.028 A 
ATOM     12  C   UNL     1       4.327   3.410   8.005  0.00  0.00    +0.005 A 
ATOM     13  C   UNL     1       5.162   4.834   6.244  0.00  0.00    +0.005 A 
ATOM     14  C   UNL     1       3.017   3.724   7.633  0.00  0.00    +0.000 A 
ATOM     15  C   UNL     1       3.853   5.144   5.875  0.00  0.00    +0.000 A 
ATOM     16  C   UNL     1       2.781   4.591   6.571  0.00  0.00    +0.000 A 
ENDBRANCH  10  11
ENDBRANCH   1  10
TORSDOF 2
ENDMDL
MODEL 2
REMARK VINA RESULT:    -5.091     14.048     15.062
REMARK INTER + INTRA:          -5.826
REMARK INTER:                  -5.675
REMARK INTRA:                  -0.151
REMARK UNBOUND:                -0.140
REMARK  Name = 1550473
REMARK  2 active torsions:
REMARK  status: ('A' for Active; 'I' for Inactive)
REMARK    1  A    between atoms: N_1  and  C_4
REMARK    2  A    between atoms: C_4  and  C_5
REMARK                            x       y       z     vdW  Elec       q    Type
REMARK                         _______ _______ _______ _____ _____    ______ ____
ROOT
ATOM      1  N   UNL     1      -0.194  -5.344   0.699  0.00  0.00    -0.354 N 
ATOM      2  N   UNL     1       0.786  -5.477   2.793  0.00  0.00    -0.372 N 
ATOM      3  N   UNL     1      -1.192  -4.337   2.565  0.00  0.00    -0.372 N 
ATOM      4  C   UNL     1      -0.209  -5.050   2.006  0.00  0.00    +0.166 C 
ATOM      5  H   UNL     1       0.595  -5.863   0.331  0.00  0.00    +0.163 HD
ATOM      6  H   UNL     1       0.801  -5.273   3.784  0.00  0.00    +0.159 HD
ATOM      7  H   UNL     1       1.551  -6.034   2.431  0.00  0.00    +0.159 HD
ATOM      8  H   UNL     1      -1.969  -3.981   2.025  0.00  0.00    +0.159 HD
ATOM      9  H   UNL     1      -1.189  -4.113   3.553  0.00  0.00    +0.159 HD
ENDROOT
BRANCH   1  10
ATOM     10  C   UNL     1      -1.257  -4.973  -0.234  0.00  0.00    +0.151 C 
BRANCH  10  11
ATOM     11  C   UNL     1      -1.923  -6.223  -0.741  0.00  0.00    -0.028 A 
ATOM     12  C   UNL     1      -1.200  -7.419  -0.857  0.00  0.00    +0.005 A 
ATOM     13  C   UNL     1      -3.280  -6.218  -1.101  0.00  0.00    +0.005 A 
ATOM     14  C   UNL     1      -1.827  -8.586  -1.299  0.00  0.00    +0.000 A 
ATOM     15  C   UNL     1      -3.901  -7.386  -1.542  0.00  0.00    +0.000 A 
ATOM     16  C   UNL     1      -3.175  -8.570  -1.639  0.00  0.00    +0.000 A 
ENDBRANCH  10  11
ENDBRANCH   1  10
TORSDOF 2
ENDMDL
MODEL 3
REMARK VINA RESULT:    -5.090     15.877     17.058
REMARK INTER + INTRA:          -5.826
REMARK INTER:                  -5.702
REMARK INTRA:                  -0.124
REMARK UNBOUND:                -0.140
REMARK  Name = 1550473
REMARK  2 active torsions:
REMARK  status: ('A' for Active; 'I' for Inactive)
REMARK    1  A    between atoms: N_1  and  C_4
REMARK    2  A    between atoms: C_4  and  C_5
REMARK                            x       y       z     vdW  Elec       q    Type
REMARK                         _______ _______ _______ _____ _____    ______ ____
ROOT
ATOM      1  N   UNL     1      -3.249  -7.279  -0.978  0.00  0.00    -0.354 N 
ATOM      2  N   UNL     1      -1.692  -8.801  -1.768  0.00  0.00    -0.372 N 
ATOM      3  N   UNL     1      -0.952  -6.915  -0.692  0.00  0.00    -0.372 N 
ATOM      4  C   UNL     1      -1.973  -7.653  -1.140  0.00  0.00    +0.166 C 
ATOM      5  H   UNL     1      -3.976  -7.868  -1.368  0.00  0.00    +0.163 HD
ATOM      6  H   UNL     1      -0.739  -9.111  -1.902  0.00  0.00    +0.159 HD
ATOM      7  H   UNL     1      -2.422  -9.410  -2.116  0.00  0.00    +0.159 HD
ATOM      8  H   UNL     1      -1.096  -6.035  -0.215  0.00  0.00    +0.159 HD
ATOM      9  H   UNL     1       0.010  -7.202  -0.827  0.00  0.00    +0.159 HD
ENDROOT
BRANCH   1  10
ATOM     10  C   UNL     1      -3.663  -6.074  -0.262  0.00  0.00    +0.151 C 
BRANCH  10  11
ATOM     11  C   UNL     1      -5.155  -6.102  -0.075  0.00  0.00    -0.028 A 
ATOM     12  C   UNL     1      -5.887  -7.264  -0.364  0.00  0.00    +0.005 A 
ATOM     13  C   UNL     1      -5.843  -4.973   0.394  0.00  0.00    +0.005 A 
ATOM     14  C   UNL     1      -7.269  -7.300  -0.162  0.00  0.00    +0.000 A 
ATOM     15  C   UNL     1      -7.223  -5.013   0.593  0.00  0.00    +0.000 A 
ATOM     16  C   UNL     1      -7.935  -6.177   0.317  0.00  0.00    +0.000 A 
ENDBRANCH  10  11
ENDBRANCH   1  10
TORSDOF 2
ENDMDL
MODEL 4
REMARK VINA RESULT:    -4.954      2.605      3.365
REMARK INTER + INTRA:          -5.673
REMARK INTER:                  -5.548
REMARK INTRA:                  -0.125
REMARK UNBOUND:                -0.140
REMARK  Name = 1550473
REMARK  2 active torsions:
REMARK  status: ('A' for Active; 'I' for Inactive)
REMARK    1  A    between atoms: N_1  and  C_4
REMARK    2  A    between atoms: C_4  and  C_5
REMARK                            x       y       z     vdW  Elec       q    Type
REMARK                         _______ _______ _______ _____ _____    ______ ____
ROOT
ATOM      1  N   UNL     1       6.300   1.899   5.109  0.00  0.00    -0.354 N 
ATOM      2  N   UNL     1       8.613   1.827   5.031  0.00  0.00    -0.372 N 
ATOM      3  N   UNL     1       7.453  -0.125   5.356  0.00  0.00    -0.372 N 
ATOM      4  C   UNL     1       7.440   1.198   5.167  0.00  0.00    +0.166 C 
ATOM      5  H   UNL     1       6.358   2.905   4.993  0.00  0.00    +0.163 HD
ATOM      6  H   UNL     1       9.490   1.324   5.067  0.00  0.00    +0.159 HD
ATOM      7  H   UNL     1       8.667   2.826   4.870  0.00  0.00    +0.159 HD
ATOM      8  H   UNL     1       6.602  -0.659   5.472  0.00  0.00    +0.159 HD
ATOM      9  H   UNL     1       8.321  -0.645   5.407  0.00  0.00    +0.159 HD
ENDROOT
BRANCH   1  10
ATOM     10  C   UNL     1       4.968   1.303   5.191  0.00  0.00    +0.151 C 
BRANCH  10  11
ATOM     11  C   UNL     1       4.024   2.291   5.819  0.00  0.00    -0.028 A 
ATOM     12  C   UNL     1       4.304   3.665   5.782  0.00  0.00    +0.005 A 
ATOM     13  C   UNL     1       2.846   1.860   6.448  0.00  0.00    +0.005 A 
ATOM     14  C   UNL     1       3.414   4.586   6.340  0.00  0.00    +0.000 A 
ATOM     15  C   UNL     1       1.960   2.783   7.004  0.00  0.00    +0.000 A 
ATOM     16  C   UNL     1       2.243   4.145   6.948  0.00  0.00    +0.000 A 
ENDBRANCH  10  11
ENDBRANCH   1  10
TORSDOF 2
ENDMDL
MODEL 5
REMARK VINA RESULT:    -4.945     12.347     12.936
REMARK INTER + INTRA:          -5.663
REMARK INTER:                  -5.531
REMARK INTRA:                  -0.133
REMARK UNBOUND:                -0.140
REMARK  Name = 1550473
REMARK  2 active torsions:
REMARK  status: ('A' for Active; 'I' for Inactive)
REMARK    1  A    between atoms: N_1  and  C_4
REMARK    2  A    between atoms: C_4  and  C_5
REMARK                            x       y       z     vdW  Elec       q    Type
REMARK                         _______ _______ _______ _____ _____    ______ ____
ROOT
ATOM      1  N   UNL     1       6.914  14.493   0.493  0.00  0.00    -0.354 N 
ATOM      2  N   UNL     1       8.898  14.161  -0.654  0.00  0.00    -0.372 N 
ATOM      3  N   UNL     1       6.940  14.298  -1.842  0.00  0.00    -0.372 N 
ATOM      4  C   UNL     1       7.569  14.319  -0.662  0.00  0.00    +0.166 C 
ATOM      5  H   UNL     1       7.445  14.468   1.356  0.00  0.00    +0.163 HD
ATOM      6  H   UNL     1       9.420  14.031  -1.511  0.00  0.00    +0.159 HD
ATOM      7  H   UNL     1       9.432  14.183   0.206  0.00  0.00    +0.159 HD
ATOM      8  H   UNL     1       5.937  14.407  -1.916  0.00  0.00    +0.159 HD
ATOM      9  H   UNL     1       7.443  14.158  -2.709  0.00  0.00    +0.159 HD
ENDROOT
BRANCH   1  10
ATOM     10  C   UNL     1       5.474  14.728   0.589  0.00  0.00    +0.151 C 
BRANCH  10  11
ATOM     11  C   UNL     1       5.211  15.720   1.689  0.00  0.00    -0.028 A 
ATOM     12  C   UNL     1       3.937  16.284   1.848  0.00  0.00    +0.005 A 
ATOM     13  C   UNL     1       6.230  16.095   2.577  0.00  0.00    +0.005 A 
ATOM     14  C   UNL     1       3.684  17.183   2.887  0.00  0.00    +0.000 A 
ATOM     15  C   UNL     1       5.974  16.994   3.613  0.00  0.00    +0.000 A 
ATOM     16  C   UNL     1       4.701  17.535   3.769  0.00  0.00    +0.000 A 
ENDBRANCH  10  11
ENDBRANCH   1  10
TORSDOF 2
ENDMDL
MODEL 6
REMARK VINA RESULT:    -4.753     12.344     13.530
REMARK INTER + INTRA:          -5.448
REMARK INTER:                  -5.317
REMARK INTRA:                  -0.132
REMARK UNBOUND:                -0.140
REMARK  Name = 1550473
REMARK  2 active torsions:
REMARK  status: ('A' for Active; 'I' for Inactive)
REMARK    1  A    between atoms: N_1  and  C_4
REMARK    2  A    between atoms: C_4  and  C_5
REMARK                            x       y       z     vdW  Elec       q    Type
REMARK                         _______ _______ _______ _____ _____    ______ ____
ROOT
ATOM      1  N   UNL     1      -0.860  -6.089  -0.058  0.00  0.00    -0.354 N 
ATOM      2  N   UNL     1      -1.227  -8.266  -0.760  0.00  0.00    -0.372 N 
ATOM      3  N   UNL     1      -2.876  -6.704  -1.083  0.00  0.00    -0.372 N 
ATOM      4  C   UNL     1      -1.654  -7.004  -0.629  0.00  0.00    +0.166 C 
ATOM      5  H   UNL     1       0.043  -6.387   0.292  0.00  0.00    +0.163 HD
ATOM      6  H   UNL     1      -1.802  -8.977  -1.190  0.00  0.00    +0.159 HD
ATOM      7  H   UNL     1      -0.305  -8.551  -0.450  0.00  0.00    +0.159 HD
ATOM      8  H   UNL     1      -3.260  -5.771  -1.009  0.00  0.00    +0.159 HD
ATOM      9  H   UNL     1      -3.472  -7.405  -1.505  0.00  0.00    +0.159 HD
ENDROOT
BRANCH   1  10
ATOM     10  C   UNL     1      -1.210  -4.677   0.083  0.00  0.00    +0.151 C 
BRANCH  10  11
ATOM     11  C   UNL     1      -0.571  -4.136   1.332  0.00  0.00    -0.028 A 
ATOM     12  C   UNL     1       0.298  -4.933   2.090  0.00  0.00    +0.005 A 
ATOM     13  C   UNL     1      -0.828  -2.824   1.760  0.00  0.00    +0.005 A 
ATOM     14  C   UNL     1       0.915  -4.421   3.235  0.00  0.00    +0.000 A 
ATOM     15  C   UNL     1      -0.211  -2.316   2.903  0.00  0.00    +0.000 A 
ATOM     16  C   UNL     1       0.662  -3.114   3.639  0.00  0.00    +0.000 A 
ENDBRANCH  10  11
ENDBRANCH   1  10
TORSDOF 2
ENDMDL
MODEL 7
REMARK VINA RESULT:    -4.635      5.291      6.929
REMARK INTER + INTRA:          -5.317
REMARK INTER:                  -5.244
REMARK INTRA:                  -0.073
REMARK UNBOUND:                -0.140
REMARK  Name = 1550473
REMARK  2 active torsions:
REMARK  status: ('A' for Active; 'I' for Inactive)
REMARK    1  A    between atoms: N_1  and  C_4
REMARK    2  A    between atoms: C_4  and  C_5
REMARK                            x       y       z     vdW  Elec       q    Type
REMARK                         _______ _______ _______ _____ _____    ______ ____
ROOT
ATOM      1  N   UNL     1       0.350   1.652   8.401  0.00  0.00    -0.354 N 
ATOM      2  N   UNL     1      -1.566   2.421   9.452  0.00  0.00    -0.372 N 
ATOM      3  N   UNL     1      -1.643   1.961   7.206  0.00  0.00    -0.372 N 
ATOM      4  C   UNL     1      -0.941   2.006   8.343  0.00  0.00    +0.166 C 
ATOM      5  H   UNL     1       0.833   1.738   9.287  0.00  0.00    +0.163 HD
ATOM      6  H   UNL     1      -2.540   2.691   9.440  0.00  0.00    +0.159 HD
ATOM      7  H   UNL     1      -1.092   2.462  10.347  0.00  0.00    +0.159 HD
ATOM      8  H   UNL     1      -1.228   1.663   6.333  0.00  0.00    +0.159 HD
ATOM      9  H   UNL     1      -2.616   2.238   7.171  0.00  0.00    +0.159 HD
ENDROOT
BRANCH   1  10
ATOM     10  C   UNL     1       1.107   1.136   7.262  0.00  0.00    +0.151 C 
BRANCH  10  11
ATOM     11  C   UNL     1       2.109   2.171   6.829  0.00  0.00    -0.028 A 
ATOM     12  C   UNL     1       3.250   1.797   6.104  0.00  0.00    +0.005 A 
ATOM     13  C   UNL     1       1.920   3.527   7.135  0.00  0.00    +0.005 A 
ATOM     14  C   UNL     1       4.166   2.762   5.676  0.00  0.00    +0.000 A 
ATOM     15  C   UNL     1       2.837   4.487   6.707  0.00  0.00    +0.000 A 
ATOM     16  C   UNL     1       3.958   4.104   5.975  0.00  0.00    +0.000 A 
ENDBRANCH  10  11
ENDBRANCH   1  10
TORSDOF 2
ENDMDL
MODEL 8
REMARK VINA RESULT:    -4.626     11.933     13.229
REMARK INTER + INTRA:          -5.307
REMARK INTER:                  -5.160
REMARK INTRA:                  -0.147
REMARK UNBOUND:                -0.140
REMARK  Name = 1550473
REMARK  2 active torsions:
REMARK  status: ('A' for Active; 'I' for Inactive)
REMARK    1  A    between atoms: N_1  and  C_4
REMARK    2  A    between atoms: C_4  and  C_5
REMARK                            x       y       z     vdW  Elec       q    Type
REMARK                         _______ _______ _______ _____ _____    ______ ____
ROOT
ATOM      1  N   UNL     1      -2.156  -6.005   1.103  0.00  0.00    -0.354 N 
ATOM      2  N   UNL     1      -2.810  -6.175  -1.112  0.00  0.00    -0.372 N 
ATOM      3  N   UNL     1      -0.573  -6.243  -0.608  0.00  0.00    -0.372 N 
ATOM      4  C   UNL     1      -1.839  -6.140  -0.191  0.00  0.00    +0.166 C 
ATOM      5  H   UNL     1      -3.134  -5.902   1.351  0.00  0.00    +0.163 HD
ATOM      6  H   UNL     1      -2.601  -6.279  -2.096  0.00  0.00    +0.159 HD
ATOM      7  H   UNL     1      -3.788  -6.117  -0.857  0.00  0.00    +0.159 HD
ATOM      8  H   UNL     1       0.207  -6.217   0.036  0.00  0.00    +0.159 HD
ATOM      9  H   UNL     1      -0.343  -6.336  -1.589  0.00  0.00    +0.159 HD
ENDROOT
BRANCH   1  10
ATOM     10  C   UNL     1      -1.178  -6.010   2.190  0.00  0.00    +0.151 C 
BRANCH  10  11
ATOM     11  C   UNL     1      -1.148  -4.649   2.829  0.00  0.00    -0.028 A 
ATOM     12  C   UNL     1      -0.753  -3.524   2.090  0.00  0.00    +0.005 A 
ATOM     13  C   UNL     1      -1.518  -4.478   4.172  0.00  0.00    +0.005 A 
ATOM     14  C   UNL     1      -0.754  -2.256   2.676  0.00  0.00    +0.000 A 
ATOM     15  C   UNL     1      -1.516  -3.210   4.753  0.00  0.00    +0.000 A 
ATOM     16  C   UNL     1      -1.136  -2.099   4.003  0.00  0.00    +0.000 A 
ENDBRANCH  10  11
ENDBRANCH   1  10
TORSDOF 2
ENDMDL
MODEL 9
REMARK VINA RESULT:    -4.576     25.123     26.184
REMARK INTER + INTRA:          -5.251
REMARK INTER:                  -5.192
REMARK INTRA:                  -0.059
REMARK UNBOUND:                -0.140
REMARK  Name = 1550473
REMARK  2 active torsions:
REMARK  status: ('A' for Active; 'I' for Inactive)
REMARK    1  A    between atoms: N_1  and  C_4
REMARK    2  A    between atoms: C_4  and  C_5
REMARK                            x       y       z     vdW  Elec       q    Type
REMARK                         _______ _______ _______ _____ _____    ______ ____
ROOT
ATOM      1  N   UNL     1      -4.322 -19.043  -0.959  0.00  0.00    -0.354 N 
ATOM      2  N   UNL     1      -3.477 -20.857  -2.125  0.00  0.00    -0.372 N 
ATOM      3  N   UNL     1      -5.745 -20.511  -2.104  0.00  0.00    -0.372 N 
ATOM      4  C   UNL     1      -4.523 -20.126  -1.722  0.00  0.00    +0.166 C 
ATOM      5  H   UNL     1      -3.374 -18.822  -0.678  0.00  0.00    +0.163 HD
ATOM      6  H   UNL     1      -3.597 -21.677  -2.705  0.00  0.00    +0.159 HD
ATOM      7  H   UNL     1      -2.526 -20.607  -1.882  0.00  0.00    +0.159 HD
ATOM      8  H   UNL     1      -6.577 -20.006  -1.828  0.00  0.00    +0.159 HD
ATOM      9  H   UNL     1      -5.887 -21.336  -2.674  0.00  0.00    +0.159 HD
ENDROOT
BRANCH   1  10
ATOM     10  C   UNL     1      -5.389 -18.149  -0.511  0.00  0.00    +0.151 C 
BRANCH  10  11
ATOM     11  C   UNL     1      -5.295 -16.854  -1.269  0.00  0.00    -0.028 A 
ATOM     12  C   UNL     1      -5.002 -16.852  -2.641  0.00  0.00    +0.005 A 
ATOM     13  C   UNL     1      -5.503 -15.626  -0.623  0.00  0.00    +0.005 A 
ATOM     14  C   UNL     1      -4.945 -15.652  -3.353  0.00  0.00    +0.000 A 
ATOM     15  C   UNL     1      -5.444 -14.429  -1.337  0.00  0.00    +0.000 A 
ATOM     16  C   UNL     1      -5.167 -14.442  -2.702  0.00  0.00    +0.000 A 
ENDBRANCH  10  11
ENDBRANCH   1  10
TORSDOF 2
ENDMDL
