MODEL 1
REMARK VINA RESULT:    -5.291      0.000      0.000
REMARK INTER + INTRA:          -6.088
REMARK INTER:                  -5.909
REMARK INTRA:                  -0.179
REMARK UNBOUND:                -0.179
REMARK  Name = 1550473
REMARK  2 active torsions:
REMARK  status: ('A' for Active; 'I' for Inactive)
REMARK    1  A    between atoms: N_1  and  C_4
REMARK    2  A    between atoms: C_4  and  C_5
REMARK                            x       y       z     vdW  Elec       q    Type
REMARK                         _______ _______ _______ _____ _____    ______ ____
ROOT
ATOM      1  N   UNL     1      -0.925  -5.363 -12.833  0.00  0.00    -0.354 N 
ATOM      2  N   UNL     1       1.255  -5.257 -13.606  0.00  0.00    -0.372 N 
ATOM      3  N   UNL     1       0.685  -4.065 -11.731  0.00  0.00    -0.372 N 
ATOM      4  C   UNL     1       0.324  -4.894 -12.716  0.00  0.00    +0.166 C 
ATOM      5  H   UNL     1      -1.142  -5.963 -13.620  0.00  0.00    +0.163 HD
ATOM      6  H   UNL     1       2.207  -4.922 -13.542  0.00  0.00    +0.159 HD
ATOM      7  H   UNL     1       1.047  -5.894 -14.365  0.00  0.00    +0.159 HD
ATOM      8  H   UNL     1       0.028  -3.748 -11.030  0.00  0.00    +0.159 HD
ATOM      9  H   UNL     1       1.630  -3.710 -11.656  0.00  0.00    +0.159 HD
ENDROOT
BRANCH   1  10
ATOM     10  C   UNL     1      -2.000  -5.071 -11.886  0.00  0.00    +0.151 C 
BRANCH  10  11
ATOM     11  C   UNL     1      -2.838  -3.945 -12.426  0.00  0.00    -0.028 A 
ATOM     12  C   UNL     1      -3.618  -4.127 -13.577  0.00  0.00    +0.005 A 
ATOM     13  C   UNL     1      -2.861  -2.695 -11.787  0.00  0.00    +0.005 A 
ATOM     14  C   UNL     1      -4.420  -3.090 -14.062  0.00  0.00    +0.000 A 
ATOM     15  C   UNL     1      -3.662  -1.663 -12.275  0.00  0.00    +0.000 A 
ATOM     16  C   UNL     1      -4.443  -1.862 -13.411  0.00  0.00    +0.000 A 
ENDBRANCH  10  11
ENDBRANCH   1  10
TORSDOF 2
ENDMDL
MODEL 2
REMARK VINA RESULT:    -5.248      1.232      1.786
REMARK INTER + INTRA:          -6.040
REMARK INTER:                  -5.860
REMARK INTRA:                  -0.180
REMARK UNBOUND:                -0.179
REMARK  Name = 1550473
REMARK  2 active torsions:
REMARK  status: ('A' for Active; 'I' for Inactive)
REMARK    1  A    between atoms: N_1  and  C_4
REMARK    2  A    between atoms: C_4  and  C_5
REMARK                            x       y       z     vdW  Elec       q    Type
REMARK                         _______ _______ _______ _____ _____    ______ ____
ROOT
ATOM      1  N   UNL     1      -0.997  -2.941 -11.047  0.00  0.00    -0.354 N 
ATOM      2  N   UNL     1       1.204  -2.310 -11.390  0.00  0.00    -0.372 N 
ATOM      3  N   UNL     1       0.528  -4.392 -12.077  0.00  0.00    -0.372 N 
ATOM      4  C   UNL     1       0.231  -3.221 -11.503  0.00  0.00    +0.166 C 
ATOM      5  H   UNL     1      -1.151  -2.047 -10.595  0.00  0.00    +0.163 HD
ATOM      6  H   UNL     1       2.140  -2.492 -11.728  0.00  0.00    +0.159 HD
ATOM      7  H   UNL     1       1.037  -1.399 -10.980  0.00  0.00    +0.159 HD
ATOM      8  H   UNL     1      -0.161  -5.124 -12.187  0.00  0.00    +0.159 HD
ATOM      9  H   UNL     1       1.461  -4.597 -12.411  0.00  0.00    +0.159 HD
ENDROOT
BRANCH   1  10
ATOM     10  C   UNL     1      -2.141  -3.843 -11.170  0.00  0.00    +0.151 C 
BRANCH  10  11
ATOM     11  C   UNL     1      -3.005  -3.388 -12.314  0.00  0.00    -0.028 A 
ATOM     12  C   UNL     1      -3.212  -4.220 -13.424  0.00  0.00    +0.005 A 
ATOM     13  C   UNL     1      -3.624  -2.129 -12.291  0.00  0.00    +0.005 A 
ATOM     14  C   UNL     1      -4.039  -3.810 -14.473  0.00  0.00    +0.000 A 
ATOM     15  C   UNL     1      -4.447  -1.723 -13.340  0.00  0.00    +0.000 A 
ATOM     16  C   UNL     1      -4.657  -2.565 -14.430  0.00  0.00    +0.000 A 
ENDBRANCH  10  11
ENDBRANCH   1  10
TORSDOF 2
ENDMDL
MODEL 3
REMARK VINA RESULT:    -5.096      3.394      4.547
REMARK INTER + INTRA:          -5.870
REMARK INTER:                  -5.738
REMARK INTRA:                  -0.133
REMARK UNBOUND:                -0.179
REMARK  Name = 1550473
REMARK  2 active torsions:
REMARK  status: ('A' for Active; 'I' for Inactive)
REMARK    1  A    between atoms: N_1  and  C_4
REMARK    2  A    between atoms: C_4  and  C_5
REMARK                            x       y       z     vdW  Elec       q    Type
REMARK                         _______ _______ _______ _____ _____    ______ ____
ROOT
ATOM      1  N   UNL     1      -5.019  -3.668 -12.362  0.00  0.00    -0.354 N 
ATOM      2  N   UNL     1      -6.178  -2.577 -10.680  0.00  0.00    -0.372 N 
ATOM      3  N   UNL     1      -3.956  -3.058 -10.365  0.00  0.00    -0.372 N 
ATOM      4  C   UNL     1      -5.041  -3.108 -11.145  0.00  0.00    +0.166 C 
ATOM      5  H   UNL     1      -5.883  -3.702 -12.892  0.00  0.00    +0.163 HD
ATOM      6  H   UNL     1      -6.224  -2.145  -9.767  0.00  0.00    +0.159 HD
ATOM      7  H   UNL     1      -7.028  -2.571 -11.230  0.00  0.00    +0.159 HD
ATOM      8  H   UNL     1      -3.069  -3.446 -10.656  0.00  0.00    +0.159 HD
ATOM      9  H   UNL     1      -3.985  -2.640  -9.443  0.00  0.00    +0.159 HD
ENDROOT
BRANCH   1  10
ATOM     10  C   UNL     1      -3.820  -4.227 -12.984  0.00  0.00    +0.151 C 
BRANCH  10  11
ATOM     11  C   UNL     1      -3.892  -4.011 -14.471  0.00  0.00    -0.028 A 
ATOM     12  C   UNL     1      -3.054  -4.730 -15.336  0.00  0.00    +0.005 A 
ATOM     13  C   UNL     1      -4.800  -3.093 -15.021  0.00  0.00    +0.005 A 
ATOM     14  C   UNL     1      -3.141  -4.551 -16.719  0.00  0.00    +0.000 A 
ATOM     15  C   UNL     1      -4.883  -2.917 -16.402  0.00  0.00    +0.000 A 
ATOM     16  C   UNL     1      -4.055  -3.648 -17.251  0.00  0.00    +0.000 A 
ENDBRANCH  10  11
ENDBRANCH   1  10
TORSDOF 2
ENDMDL
MODEL 4
REMARK VINA RESULT:    -5.085      2.196      2.952
REMARK INTER + INTRA:          -5.859
REMARK INTER:                  -5.695
REMARK INTRA:                  -0.163
REMARK UNBOUND:                -0.179
REMARK  Name = 1550473
REMARK  2 active torsions:
REMARK  status: ('A' for Active; 'I' for Inactive)
REMARK    1  A    between atoms: N_1  and  C_4
REMARK    2  A    between atoms: C_4  and  C_5
REMARK                            x       y       z     vdW  Elec       q    Type
REMARK                         _______ _______ _______ _____ _____    ______ ____
ROOT
ATOM      1  N   UNL     1      -2.892  -6.512 -12.971  0.00  0.00    -0.354 N 
ATOM      2  N   UNL     1      -4.320  -8.233 -12.370  0.00  0.00    -0.372 N 
ATOM      3  N   UNL     1      -2.961  -7.309 -10.769  0.00  0.00    -0.372 N 
ATOM      4  C   UNL     1      -3.380  -7.340 -12.038  0.00  0.00    +0.166 C 
ATOM      5  H   UNL     1      -3.229  -6.606 -13.922  0.00  0.00    +0.163 HD
ATOM      6  H   UNL     1      -4.710  -8.868 -11.686  0.00  0.00    +0.159 HD
ATOM      7  H   UNL     1      -4.689  -8.293 -13.311  0.00  0.00    +0.159 HD
ATOM      8  H   UNL     1      -2.249  -6.663 -10.455  0.00  0.00    +0.159 HD
ATOM      9  H   UNL     1      -3.330  -7.945 -10.073  0.00  0.00    +0.159 HD
ENDROOT
BRANCH   1  10
ATOM     10  C   UNL     1      -1.905  -5.468 -12.702  0.00  0.00    +0.151 C 
BRANCH  10  11
ATOM     11  C   UNL     1      -2.597  -4.133 -12.674  0.00  0.00    -0.028 A 
ATOM     12  C   UNL     1      -3.683  -3.876 -13.523  0.00  0.00    +0.005 A 
ATOM     13  C   UNL     1      -2.176  -3.123 -11.795  0.00  0.00    +0.005 A 
ATOM     14  C   UNL     1      -4.346  -2.647 -13.476  0.00  0.00    +0.000 A 
ATOM     15  C   UNL     1      -2.839  -1.897 -11.752  0.00  0.00    +0.000 A 
ATOM     16  C   UNL     1      -3.926  -1.660 -12.590  0.00  0.00    +0.000 A 
ENDBRANCH  10  11
ENDBRANCH   1  10
TORSDOF 2
ENDMDL
MODEL 5
REMARK VINA RESULT:    -5.081      2.664      3.869
REMARK INTER + INTRA:          -5.854
REMARK INTER:                  -5.735
REMARK INTRA:                  -0.118
REMARK UNBOUND:                -0.179
REMARK  Name = 1550473
REMARK  2 active torsions:
REMARK  status: ('A' for Active; 'I' for Inactive)
REMARK    1  A    between atoms: N_1  and  C_4
REMARK    2  A    between atoms: C_4  and  C_5
REMARK                            x       y       z     vdW  Elec       q    Type
REMARK                         _______ _______ _______ _____ _____    ______ ____
ROOT
ATOM      1  N   UNL     1      -3.323  -3.962 -12.173  0.00  0.00    -0.354 N 
ATOM      2  N   UNL     1      -2.114  -4.027 -10.198  0.00  0.00    -0.372 N 
ATOM      3  N   UNL     1      -4.065  -2.822 -10.265  0.00  0.00    -0.372 N 
ATOM      4  C   UNL     1      -3.177  -3.602 -10.891  0.00  0.00    +0.166 C 
ATOM      5  H   UNL     1      -2.599  -4.530 -12.598  0.00  0.00    +0.163 HD
ATOM      6  H   UNL     1      -1.979  -3.775  -9.229  0.00  0.00    +0.159 HD
ATOM      7  H   UNL     1      -1.416  -4.633 -10.613  0.00  0.00    +0.159 HD
ATOM      8  H   UNL     1      -4.886  -2.463 -10.734  0.00  0.00    +0.159 HD
ATOM      9  H   UNL     1      -3.942  -2.549  -9.298  0.00  0.00    +0.159 HD
ENDROOT
BRANCH   1  10
ATOM     10  C   UNL     1      -4.471  -3.597 -13.000  0.00  0.00    +0.151 C 
BRANCH  10  11
ATOM     11  C   UNL     1      -4.117  -3.794 -14.448  0.00  0.00    -0.028 A 
ATOM     12  C   UNL     1      -4.758  -3.046 -15.446  0.00  0.00    +0.005 A 
ATOM     13  C   UNL     1      -3.136  -4.722 -14.828  0.00  0.00    +0.005 A 
ATOM     14  C   UNL     1      -4.408  -3.207 -16.789  0.00  0.00    +0.000 A 
ATOM     15  C   UNL     1      -2.789  -4.881 -16.170  0.00  0.00    +0.000 A 
ATOM     16  C   UNL     1      -3.424  -4.121 -17.150  0.00  0.00    +0.000 A 
ENDBRANCH  10  11
ENDBRANCH   1  10
TORSDOF 2
ENDMDL
MODEL 6
REMARK VINA RESULT:    -4.775     31.564     32.742
REMARK INTER + INTRA:          -5.512
REMARK INTER:                  -5.337
REMARK INTRA:                  -0.175
REMARK UNBOUND:                -0.179
REMARK  Name = 1550473
REMARK  2 active torsions:
REMARK  status: ('A' for Active; 'I' for Inactive)
REMARK    1  A    between atoms: N_1  and  C_4
REMARK    2  A    between atoms: C_4  and  C_5
REMARK                            x       y       z     vdW  Elec       q    Type
REMARK                         _______ _______ _______ _____ _____    ______ ____
ROOT
ATOM      1  N   UNL     1       3.161   1.553  17.267  0.00  0.00    -0.354 N 
ATOM      2  N   UNL     1       0.960   2.258  17.409  0.00  0.00    -0.372 N 
ATOM      3  N   UNL     1       1.698   0.631  18.848  0.00  0.00    -0.372 N 
ATOM      4  C   UNL     1       1.954   1.474  17.842  0.00  0.00    +0.166 C 
ATOM      5  H   UNL     1       3.283   2.191  16.489  0.00  0.00    +0.163 HD
ATOM      6  H   UNL     1       0.039   2.224  17.826  0.00  0.00    +0.159 HD
ATOM      7  H   UNL     1       1.096   2.928  16.662  0.00  0.00    +0.159 HD
ATOM      8  H   UNL     1       2.403   0.008  19.217  0.00  0.00    +0.159 HD
ATOM      9  H   UNL     1       0.780   0.573  19.271  0.00  0.00    +0.159 HD
ENDROOT
BRANCH   1  10
ATOM     10  C   UNL     1       4.325   0.781  17.699  0.00  0.00    +0.151 C 
BRANCH  10  11
ATOM     11  C   UNL     1       5.284   1.696  18.411  0.00  0.00    -0.028 A 
ATOM     12  C   UNL     1       6.320   2.327  17.708  0.00  0.00    +0.005 A 
ATOM     13  C   UNL     1       5.157   1.939  19.787  0.00  0.00    +0.005 A 
ATOM     14  C   UNL     1       7.192   3.200  18.363  0.00  0.00    +0.000 A 
ATOM     15  C   UNL     1       6.031   2.811  20.437  0.00  0.00    +0.000 A 
ATOM     16  C   UNL     1       7.047   3.443  19.725  0.00  0.00    +0.000 A 
ENDBRANCH  10  11
ENDBRANCH   1  10
TORSDOF 2
ENDMDL
MODEL 7
REMARK VINA RESULT:    -4.668     32.590     33.770
REMARK INTER + INTRA:          -5.392
REMARK INTER:                  -5.388
REMARK INTRA:                  -0.004
REMARK UNBOUND:                -0.179
REMARK  Name = 1550473
REMARK  2 active torsions:
REMARK  status: ('A' for Active; 'I' for Inactive)
REMARK    1  A    between atoms: N_1  and  C_4
REMARK    2  A    between atoms: C_4  and  C_5
REMARK                            x       y       z     vdW  Elec       q    Type
REMARK                         _______ _______ _______ _____ _____    ______ ____
ROOT
ATOM      1  N   UNL     1       3.231   2.106  17.936  0.00  0.00    -0.354 N 
ATOM      2  N   UNL     1       1.004   2.375  17.360  0.00  0.00    -0.372 N 
ATOM      3  N   UNL     1       1.705   0.340  18.155  0.00  0.00    -0.372 N 
ATOM      4  C   UNL     1       1.994   1.602  17.821  0.00  0.00    +0.166 C 
ATOM      5  H   UNL     1       3.391   3.061  17.638  0.00  0.00    +0.163 HD
ATOM      6  H   UNL     1       0.060   2.024  17.265  0.00  0.00    +0.159 HD
ATOM      7  H   UNL     1       1.157   3.343  17.106  0.00  0.00    +0.159 HD
ATOM      8  H   UNL     1       2.409  -0.296  18.504  0.00  0.00    +0.159 HD
ATOM      9  H   UNL     1       0.769  -0.033  18.056  0.00  0.00    +0.159 HD
ENDROOT
BRANCH   1  10
ATOM     10  C   UNL     1       4.368   1.364  18.478  0.00  0.00    +0.151 C 
BRANCH  10  11
ATOM     11  C   UNL     1       4.569   1.755  19.916  0.00  0.00    -0.028 A 
ATOM     12  C   UNL     1       5.703   1.323  20.620  0.00  0.00    +0.005 A 
ATOM     13  C   UNL     1       3.631   2.562  20.580  0.00  0.00    +0.005 A 
ATOM     14  C   UNL     1       5.905   1.711  21.947  0.00  0.00    +0.000 A 
ATOM     15  C   UNL     1       3.836   2.946  21.905  0.00  0.00    +0.000 A 
ATOM     16  C   UNL     1       4.974   2.522  22.587  0.00  0.00    +0.000 A 
ENDBRANCH  10  11
ENDBRANCH   1  10
TORSDOF 2
ENDMDL
MODEL 8
REMARK VINA RESULT:    -4.590      1.865      2.794
REMARK INTER + INTRA:          -5.305
REMARK INTER:                  -5.141
REMARK INTRA:                  -0.164
REMARK UNBOUND:                -0.179
REMARK  Name = 1550473
REMARK  2 active torsions:
REMARK  status: ('A' for Active; 'I' for Inactive)
REMARK    1  A    between atoms: N_1  and  C_4
REMARK    2  A    between atoms: C_4  and  C_5
REMARK                            x       y       z     vdW  Elec       q    Type
REMARK                         _______ _______ _______ _____ _____    ______ ____
ROOT
ATOM      1  N   UNL     1      -1.182  -5.358 -13.430  0.00  0.00    -0.354 N 
ATOM      2  N   UNL     1       0.587  -4.476 -12.222  0.00  0.00    -0.372 N 
ATOM      3  N   UNL     1      -1.511  -4.454 -11.293  0.00  0.00    -0.372 N 
ATOM      4  C   UNL     1      -0.716  -4.768 -12.322  0.00  0.00    +0.166 C 
ATOM      5  H   UNL     1      -0.533  -5.542 -14.187  0.00  0.00    +0.163 HD
ATOM      6  H   UNL     1       0.968  -4.034 -11.397  0.00  0.00    +0.159 HD
ATOM      7  H   UNL     1       1.241  -4.703 -12.961  0.00  0.00    +0.159 HD
ATOM      8  H   UNL     1      -2.505  -4.642 -11.308  0.00  0.00    +0.159 HD
ATOM      9  H   UNL     1      -1.151  -4.001 -10.463  0.00  0.00    +0.159 HD
ENDROOT
BRANCH   1  10
ATOM     10  C   UNL     1      -2.573  -5.766 -13.616  0.00  0.00    +0.151 C 
BRANCH  10  11
ATOM     11  C   UNL     1      -3.206  -4.891 -14.664  0.00  0.00    -0.028 A 
ATOM     12  C   UNL     1      -4.169  -3.936 -14.306  0.00  0.00    +0.005 A 
ATOM     13  C   UNL     1      -2.843  -5.009 -16.014  0.00  0.00    +0.005 A 
ATOM     14  C   UNL     1      -4.734  -3.103 -15.275  0.00  0.00    +0.000 A 
ATOM     15  C   UNL     1      -3.411  -4.176 -16.978  0.00  0.00    +0.000 A 
ATOM     16  C   UNL     1      -4.355  -3.221 -16.607  0.00  0.00    +0.000 A 
ENDBRANCH  10  11
ENDBRANCH   1  10
TORSDOF 2
ENDMDL
MODEL 9
REMARK VINA RESULT:    -4.530     27.131     28.344
REMARK INTER + INTRA:          -5.239
REMARK INTER:                  -5.108
REMARK INTRA:                  -0.131
REMARK UNBOUND:                -0.179
REMARK  Name = 1550473
REMARK  2 active torsions:
REMARK  status: ('A' for Active; 'I' for Inactive)
REMARK    1  A    between atoms: N_1  and  C_4
REMARK    2  A    between atoms: C_4  and  C_5
REMARK                            x       y       z     vdW  Elec       q    Type
REMARK                         _______ _______ _______ _____ _____    ______ ____
ROOT
ATOM      1  N   UNL     1       5.687  -8.737  13.005  0.00  0.00    -0.354 N 
ATOM      2  N   UNL     1       6.861  -9.943  11.414  0.00  0.00    -0.372 N 
ATOM      3  N   UNL     1       5.692  -8.082  10.755  0.00  0.00    -0.372 N 
ATOM      4  C   UNL     1       6.071  -8.911  11.733  0.00  0.00    +0.166 C 
ATOM      5  H   UNL     1       5.984  -9.418  13.695  0.00  0.00    +0.163 HD
ATOM      6  H   UNL     1       7.169 -10.098  10.464  0.00  0.00    +0.159 HD
ATOM      7  H   UNL     1       7.194 -10.596  12.113  0.00  0.00    +0.159 HD
ATOM      8  H   UNL     1       5.091  -7.288  10.929  0.00  0.00    +0.159 HD
ATOM      9  H   UNL     1       5.981  -8.227   9.796  0.00  0.00    +0.159 HD
ENDROOT
BRANCH   1  10
ATOM     10  C   UNL     1       4.872  -7.615  13.467  0.00  0.00    +0.151 C 
BRANCH  10  11
ATOM     11  C   UNL     1       5.617  -6.878  14.546  0.00  0.00    -0.028 A 
ATOM     12  C   UNL     1       6.969  -7.157  14.795  0.00  0.00    +0.005 A 
ATOM     13  C   UNL     1       4.978  -5.896  15.318  0.00  0.00    +0.005 A 
ATOM     14  C   UNL     1       7.669  -6.451  15.777  0.00  0.00    +0.000 A 
ATOM     15  C   UNL     1       5.680  -5.194  16.298  0.00  0.00    +0.000 A 
ATOM     16  C   UNL     1       7.026  -5.471  16.525  0.00  0.00    +0.000 A 
ENDBRANCH  10  11
ENDBRANCH   1  10
TORSDOF 2
ENDMDL
