MODEL 1
REMARK VINA RESULT:    -6.682      0.000      0.000
REMARK INTER + INTRA:          -7.639
REMARK INTER:                  -7.464
REMARK INTRA:                  -0.175
REMARK UNBOUND:                -0.175
REMARK  Name = 1550473
REMARK  2 active torsions:
REMARK  status: ('A' for Active; 'I' for Inactive)
REMARK    1  A    between atoms: N_1  and  C_4
REMARK    2  A    between atoms: C_4  and  C_5
REMARK                            x       y       z     vdW  Elec       q    Type
REMARK                         _______ _______ _______ _____ _____    ______ ____
ROOT
ATOM      1  N   UNL     1      -2.658   4.494 -10.449  0.00  0.00    -0.354 N 
ATOM      2  N   UNL     1      -0.930   5.312 -11.756  0.00  0.00    -0.372 N 
ATOM      3  N   UNL     1      -2.800   4.475 -12.788  0.00  0.00    -0.372 N 
ATOM      4  C   UNL     1      -2.142   4.754 -11.658  0.00  0.00    +0.166 C 
ATOM      5  H   UNL     1      -2.096   4.701  -9.632  0.00  0.00    +0.163 HD
ATOM      6  H   UNL     1      -0.516   5.523 -12.654  0.00  0.00    +0.159 HD
ATOM      7  H   UNL     1      -0.390   5.561 -10.936  0.00  0.00    +0.159 HD
ATOM      8  H   UNL     1      -3.717   4.048 -12.783  0.00  0.00    +0.159 HD
ATOM      9  H   UNL     1      -2.398   4.668 -13.697  0.00  0.00    +0.159 HD
ENDROOT
BRANCH   1  10
ATOM     10  C   UNL     1      -3.992   3.937 -10.232  0.00  0.00    +0.151 C 
BRANCH  10  11
ATOM     11  C   UNL     1      -4.929   5.045  -9.837  0.00  0.00    -0.028 A 
ATOM     12  C   UNL     1      -6.123   5.253 -10.543  0.00  0.00    +0.005 A 
ATOM     13  C   UNL     1      -4.630   5.887  -8.755  0.00  0.00    +0.005 A 
ATOM     14  C   UNL     1      -7.008   6.263 -10.158  0.00  0.00    +0.000 A 
ATOM     15  C   UNL     1      -5.516   6.895  -8.374  0.00  0.00    +0.000 A 
ATOM     16  C   UNL     1      -6.705   7.081  -9.074  0.00  0.00    +0.000 A 
ENDBRANCH  10  11
ENDBRANCH   1  10
TORSDOF 2
ENDMDL
MODEL 2
REMARK VINA RESULT:    -6.467      1.593      2.367
REMARK INTER + INTRA:          -7.398
REMARK INTER:                  -7.254
REMARK INTRA:                  -0.144
REMARK UNBOUND:                -0.175
REMARK  Name = 1550473
REMARK  2 active torsions:
REMARK  status: ('A' for Active; 'I' for Inactive)
REMARK    1  A    between atoms: N_1  and  C_4
REMARK    2  A    between atoms: C_4  and  C_5
REMARK                            x       y       z     vdW  Elec       q    Type
REMARK                         _______ _______ _______ _____ _____    ______ ____
ROOT
ATOM      1  N   UNL     1      -2.507   4.590  -8.615  0.00  0.00    -0.354 N 
ATOM      2  N   UNL     1      -0.362   5.173  -7.962  0.00  0.00    -0.372 N 
ATOM      3  N   UNL     1      -0.784   4.812 -10.188  0.00  0.00    -0.372 N 
ATOM      4  C   UNL     1      -1.231   4.854  -8.929  0.00  0.00    +0.166 C 
ATOM      5  H   UNL     1      -2.776   4.609  -7.638  0.00  0.00    +0.163 HD
ATOM      6  H   UNL     1       0.606   5.380  -8.169  0.00  0.00    +0.159 HD
ATOM      7  H   UNL     1      -0.645   5.236  -6.991  0.00  0.00    +0.159 HD
ATOM      8  H   UNL     1      -1.388   4.572 -10.963  0.00  0.00    +0.159 HD
ATOM      9  H   UNL     1       0.184   5.005 -10.414  0.00  0.00    +0.159 HD
ENDROOT
BRANCH   1  10
ATOM     10  C   UNL     1      -3.544   4.285  -9.598  0.00  0.00    +0.151 C 
BRANCH  10  11
ATOM     11  C   UNL     1      -4.687   5.247  -9.421  0.00  0.00    -0.028 A 
ATOM     12  C   UNL     1      -4.678   6.177  -8.371  0.00  0.00    +0.005 A 
ATOM     13  C   UNL     1      -5.778   5.237 -10.302  0.00  0.00    +0.005 A 
ATOM     14  C   UNL     1      -5.725   7.090  -8.223  0.00  0.00    +0.000 A 
ATOM     15  C   UNL     1      -6.822   6.150 -10.151  0.00  0.00    +0.000 A 
ATOM     16  C   UNL     1      -6.793   7.078  -9.113  0.00  0.00    +0.000 A 
ENDBRANCH  10  11
ENDBRANCH   1  10
TORSDOF 2
ENDMDL
MODEL 3
REMARK VINA RESULT:    -6.147      4.626      5.396
REMARK INTER + INTRA:          -7.041
REMARK INTER:                  -6.916
REMARK INTRA:                  -0.125
REMARK UNBOUND:                -0.175
REMARK  Name = 1550473
REMARK  2 active torsions:
REMARK  status: ('A' for Active; 'I' for Inactive)
REMARK    1  A    between atoms: N_1  and  C_4
REMARK    2  A    between atoms: C_4  and  C_5
REMARK                            x       y       z     vdW  Elec       q    Type
REMARK                         _______ _______ _______ _____ _____    ______ ____
ROOT
ATOM      1  N   UNL     1      -1.442   0.552  -9.453  0.00  0.00    -0.354 N 
ATOM      2  N   UNL     1      -0.155  -0.884  -8.170  0.00  0.00    -0.372 N 
ATOM      3  N   UNL     1      -2.058   0.014  -7.257  0.00  0.00    -0.372 N 
ATOM      4  C   UNL     1      -1.229  -0.096  -8.300  0.00  0.00    +0.166 C 
ATOM      5  H   UNL     1      -0.760   0.451 -10.195  0.00  0.00    +0.163 HD
ATOM      6  H   UNL     1       0.030  -1.388  -7.313  0.00  0.00    +0.159 HD
ATOM      7  H   UNL     1       0.501  -1.020  -8.930  0.00  0.00    +0.159 HD
ATOM      8  H   UNL     1      -2.884   0.598  -7.288  0.00  0.00    +0.159 HD
ATOM      9  H   UNL     1      -1.884  -0.473  -6.387  0.00  0.00    +0.159 HD
ENDROOT
BRANCH   1  10
ATOM     10  C   UNL     1      -2.609   1.392  -9.715  0.00  0.00    +0.151 C 
BRANCH  10  11
ATOM     11  C   UNL     1      -2.172   2.621 -10.464  0.00  0.00    -0.028 A 
ATOM     12  C   UNL     1      -2.625   2.858 -11.770  0.00  0.00    +0.005 A 
ATOM     13  C   UNL     1      -1.309   3.555  -9.871  0.00  0.00    +0.005 A 
ATOM     14  C   UNL     1      -2.243   4.014 -12.455  0.00  0.00    +0.000 A 
ATOM     15  C   UNL     1      -0.929   4.708 -10.558  0.00  0.00    +0.000 A 
ATOM     16  C   UNL     1      -1.399   4.938 -11.849  0.00  0.00    +0.000 A 
ENDBRANCH  10  11
ENDBRANCH   1  10
TORSDOF 2
ENDMDL
MODEL 4
REMARK VINA RESULT:    -6.026      1.516      2.408
REMARK INTER + INTRA:          -6.906
REMARK INTER:                  -6.809
REMARK INTRA:                  -0.097
REMARK UNBOUND:                -0.175
REMARK  Name = 1550473
REMARK  2 active torsions:
REMARK  status: ('A' for Active; 'I' for Inactive)
REMARK    1  A    between atoms: N_1  and  C_4
REMARK    2  A    between atoms: C_4  and  C_5
REMARK                            x       y       z     vdW  Elec       q    Type
REMARK                         _______ _______ _______ _____ _____    ______ ____
ROOT
ATOM      1  N   UNL     1      -3.529   4.861 -11.576  0.00  0.00    -0.354 N 
ATOM      2  N   UNL     1      -4.060   5.276 -13.792  0.00  0.00    -0.372 N 
ATOM      3  N   UNL     1      -5.310   3.750 -12.620  0.00  0.00    -0.372 N 
ATOM      4  C   UNL     1      -4.298   4.624 -12.648  0.00  0.00    +0.166 C 
ATOM      5  H   UNL     1      -2.759   5.513 -11.671  0.00  0.00    +0.163 HD
ATOM      6  H   UNL     1      -4.625   5.121 -14.616  0.00  0.00    +0.159 HD
ATOM      7  H   UNL     1      -3.318   5.961 -13.871  0.00  0.00    +0.159 HD
ATOM      8  H   UNL     1      -5.538   3.222 -11.788  0.00  0.00    +0.159 HD
ATOM      9  H   UNL     1      -5.879   3.572 -13.437  0.00  0.00    +0.159 HD
ENDROOT
BRANCH   1  10
ATOM     10  C   UNL     1      -3.738   4.244 -10.268  0.00  0.00    +0.151 C 
BRANCH  10  11
ATOM     11  C   UNL     1      -4.318   5.266  -9.330  0.00  0.00    -0.028 A 
ATOM     12  C   UNL     1      -3.650   5.603  -8.143  0.00  0.00    +0.005 A 
ATOM     13  C   UNL     1      -5.532   5.906  -9.625  0.00  0.00    +0.005 A 
ATOM     14  C   UNL     1      -4.173   6.575  -7.286  0.00  0.00    +0.000 A 
ATOM     15  C   UNL     1      -6.051   6.875  -8.766  0.00  0.00    +0.000 A 
ATOM     16  C   UNL     1      -5.370   7.211  -7.598  0.00  0.00    +0.000 A 
ENDBRANCH  10  11
ENDBRANCH   1  10
TORSDOF 2
ENDMDL
MODEL 5
REMARK VINA RESULT:    -5.211     36.246     37.058
REMARK INTER + INTRA:          -5.996
REMARK INTER:                  -5.850
REMARK INTRA:                  -0.146
REMARK UNBOUND:                -0.175
REMARK  Name = 1550473
REMARK  2 active torsions:
REMARK  status: ('A' for Active; 'I' for Inactive)
REMARK    1  A    between atoms: N_1  and  C_4
REMARK    2  A    between atoms: C_4  and  C_5
REMARK                            x       y       z     vdW  Elec       q    Type
REMARK                         _______ _______ _______ _____ _____    ______ ____
ROOT
ATOM      1  N   UNL     1     -29.793 -18.661  -1.086  0.00  0.00    -0.354 N 
ATOM      2  N   UNL     1     -28.561 -18.272  -3.008  0.00  0.00    -0.372 N 
ATOM      3  N   UNL     1     -30.288 -19.781  -3.084  0.00  0.00    -0.372 N 
ATOM      4  C   UNL     1     -29.557 -18.909  -2.381  0.00  0.00    +0.166 C 
ATOM      5  H   UNL     1     -29.184 -18.012  -0.601  0.00  0.00    +0.163 HD
ATOM      6  H   UNL     1     -28.361 -18.436  -3.985  0.00  0.00    +0.159 HD
ATOM      7  H   UNL     1     -27.983 -17.589  -2.533  0.00  0.00    +0.159 HD
ATOM      8  H   UNL     1     -31.050 -20.299  -2.668  0.00  0.00    +0.159 HD
ATOM      9  H   UNL     1     -30.096 -19.967  -4.060  0.00  0.00    +0.159 HD
ENDROOT
BRANCH   1  10
ATOM     10  C   UNL     1     -30.887 -19.262  -0.324  0.00  0.00    +0.151 C 
BRANCH  10  11
ATOM     11  C   UNL     1     -31.706 -18.169   0.304  0.00  0.00    -0.028 A 
ATOM     12  C   UNL     1     -31.279 -16.834   0.245  0.00  0.00    +0.005 A 
ATOM     13  C   UNL     1     -32.915 -18.460   0.955  0.00  0.00    +0.005 A 
ATOM     14  C   UNL     1     -32.055 -15.815   0.801  0.00  0.00    +0.000 A 
ATOM     15  C   UNL     1     -33.686 -17.440   1.511  0.00  0.00    +0.000 A 
ATOM     16  C   UNL     1     -33.257 -16.117   1.431  0.00  0.00    +0.000 A 
ENDBRANCH  10  11
ENDBRANCH   1  10
TORSDOF 2
ENDMDL
MODEL 6
REMARK VINA RESULT:    -4.773     36.322     37.087
REMARK INTER + INTRA:          -5.507
REMARK INTER:                  -5.395
REMARK INTRA:                  -0.111
REMARK UNBOUND:                -0.175
REMARK  Name = 1550473
REMARK  2 active torsions:
REMARK  status: ('A' for Active; 'I' for Inactive)
REMARK    1  A    between atoms: N_1  and  C_4
REMARK    2  A    between atoms: C_4  and  C_5
REMARK                            x       y       z     vdW  Elec       q    Type
REMARK                         _______ _______ _______ _____ _____    ______ ____
ROOT
ATOM      1  N   UNL     1     -28.454 -21.710  -2.202  0.00  0.00    -0.354 N 
ATOM      2  N   UNL     1     -27.230 -23.669  -2.035  0.00  0.00    -0.372 N 
ATOM      3  N   UNL     1     -28.404 -23.256  -3.962  0.00  0.00    -0.372 N 
ATOM      4  C   UNL     1     -28.038 -22.866  -2.737  0.00  0.00    +0.166 C 
ATOM      5  H   UNL     1     -28.165 -21.485  -1.257  0.00  0.00    +0.163 HD
ATOM      6  H   UNL     1     -26.897 -24.546  -2.413  0.00  0.00    +0.159 HD
ATOM      7  H   UNL     1     -26.906 -23.420  -1.108  0.00  0.00    +0.159 HD
ATOM      8  H   UNL     1     -29.018 -22.699  -4.541  0.00  0.00    +0.159 HD
ATOM      9  H   UNL     1     -28.092 -24.136  -4.353  0.00  0.00    +0.159 HD
ENDROOT
BRANCH   1  10
ATOM     10  C   UNL     1     -29.292 -20.739  -2.904  0.00  0.00    +0.151 C 
BRANCH  10  11
ATOM     11  C   UNL     1     -29.832 -19.748  -1.910  0.00  0.00    -0.028 A 
ATOM     12  C   UNL     1     -30.451 -20.186  -0.731  0.00  0.00    +0.005 A 
ATOM     13  C   UNL     1     -29.722 -18.367  -2.140  0.00  0.00    +0.005 A 
ATOM     14  C   UNL     1     -30.925 -19.266   0.207  0.00  0.00    +0.000 A 
ATOM     15  C   UNL     1     -30.198 -17.451  -1.202  0.00  0.00    +0.000 A 
ATOM     16  C   UNL     1     -30.797 -17.901  -0.028  0.00  0.00    +0.000 A 
ENDBRANCH  10  11
ENDBRANCH   1  10
TORSDOF 2
ENDMDL
MODEL 7
REMARK VINA RESULT:    -4.754     21.043     22.085
REMARK INTER + INTRA:          -5.485
REMARK INTER:                  -5.335
REMARK INTRA:                  -0.150
REMARK UNBOUND:                -0.175
REMARK  Name = 1550473
REMARK  2 active torsions:
REMARK  status: ('A' for Active; 'I' for Inactive)
REMARK    1  A    between atoms: N_1  and  C_4
REMARK    2  A    between atoms: C_4  and  C_5
REMARK                            x       y       z     vdW  Elec       q    Type
REMARK                         _______ _______ _______ _____ _____    ______ ____
ROOT
ATOM      1  N   UNL     1     -16.238  -1.206   5.227  0.00  0.00    -0.354 N 
ATOM      2  N   UNL     1     -15.053  -0.111   3.566  0.00  0.00    -0.372 N 
ATOM      3  N   UNL     1     -16.353   1.123   4.998  0.00  0.00    -0.372 N 
ATOM      4  C   UNL     1     -15.891  -0.070   4.609  0.00  0.00    +0.166 C 
ATOM      5  H   UNL     1     -15.877  -2.081   4.865  0.00  0.00    +0.163 HD
ATOM      6  H   UNL     1     -14.770   0.730   3.082  0.00  0.00    +0.159 HD
ATOM      7  H   UNL     1     -14.657  -0.983   3.235  0.00  0.00    +0.159 HD
ATOM      8  H   UNL     1     -16.993   1.222   5.775  0.00  0.00    +0.159 HD
ATOM      9  H   UNL     1     -16.091   1.975   4.519  0.00  0.00    +0.159 HD
ENDROOT
BRANCH   1  10
ATOM     10  C   UNL     1     -17.102  -1.265   6.405  0.00  0.00    +0.151 C 
BRANCH  10  11
ATOM     11  C   UNL     1     -16.304  -1.776   7.574  0.00  0.00    -0.028 A 
ATOM     12  C   UNL     1     -16.622  -3.005   8.170  0.00  0.00    +0.005 A 
ATOM     13  C   UNL     1     -15.226  -1.038   8.085  0.00  0.00    +0.005 A 
ATOM     14  C   UNL     1     -15.863  -3.493   9.236  0.00  0.00    +0.000 A 
ATOM     15  C   UNL     1     -14.471  -1.529   9.150  0.00  0.00    +0.000 A 
ATOM     16  C   UNL     1     -14.788  -2.758   9.724  0.00  0.00    +0.000 A 
ENDBRANCH  10  11
ENDBRANCH   1  10
TORSDOF 2
ENDMDL
MODEL 8
REMARK VINA RESULT:    -4.592     20.255     21.355
REMARK INTER + INTRA:          -5.305
REMARK INTER:                  -5.181
REMARK INTRA:                  -0.124
REMARK UNBOUND:                -0.175
REMARK  Name = 1550473
REMARK  2 active torsions:
REMARK  status: ('A' for Active; 'I' for Inactive)
REMARK    1  A    between atoms: N_1  and  C_4
REMARK    2  A    between atoms: C_4  and  C_5
REMARK                            x       y       z     vdW  Elec       q    Type
REMARK                         _______ _______ _______ _____ _____    ______ ____
ROOT
ATOM      1  N   UNL     1     -15.452  -1.106   7.396  0.00  0.00    -0.354 N 
ATOM      2  N   UNL     1     -13.893  -1.975   8.872  0.00  0.00    -0.372 N 
ATOM      3  N   UNL     1     -16.031  -2.808   8.900  0.00  0.00    -0.372 N 
ATOM      4  C   UNL     1     -15.138  -1.959   8.381  0.00  0.00    +0.166 C 
ATOM      5  H   UNL     1     -14.738  -0.467   7.067  0.00  0.00    +0.163 HD
ATOM      6  H   UNL     1     -13.626  -2.610   9.613  0.00  0.00    +0.159 HD
ATOM      7  H   UNL     1     -13.169  -1.367   8.510  0.00  0.00    +0.159 HD
ATOM      8  H   UNL     1     -16.989  -2.841   8.577  0.00  0.00    +0.159 HD
ATOM      9  H   UNL     1     -15.785  -3.443   9.649  0.00  0.00    +0.159 HD
ENDROOT
BRANCH   1  10
ATOM     10  C   UNL     1     -16.764  -1.045   6.755  0.00  0.00    +0.151 C 
BRANCH  10  11
ATOM     11  C   UNL     1     -16.582  -1.069   5.262  0.00  0.00    -0.028 A 
ATOM     12  C   UNL     1     -17.362  -1.917   4.463  0.00  0.00    +0.005 A 
ATOM     13  C   UNL     1     -15.636  -0.240   4.640  0.00  0.00    +0.005 A 
ATOM     14  C   UNL     1     -17.215  -1.917   3.074  0.00  0.00    +0.000 A 
ATOM     15  C   UNL     1     -15.491  -0.243   3.253  0.00  0.00    +0.000 A 
ATOM     16  C   UNL     1     -16.283  -1.080   2.470  0.00  0.00    +0.000 A 
ENDBRANCH  10  11
ENDBRANCH   1  10
TORSDOF 2
ENDMDL
MODEL 9
REMARK VINA RESULT:    -4.525     36.071     36.888
REMARK INTER + INTRA:          -5.229
REMARK INTER:                  -5.131
REMARK INTRA:                  -0.098
REMARK UNBOUND:                -0.175
REMARK  Name = 1550473
REMARK  2 active torsions:
REMARK  status: ('A' for Active; 'I' for Inactive)
REMARK    1  A    between atoms: N_1  and  C_4
REMARK    2  A    between atoms: C_4  and  C_5
REMARK                            x       y       z     vdW  Elec       q    Type
REMARK                         _______ _______ _______ _____ _____    ______ ____
ROOT
ATOM      1  N   UNL     1     -29.258 -18.695   0.460  0.00  0.00    -0.354 N 
ATOM      2  N   UNL     1     -27.014 -19.098   0.868  0.00  0.00    -0.372 N 
ATOM      3  N   UNL     1     -27.925 -19.804  -1.116  0.00  0.00    -0.372 N 
ATOM      4  C   UNL     1     -28.081 -19.198   0.065  0.00  0.00    +0.166 C 
ATOM      5  H   UNL     1     -29.318 -18.274   1.380  0.00  0.00    +0.163 HD
ATOM      6  H   UNL     1     -26.112 -19.465   0.596  0.00  0.00    +0.159 HD
ATOM      7  H   UNL     1     -27.066 -18.636   1.768  0.00  0.00    +0.159 HD
ATOM      8  H   UNL     1     -28.692 -19.917  -1.765  0.00  0.00    +0.159 HD
ATOM      9  H   UNL     1     -27.033 -20.188  -1.401  0.00  0.00    +0.159 HD
ENDROOT
BRANCH   1  10
ATOM     10  C   UNL     1     -30.468 -18.704  -0.361  0.00  0.00    +0.151 C 
BRANCH  10  11
ATOM     11  C   UNL     1     -31.508 -17.833   0.287  0.00  0.00    -0.028 A 
ATOM     12  C   UNL     1     -32.658 -18.401   0.856  0.00  0.00    +0.005 A 
ATOM     13  C   UNL     1     -31.347 -16.440   0.341  0.00  0.00    +0.005 A 
ATOM     14  C   UNL     1     -33.610 -17.595   1.485  0.00  0.00    +0.000 A 
ATOM     15  C   UNL     1     -32.301 -15.639   0.969  0.00  0.00    +0.000 A 
ATOM     16  C   UNL     1     -33.431 -16.217   1.543  0.00  0.00    +0.000 A 
ENDBRANCH  10  11
ENDBRANCH   1  10
TORSDOF 2
ENDMDL
