MODEL 1
REMARK VINA RESULT:    -6.861      0.000      0.000
REMARK INTER + INTRA:          -7.800
REMARK INTER:                  -7.664
REMARK INTRA:                  -0.137
REMARK UNBOUND:                -0.137
REMARK  Name = 1550473
REMARK  2 active torsions:
REMARK  status: ('A' for Active; 'I' for Inactive)
REMARK    1  A    between atoms: N_1  and  C_4
REMARK    2  A    between atoms: C_4  and  C_5
REMARK                            x       y       z     vdW  Elec       q    Type
REMARK                         _______ _______ _______ _____ _____    ______ ____
ROOT
ATOM      1  N   UNL     1     -19.638   0.087  -7.941  0.00  0.00    -0.354 N 
ATOM      2  N   UNL     1     -21.752  -0.856  -7.879  0.00  0.00    -0.372 N 
ATOM      3  N   UNL     1     -20.522  -0.763  -5.944  0.00  0.00    -0.372 N 
ATOM      4  C   UNL     1     -20.623  -0.505  -7.252  0.00  0.00    +0.166 C 
ATOM      5  H   UNL     1     -19.764   0.228  -8.937  0.00  0.00    +0.163 HD
ATOM      6  H   UNL     1     -22.514  -1.301  -7.385  0.00  0.00    +0.159 HD
ATOM      7  H   UNL     1     -21.894  -0.673  -8.865  0.00  0.00    +0.159 HD
ATOM      8  H   UNL     1     -19.693  -0.528  -5.414  0.00  0.00    +0.159 HD
ATOM      9  H   UNL     1     -21.269  -1.219  -5.435  0.00  0.00    +0.159 HD
ENDROOT
BRANCH   1  10
ATOM     10  C   UNL     1     -18.390   0.557  -7.343  0.00  0.00    +0.151 C 
BRANCH  10  11
ATOM     11  C   UNL     1     -17.237   0.121  -8.204  0.00  0.00    -0.028 A 
ATOM     12  C   UNL     1     -15.934   0.091  -7.687  0.00  0.00    +0.005 A 
ATOM     13  C   UNL     1     -17.443  -0.269  -9.536  0.00  0.00    +0.005 A 
ATOM     14  C   UNL     1     -14.867  -0.343  -8.478  0.00  0.00    +0.000 A 
ATOM     15  C   UNL     1     -16.375  -0.701 -10.323  0.00  0.00    +0.000 A 
ATOM     16  C   UNL     1     -15.088  -0.740  -9.793  0.00  0.00    +0.000 A 
ENDBRANCH  10  11
ENDBRANCH   1  10
TORSDOF 2
ENDMDL
MODEL 2
REMARK VINA RESULT:    -6.678      4.693      6.310
REMARK INTER + INTRA:          -7.596
REMARK INTER:                  -7.484
REMARK INTRA:                  -0.111
REMARK UNBOUND:                -0.137
REMARK  Name = 1550473
REMARK  2 active torsions:
REMARK  status: ('A' for Active; 'I' for Inactive)
REMARK    1  A    between atoms: N_1  and  C_4
REMARK    2  A    between atoms: C_4  and  C_5
REMARK                            x       y       z     vdW  Elec       q    Type
REMARK                         _______ _______ _______ _____ _____    ______ ____
ROOT
ATOM      1  N   UNL     1     -12.623  -1.515  -8.248  0.00  0.00    -0.354 N 
ATOM      2  N   UNL     1     -10.845  -2.987  -8.429  0.00  0.00    -0.372 N 
ATOM      3  N   UNL     1     -10.444  -0.736  -8.616  0.00  0.00    -0.372 N 
ATOM      4  C   UNL     1     -11.314  -1.734  -8.430  0.00  0.00    +0.166 C 
ATOM      5  H   UNL     1     -13.235  -2.316  -8.143  0.00  0.00    +0.163 HD
ATOM      6  H   UNL     1      -9.861  -3.183  -8.561  0.00  0.00    +0.159 HD
ATOM      7  H   UNL     1     -11.452  -3.784  -8.278  0.00  0.00    +0.159 HD
ATOM      8  H   UNL     1     -10.736   0.233  -8.633  0.00  0.00    +0.159 HD
ATOM      9  H   UNL     1      -9.458  -0.912  -8.761  0.00  0.00    +0.159 HD
ENDROOT
BRANCH   1  10
ATOM     10  C   UNL     1     -13.228  -0.186  -8.178  0.00  0.00    +0.151 C 
BRANCH  10  11
ATOM     11  C   UNL     1     -14.658  -0.272  -8.636  0.00  0.00    -0.028 A 
ATOM     12  C   UNL     1     -14.961  -0.606  -9.965  0.00  0.00    +0.005 A 
ATOM     13  C   UNL     1     -15.715  -0.027  -7.746  0.00  0.00    +0.005 A 
ATOM     14  C   UNL     1     -16.289  -0.716 -10.384  0.00  0.00    +0.000 A 
ATOM     15  C   UNL     1     -17.039  -0.137  -8.169  0.00  0.00    +0.000 A 
ATOM     16  C   UNL     1     -17.326  -0.484  -9.487  0.00  0.00    +0.000 A 
ENDBRANCH  10  11
ENDBRANCH   1  10
TORSDOF 2
ENDMDL
MODEL 3
REMARK VINA RESULT:    -6.533      3.606      4.709
REMARK INTER + INTRA:          -7.433
REMARK INTER:                  -7.252
REMARK INTRA:                  -0.181
REMARK UNBOUND:                -0.137
REMARK  Name = 1550473
REMARK  2 active torsions:
REMARK  status: ('A' for Active; 'I' for Inactive)
REMARK    1  A    between atoms: N_1  and  C_4
REMARK    2  A    between atoms: C_4  and  C_5
REMARK                            x       y       z     vdW  Elec       q    Type
REMARK                         _______ _______ _______ _____ _____    ______ ____
ROOT
ATOM      1  N   UNL     1     -14.806  -0.208  -5.599  0.00  0.00    -0.354 N 
ATOM      2  N   UNL     1     -14.261  -1.924  -4.142  0.00  0.00    -0.372 N 
ATOM      3  N   UNL     1     -12.788  -1.380  -5.815  0.00  0.00    -0.372 N 
ATOM      4  C   UNL     1     -13.953  -1.159  -5.197  0.00  0.00    +0.166 C 
ATOM      5  H   UNL     1     -15.687  -0.111  -5.106  0.00  0.00    +0.163 HD
ATOM      6  H   UNL     1     -13.636  -2.648  -3.814  0.00  0.00    +0.159 HD
ATOM      7  H   UNL     1     -15.121  -1.795  -3.624  0.00  0.00    +0.159 HD
ATOM      8  H   UNL     1     -12.499  -0.841  -6.621  0.00  0.00    +0.159 HD
ATOM      9  H   UNL     1     -12.154  -2.107  -5.509  0.00  0.00    +0.159 HD
ENDROOT
BRANCH   1  10
ATOM     10  C   UNL     1     -14.542   0.714  -6.703  0.00  0.00    +0.151 C 
BRANCH  10  11
ATOM     11  C   UNL     1     -15.261   0.229  -7.931  0.00  0.00    -0.028 A 
ATOM     12  C   UNL     1     -14.543  -0.269  -9.027  0.00  0.00    +0.005 A 
ATOM     13  C   UNL     1     -16.663   0.259  -8.002  0.00  0.00    +0.005 A 
ATOM     14  C   UNL     1     -15.212  -0.747 -10.156  0.00  0.00    +0.000 A 
ATOM     15  C   UNL     1     -17.327  -0.218  -9.131  0.00  0.00    +0.000 A 
ATOM     16  C   UNL     1     -16.601  -0.724 -10.207  0.00  0.00    +0.000 A 
ENDBRANCH  10  11
ENDBRANCH   1  10
TORSDOF 2
ENDMDL
MODEL 4
REMARK VINA RESULT:    -6.449      4.441      5.729
REMARK INTER + INTRA:          -7.340
REMARK INTER:                  -7.224
REMARK INTRA:                  -0.116
REMARK UNBOUND:                -0.137
REMARK  Name = 1550473
REMARK  2 active torsions:
REMARK  status: ('A' for Active; 'I' for Inactive)
REMARK    1  A    between atoms: N_1  and  C_4
REMARK    2  A    between atoms: C_4  and  C_5
REMARK                            x       y       z     vdW  Elec       q    Type
REMARK                         _______ _______ _______ _____ _____    ______ ____
ROOT
ATOM      1  N   UNL     1     -12.974   0.700  -9.645  0.00  0.00    -0.354 N 
ATOM      2  N   UNL     1     -12.142   2.177 -11.223  0.00  0.00    -0.372 N 
ATOM      3  N   UNL     1     -13.323   3.008  -9.439  0.00  0.00    -0.372 N 
ATOM      4  C   UNL     1     -12.820   1.954 -10.091  0.00  0.00    +0.166 C 
ATOM      5  H   UNL     1     -12.595  -0.058 -10.201  0.00  0.00    +0.163 HD
ATOM      6  H   UNL     1     -12.007   3.113 -11.582  0.00  0.00    +0.159 HD
ATOM      7  H   UNL     1     -11.725   1.422 -11.752  0.00  0.00    +0.159 HD
ATOM      8  H   UNL     1     -13.849   2.907  -8.582  0.00  0.00    +0.159 HD
ATOM      9  H   UNL     1     -13.208   3.951  -9.789  0.00  0.00    +0.159 HD
ENDROOT
BRANCH   1  10
ATOM     10  C   UNL     1     -13.648   0.353  -8.396  0.00  0.00    +0.151 C 
BRANCH  10  11
ATOM     11  C   UNL     1     -15.092   0.049  -8.685  0.00  0.00    -0.028 A 
ATOM     12  C   UNL     1     -16.076   0.273  -7.710  0.00  0.00    +0.005 A 
ATOM     13  C   UNL     1     -15.484  -0.458  -9.933  0.00  0.00    +0.005 A 
ATOM     14  C   UNL     1     -17.421   0.018  -7.988  0.00  0.00    +0.000 A 
ATOM     15  C   UNL     1     -16.829  -0.711 -10.207  0.00  0.00    +0.000 A 
ATOM     16  C   UNL     1     -17.797  -0.470  -9.235  0.00  0.00    +0.000 A 
ENDBRANCH  10  11
ENDBRANCH   1  10
TORSDOF 2
ENDMDL
MODEL 5
REMARK VINA RESULT:    -6.268      4.481      6.366
REMARK INTER + INTRA:          -7.137
REMARK INTER:                  -6.998
REMARK INTRA:                  -0.139
REMARK UNBOUND:                -0.137
REMARK  Name = 1550473
REMARK  2 active torsions:
REMARK  status: ('A' for Active; 'I' for Inactive)
REMARK    1  A    between atoms: N_1  and  C_4
REMARK    2  A    between atoms: C_4  and  C_5
REMARK                            x       y       z     vdW  Elec       q    Type
REMARK                         _______ _______ _______ _____ _____    ______ ____
ROOT
ATOM      1  N   UNL     1     -12.783  -0.769  -9.282  0.00  0.00    -0.354 N 
ATOM      2  N   UNL     1     -10.682  -0.037  -8.640  0.00  0.00    -0.372 N 
ATOM      3  N   UNL     1     -11.379   0.346 -10.792  0.00  0.00    -0.372 N 
ATOM      4  C   UNL     1     -11.628  -0.158  -9.578  0.00  0.00    +0.166 C 
ATOM      5  H   UNL     1     -12.898  -1.156  -8.353  0.00  0.00    +0.163 HD
ATOM      6  H   UNL     1      -9.802   0.422  -8.832  0.00  0.00    +0.159 HD
ATOM      7  H   UNL     1     -10.818  -0.384  -7.698  0.00  0.00    +0.159 HD
ATOM      8  H   UNL     1     -12.050   0.283 -11.546  0.00  0.00    +0.159 HD
ATOM      9  H   UNL     1     -10.500   0.799 -11.007  0.00  0.00    +0.159 HD
ENDROOT
BRANCH   1  10
ATOM     10  C   UNL     1     -13.899  -0.905 -10.217  0.00  0.00    +0.151 C 
BRANCH  10  11
ATOM     11  C   UNL     1     -15.183  -0.601  -9.495  0.00  0.00    -0.028 A 
ATOM     12  C   UNL     1     -16.411  -0.665 -10.170  0.00  0.00    +0.005 A 
ATOM     13  C   UNL     1     -15.179  -0.253  -8.136  0.00  0.00    +0.005 A 
ATOM     14  C   UNL     1     -17.606  -0.412  -9.493  0.00  0.00    +0.000 A 
ATOM     15  C   UNL     1     -16.375   0.000  -7.464  0.00  0.00    +0.000 A 
ATOM     16  C   UNL     1     -17.588  -0.082  -8.142  0.00  0.00    +0.000 A 
ENDBRANCH  10  11
ENDBRANCH   1  10
TORSDOF 2
ENDMDL
MODEL 6
REMARK VINA RESULT:    -5.567      5.527      7.155
REMARK INTER + INTRA:          -6.355
REMARK INTER:                  -6.221
REMARK INTRA:                  -0.134
REMARK UNBOUND:                -0.137
REMARK  Name = 1550473
REMARK  2 active torsions:
REMARK  status: ('A' for Active; 'I' for Inactive)
REMARK    1  A    between atoms: N_1  and  C_4
REMARK    2  A    between atoms: C_4  and  C_5
REMARK                            x       y       z     vdW  Elec       q    Type
REMARK                         _______ _______ _______ _____ _____    ______ ____
ROOT
ATOM      1  N   UNL     1     -11.371  -0.433  -9.066  0.00  0.00    -0.354 N 
ATOM      2  N   UNL     1      -9.863  -2.189  -9.140  0.00  0.00    -0.372 N 
ATOM      3  N   UNL     1      -9.787  -0.593 -10.786  0.00  0.00    -0.372 N 
ATOM      4  C   UNL     1     -10.350  -1.059  -9.666  0.00  0.00    +0.166 C 
ATOM      5  H   UNL     1     -11.773  -0.854  -8.236  0.00  0.00    +0.163 HD
ATOM      6  H   UNL     1      -9.091  -2.682  -9.568  0.00  0.00    +0.159 HD
ATOM      7  H   UNL     1     -10.237  -2.583  -8.284  0.00  0.00    +0.159 HD
ATOM      8  H   UNL     1     -10.112   0.252 -11.237  0.00  0.00    +0.159 HD
ATOM      9  H   UNL     1      -9.021  -1.078 -11.236  0.00  0.00    +0.159 HD
ENDROOT
BRANCH   1  10
ATOM     10  C   UNL     1     -11.939   0.832  -9.528  0.00  0.00    +0.151 C 
BRANCH  10  11
ATOM     11  C   UNL     1     -13.409   0.646  -9.785  0.00  0.00    -0.028 A 
ATOM     12  C   UNL     1     -14.241   1.755  -9.995  0.00  0.00    +0.005 A 
ATOM     13  C   UNL     1     -13.974  -0.638  -9.826  0.00  0.00    +0.005 A 
ATOM     14  C   UNL     1     -15.601   1.580 -10.264  0.00  0.00    +0.000 A 
ATOM     15  C   UNL     1     -15.333  -0.808 -10.094  0.00  0.00    +0.000 A 
ATOM     16  C   UNL     1     -16.145   0.301 -10.316  0.00  0.00    +0.000 A 
ENDBRANCH  10  11
ENDBRANCH   1  10
TORSDOF 2
ENDMDL
MODEL 7
REMARK VINA RESULT:    -5.455      9.975     11.292
REMARK INTER + INTRA:          -6.229
REMARK INTER:                  -6.095
REMARK INTRA:                  -0.135
REMARK UNBOUND:                -0.137
REMARK  Name = 1550473
REMARK  2 active torsions:
REMARK  status: ('A' for Active; 'I' for Inactive)
REMARK    1  A    between atoms: N_1  and  C_4
REMARK    2  A    between atoms: C_4  and  C_5
REMARK                            x       y       z     vdW  Elec       q    Type
REMARK                         _______ _______ _______ _____ _____    ______ ____
ROOT
ATOM      1  N   UNL     1      -7.931  -4.545 -10.964  0.00  0.00    -0.354 N 
ATOM      2  N   UNL     1      -6.185  -6.049 -10.739  0.00  0.00    -0.372 N 
ATOM      3  N   UNL     1      -6.827  -4.814  -8.915  0.00  0.00    -0.372 N 
ATOM      4  C   UNL     1      -6.992  -5.125 -10.205  0.00  0.00    +0.166 C 
ATOM      5  H   UNL     1      -7.986  -4.802 -11.943  0.00  0.00    +0.163 HD
ATOM      6  H   UNL     1      -5.469  -6.507 -10.190  0.00  0.00    +0.159 HD
ATOM      7  H   UNL     1      -6.272  -6.338 -11.706  0.00  0.00    +0.159 HD
ATOM      8  H   UNL     1      -7.400  -4.121  -8.453  0.00  0.00    +0.159 HD
ATOM      9  H   UNL     1      -6.108  -5.253  -8.352  0.00  0.00    +0.159 HD
ENDROOT
BRANCH   1  10
ATOM     10  C   UNL     1      -8.896  -3.566 -10.466  0.00  0.00    +0.151 C 
BRANCH  10  11
ATOM     11  C   UNL     1      -8.809  -2.320 -11.303  0.00  0.00    -0.028 A 
ATOM     12  C   UNL     1      -7.698  -2.093 -12.128  0.00  0.00    +0.005 A 
ATOM     13  C   UNL     1      -9.838  -1.366 -11.281  0.00  0.00    +0.005 A 
ATOM     14  C   UNL     1      -7.630  -0.950 -12.928  0.00  0.00    +0.000 A 
ATOM     15  C   UNL     1      -9.767  -0.226 -12.082  0.00  0.00    +0.000 A 
ATOM     16  C   UNL     1      -8.664  -0.020 -12.907  0.00  0.00    +0.000 A 
ENDBRANCH  10  11
ENDBRANCH   1  10
TORSDOF 2
ENDMDL
MODEL 8
REMARK VINA RESULT:    -5.361     21.964     23.228
REMARK INTER + INTRA:          -6.124
REMARK INTER:                  -6.005
REMARK INTRA:                  -0.119
REMARK UNBOUND:                -0.137
REMARK  Name = 1550473
REMARK  2 active torsions:
REMARK  status: ('A' for Active; 'I' for Inactive)
REMARK    1  A    between atoms: N_1  and  C_4
REMARK    2  A    between atoms: C_4  and  C_5
REMARK                            x       y       z     vdW  Elec       q    Type
REMARK                         _______ _______ _______ _____ _____    ______ ____
ROOT
ATOM      1  N   UNL     1      -7.428   7.813  11.247  0.00  0.00    -0.354 N 
ATOM      2  N   UNL     1      -5.200   7.760  11.877  0.00  0.00    -0.372 N 
ATOM      3  N   UNL     1      -6.654   9.087  13.055  0.00  0.00    -0.372 N 
ATOM      4  C   UNL     1      -6.443   8.222  12.057  0.00  0.00    +0.166 C 
ATOM      5  H   UNL     1      -7.197   7.179  10.490  0.00  0.00    +0.163 HD
ATOM      6  H   UNL     1      -4.437   8.048  12.475  0.00  0.00    +0.159 HD
ATOM      7  H   UNL     1      -4.981   7.091  11.149  0.00  0.00    +0.159 HD
ATOM      8  H   UNL     1      -7.568   9.478  13.240  0.00  0.00    +0.159 HD
ATOM      9  H   UNL     1      -5.901   9.397  13.657  0.00  0.00    +0.159 HD
ENDROOT
BRANCH   1  10
ATOM     10  C   UNL     1      -8.826   8.215  11.391  0.00  0.00    +0.151 C 
BRANCH  10  11
ATOM     11  C   UNL     1      -9.259   8.943  10.149  0.00  0.00    -0.028 A 
ATOM     12  C   UNL     1     -10.613   8.996   9.789  0.00  0.00    +0.005 A 
ATOM     13  C   UNL     1      -8.319   9.588   9.330  0.00  0.00    +0.005 A 
ATOM     14  C   UNL     1     -11.019   9.697   8.652  0.00  0.00    +0.000 A 
ATOM     15  C   UNL     1      -8.728  10.287   8.194  0.00  0.00    +0.000 A 
ATOM     16  C   UNL     1     -10.078  10.344   7.857  0.00  0.00    +0.000 A 
ENDBRANCH  10  11
ENDBRANCH   1  10
TORSDOF 2
ENDMDL
MODEL 9
REMARK VINA RESULT:    -5.334      2.296      3.481
REMARK INTER + INTRA:          -6.094
REMARK INTER:                  -5.994
REMARK INTRA:                  -0.100
REMARK UNBOUND:                -0.137
REMARK  Name = 1550473
REMARK  2 active torsions:
REMARK  status: ('A' for Active; 'I' for Inactive)
REMARK    1  A    between atoms: N_1  and  C_4
REMARK    2  A    between atoms: C_4  and  C_5
REMARK                            x       y       z     vdW  Elec       q    Type
REMARK                         _______ _______ _______ _____ _____    ______ ____
ROOT
ATOM      1  N   UNL     1     -16.490  -0.054  -8.392  0.00  0.00    -0.354 N 
ATOM      2  N   UNL     1     -18.156   0.303  -6.822  0.00  0.00    -0.372 N 
ATOM      3  N   UNL     1     -18.743  -0.431  -8.916  0.00  0.00    -0.372 N 
ATOM      4  C   UNL     1     -17.787  -0.063  -8.056  0.00  0.00    +0.166 C 
ATOM      5  H   UNL     1     -15.817   0.264  -7.704  0.00  0.00    +0.163 HD
ATOM      6  H   UNL     1     -19.126   0.302  -6.539  0.00  0.00    +0.159 HD
ATOM      7  H   UNL     1     -17.477   0.576  -6.122  0.00  0.00    +0.159 HD
ATOM      8  H   UNL     1     -18.532  -0.712  -9.863  0.00  0.00    +0.159 HD
ATOM      9  H   UNL     1     -19.721  -0.427  -8.654  0.00  0.00    +0.159 HD
ENDROOT
BRANCH   1  10
ATOM     10  C   UNL     1     -15.979  -0.485  -9.692  0.00  0.00    +0.151 C 
BRANCH  10  11
ATOM     11  C   UNL     1     -14.576   0.028  -9.863  0.00  0.00    -0.028 A 
ATOM     12  C   UNL     1     -13.487  -0.855  -9.834  0.00  0.00    +0.005 A 
ATOM     13  C   UNL     1     -14.330   1.395 -10.060  0.00  0.00    +0.005 A 
ATOM     14  C   UNL     1     -12.186  -0.383 -10.023  0.00  0.00    +0.000 A 
ATOM     15  C   UNL     1     -13.029   1.863 -10.248  0.00  0.00    +0.000 A 
ATOM     16  C   UNL     1     -11.958   0.973 -10.232  0.00  0.00    +0.000 A 
ENDBRANCH  10  11
ENDBRANCH   1  10
TORSDOF 2
ENDMDL
