MODEL 1
REMARK VINA RESULT:    -5.479      0.000      0.000
REMARK INTER + INTRA:          -6.260
REMARK INTER:                  -6.119
REMARK INTRA:                  -0.140
REMARK UNBOUND:                -0.140
REMARK  Name = 1550473
REMARK  2 active torsions:
REMARK  status: ('A' for Active; 'I' for Inactive)
REMARK    1  A    between atoms: N_1  and  C_4
REMARK    2  A    between atoms: C_4  and  C_5
REMARK                            x       y       z     vdW  Elec       q    Type
REMARK                         _______ _______ _______ _____ _____    ______ ____
ROOT
ATOM      1  N   UNL     1      -8.100 -11.016  -7.807  0.00  0.00    -0.354 N 
ATOM      2  N   UNL     1      -6.045  -9.951  -7.754  0.00  0.00    -0.372 N 
ATOM      3  N   UNL     1      -6.687 -11.213  -5.949  0.00  0.00    -0.372 N 
ATOM      4  C   UNL     1      -6.957 -10.735  -7.167  0.00  0.00    +0.166 C 
ATOM      5  H   UNL     1      -8.259 -10.598  -8.717  0.00  0.00    +0.163 HD
ATOM      6  H   UNL     1      -5.171  -9.724  -7.297  0.00  0.00    +0.159 HD
ATOM      7  H   UNL     1      -6.185  -9.571  -8.682  0.00  0.00    +0.159 HD
ATOM      8  H   UNL     1      -7.337 -11.806  -5.449  0.00  0.00    +0.159 HD
ATOM      9  H   UNL     1      -5.823 -10.988  -5.470  0.00  0.00    +0.159 HD
ENDROOT
BRANCH   1  10
ATOM     10  C   UNL     1      -9.136 -11.903  -7.279  0.00  0.00    +0.151 C 
BRANCH  10  11
ATOM     11  C   UNL     1     -10.454 -11.179  -7.291  0.00  0.00    -0.028 A 
ATOM     12  C   UNL     1     -11.647 -11.869  -7.029  0.00  0.00    +0.005 A 
ATOM     13  C   UNL     1     -10.517  -9.803  -7.556  0.00  0.00    +0.005 A 
ATOM     14  C   UNL     1     -12.869 -11.192  -7.010  0.00  0.00    +0.000 A 
ATOM     15  C   UNL     1     -11.739  -9.131  -7.537  0.00  0.00    +0.000 A 
ATOM     16  C   UNL     1     -12.914  -9.825  -7.261  0.00  0.00    +0.000 A 
ENDBRANCH  10  11
ENDBRANCH   1  10
TORSDOF 2
ENDMDL
MODEL 2
REMARK VINA RESULT:    -5.289      1.482      2.075
REMARK INTER + INTRA:          -6.047
REMARK INTER:                  -5.902
REMARK INTRA:                  -0.145
REMARK UNBOUND:                -0.140
REMARK  Name = 1550473
REMARK  2 active torsions:
REMARK  status: ('A' for Active; 'I' for Inactive)
REMARK    1  A    between atoms: N_1  and  C_4
REMARK    2  A    between atoms: C_4  and  C_5
REMARK                            x       y       z     vdW  Elec       q    Type
REMARK                         _______ _______ _______ _____ _____    ______ ____
ROOT
ATOM      1  N   UNL     1      -7.771  -9.656  -6.548  0.00  0.00    -0.354 N 
ATOM      2  N   UNL     1      -6.525  -8.276  -5.166  0.00  0.00    -0.372 N 
ATOM      3  N   UNL     1      -6.902 -10.446  -4.520  0.00  0.00    -0.372 N 
ATOM      4  C   UNL     1      -7.074  -9.471  -5.418  0.00  0.00    +0.166 C 
ATOM      5  H   UNL     1      -7.891  -8.868  -7.174  0.00  0.00    +0.163 HD
ATOM      6  H   UNL     1      -5.991  -8.108  -4.324  0.00  0.00    +0.159 HD
ATOM      7  H   UNL     1      -6.608  -7.504  -5.815  0.00  0.00    +0.159 HD
ATOM      8  H   UNL     1      -7.295 -11.368  -4.649  0.00  0.00    +0.159 HD
ATOM      9  H   UNL     1      -6.380 -10.293  -3.666  0.00  0.00    +0.159 HD
ENDROOT
BRANCH   1  10
ATOM     10  C   UNL     1      -8.364 -10.932  -6.943  0.00  0.00    +0.151 C 
BRANCH  10  11
ATOM     11  C   UNL     1      -9.832 -10.734  -7.198  0.00  0.00    -0.028 A 
ATOM     12  C   UNL     1     -10.351  -9.449  -7.413  0.00  0.00    +0.005 A 
ATOM     13  C   UNL     1     -10.710 -11.829  -7.231  0.00  0.00    +0.005 A 
ATOM     14  C   UNL     1     -11.710  -9.268  -7.679  0.00  0.00    +0.000 A 
ATOM     15  C   UNL     1     -12.067 -11.643  -7.497  0.00  0.00    +0.000 A 
ATOM     16  C   UNL     1     -12.566 -10.363  -7.723  0.00  0.00    +0.000 A 
ENDBRANCH  10  11
ENDBRANCH   1  10
TORSDOF 2
ENDMDL
MODEL 3
REMARK VINA RESULT:    -5.010      2.038      2.522
REMARK INTER + INTRA:          -5.736
REMARK INTER:                  -5.568
REMARK INTRA:                  -0.168
REMARK UNBOUND:                -0.140
REMARK  Name = 1550473
REMARK  2 active torsions:
REMARK  status: ('A' for Active; 'I' for Inactive)
REMARK    1  A    between atoms: N_1  and  C_4
REMARK    2  A    between atoms: C_4  and  C_5
REMARK                            x       y       z     vdW  Elec       q    Type
REMARK                         _______ _______ _______ _____ _____    ______ ____
ROOT
ATOM      1  N   UNL     1      -9.102  -9.383  -5.406  0.00  0.00    -0.354 N 
ATOM      2  N   UNL     1      -7.298  -9.935  -4.062  0.00  0.00    -0.372 N 
ATOM      3  N   UNL     1      -7.858 -11.331  -5.795  0.00  0.00    -0.372 N 
ATOM      4  C   UNL     1      -8.098 -10.215  -5.098  0.00  0.00    +0.166 C 
ATOM      5  H   UNL     1      -9.250  -8.569  -4.820  0.00  0.00    +0.163 HD
ATOM      6  H   UNL     1      -6.530 -10.542  -3.808  0.00  0.00    +0.159 HD
ATOM      7  H   UNL     1      -7.420  -9.097  -3.506  0.00  0.00    +0.159 HD
ATOM      8  H   UNL     1      -8.428 -11.602  -6.585  0.00  0.00    +0.159 HD
ATOM      9  H   UNL     1      -7.102 -11.957  -5.549  0.00  0.00    +0.159 HD
ENDROOT
BRANCH   1  10
ATOM     10  C   UNL     1      -9.997  -9.569  -6.547  0.00  0.00    +0.151 C 
BRANCH  10  11
ATOM     11  C   UNL     1     -11.389  -9.829  -6.042  0.00  0.00    -0.028 A 
ATOM     12  C   UNL     1     -11.743 -11.094  -5.550  0.00  0.00    +0.005 A 
ATOM     13  C   UNL     1     -12.358  -8.814  -6.048  0.00  0.00    +0.005 A 
ATOM     14  C   UNL     1     -13.027 -11.328  -5.053  0.00  0.00    +0.000 A 
ATOM     15  C   UNL     1     -13.639  -9.052  -5.552  0.00  0.00    +0.000 A 
ATOM     16  C   UNL     1     -13.973 -10.309  -5.052  0.00  0.00    +0.000 A 
ENDBRANCH  10  11
ENDBRANCH   1  10
TORSDOF 2
ENDMDL
MODEL 4
REMARK VINA RESULT:    -4.763     10.042     10.494
REMARK INTER + INTRA:          -5.460
REMARK INTER:                  -5.369
REMARK INTRA:                  -0.091
REMARK UNBOUND:                -0.140
REMARK  Name = 1550473
REMARK  2 active torsions:
REMARK  status: ('A' for Active; 'I' for Inactive)
REMARK    1  A    between atoms: N_1  and  C_4
REMARK    2  A    between atoms: C_4  and  C_5
REMARK                            x       y       z     vdW  Elec       q    Type
REMARK                         _______ _______ _______ _____ _____    ______ ____
ROOT
ATOM      1  N   UNL     1      -7.391 -11.176 -18.273  0.00  0.00    -0.354 N 
ATOM      2  N   UNL     1      -5.667 -12.556 -18.970  0.00  0.00    -0.372 N 
ATOM      3  N   UNL     1      -6.640 -11.141 -20.492  0.00  0.00    -0.372 N 
ATOM      4  C   UNL     1      -6.578 -11.614 -19.243  0.00  0.00    +0.166 C 
ATOM      5  H   UNL     1      -7.315 -11.596 -17.354  0.00  0.00    +0.163 HD
ATOM      6  H   UNL     1      -5.037 -12.904 -19.680  0.00  0.00    +0.159 HD
ATOM      7  H   UNL     1      -5.562 -12.942 -18.039  0.00  0.00    +0.159 HD
ATOM      8  H   UNL     1      -7.309 -10.434 -20.765  0.00  0.00    +0.159 HD
ATOM      9  H   UNL     1      -6.026 -11.485 -21.220  0.00  0.00    +0.159 HD
ENDROOT
BRANCH   1  10
ATOM     10  C   UNL     1      -8.381 -10.115 -18.453  0.00  0.00    +0.151 C 
BRANCH  10  11
ATOM     11  C   UNL     1      -9.058  -9.847 -17.137  0.00  0.00    -0.028 A 
ATOM     12  C   UNL     1     -10.196 -10.576 -16.760  0.00  0.00    +0.005 A 
ATOM     13  C   UNL     1      -8.564  -8.869 -16.261  0.00  0.00    +0.005 A 
ATOM     14  C   UNL     1     -10.807 -10.348 -15.525  0.00  0.00    +0.000 A 
ATOM     15  C   UNL     1      -9.179  -8.644 -15.029  0.00  0.00    +0.000 A 
ATOM     16  C   UNL     1     -10.298  -9.385 -14.660  0.00  0.00    +0.000 A 
ENDBRANCH  10  11
ENDBRANCH   1  10
TORSDOF 2
ENDMDL
MODEL 5
REMARK VINA RESULT:    -4.675     44.129     46.058
REMARK INTER + INTRA:          -5.362
REMARK INTER:                  -5.233
REMARK INTRA:                  -0.130
REMARK UNBOUND:                -0.140
REMARK  Name = 1550473
REMARK  2 active torsions:
REMARK  status: ('A' for Active; 'I' for Inactive)
REMARK    1  A    between atoms: N_1  and  C_4
REMARK    2  A    between atoms: C_4  and  C_5
REMARK                            x       y       z     vdW  Elec       q    Type
REMARK                         _______ _______ _______ _____ _____    ______ ____
ROOT
ATOM      1  N   UNL     1      22.707  20.286   7.639  0.00  0.00    -0.354 N 
ATOM      2  N   UNL     1      24.682  21.478   7.431  0.00  0.00    -0.372 N 
ATOM      3  N   UNL     1      24.080  20.680   9.496  0.00  0.00    -0.372 N 
ATOM      4  C   UNL     1      23.810  20.806   8.193  0.00  0.00    +0.166 C 
ATOM      5  H   UNL     1      22.545  20.443   6.651  0.00  0.00    +0.163 HD
ATOM      6  H   UNL     1      25.525  21.878   7.820  0.00  0.00    +0.159 HD
ATOM      7  H   UNL     1      24.541  21.593   6.435  0.00  0.00    +0.159 HD
ATOM      8  H   UNL     1      23.460  20.190  10.127  0.00  0.00    +0.159 HD
ATOM      9  H   UNL     1      24.913  21.084   9.907  0.00  0.00    +0.159 HD
ENDROOT
BRANCH   1  10
ATOM     10  C   UNL     1      21.721  19.492   8.370  0.00  0.00    +0.151 C 
BRANCH  10  11
ATOM     11  C   UNL     1      21.683  18.104   7.793  0.00  0.00    -0.028 A 
ATOM     12  C   UNL     1      22.867  17.369   7.626  0.00  0.00    +0.005 A 
ATOM     13  C   UNL     1      20.467  17.515   7.416  0.00  0.00    +0.005 A 
ATOM     14  C   UNL     1      22.829  16.068   7.118  0.00  0.00    +0.000 A 
ATOM     15  C   UNL     1      20.433  16.216   6.908  0.00  0.00    +0.000 A 
ATOM     16  C   UNL     1      21.614  15.492   6.762  0.00  0.00    +0.000 A 
ENDBRANCH  10  11
ENDBRANCH   1  10
TORSDOF 2
ENDMDL
MODEL 6
REMARK VINA RESULT:    -4.558     44.747     46.139
REMARK INTER + INTRA:          -5.232
REMARK INTER:                  -5.106
REMARK INTRA:                  -0.126
REMARK UNBOUND:                -0.140
REMARK  Name = 1550473
REMARK  2 active torsions:
REMARK  status: ('A' for Active; 'I' for Inactive)
REMARK    1  A    between atoms: N_1  and  C_4
REMARK    2  A    between atoms: C_4  and  C_5
REMARK                            x       y       z     vdW  Elec       q    Type
REMARK                         _______ _______ _______ _____ _____    ______ ____
ROOT
ATOM      1  N   UNL     1      24.323  16.362   7.759  0.00  0.00    -0.354 N 
ATOM      2  N   UNL     1      25.118  14.297   8.441  0.00  0.00    -0.372 N 
ATOM      3  N   UNL     1      26.352  16.172   8.915  0.00  0.00    -0.372 N 
ATOM      4  C   UNL     1      25.261  15.625   8.368  0.00  0.00    +0.166 C 
ATOM      5  H   UNL     1      23.534  15.885   7.338  0.00  0.00    +0.163 HD
ATOM      6  H   UNL     1      25.808  13.715   8.897  0.00  0.00    +0.159 HD
ATOM      7  H   UNL     1      24.306  13.827   8.059  0.00  0.00    +0.159 HD
ATOM      8  H   UNL     1      26.523  17.168   8.889  0.00  0.00    +0.159 HD
ATOM      9  H   UNL     1      27.060  15.605   9.366  0.00  0.00    +0.159 HD
ENDROOT
BRANCH   1  10
ATOM     10  C   UNL     1      24.357  17.821   7.673  0.00  0.00    +0.151 C 
BRANCH  10  11
ATOM     11  C   UNL     1      22.968  18.358   7.883  0.00  0.00    -0.028 A 
ATOM     12  C   UNL     1      22.774  19.627   8.449  0.00  0.00    +0.005 A 
ATOM     13  C   UNL     1      21.843  17.606   7.514  0.00  0.00    +0.005 A 
ATOM     14  C   UNL     1      21.485  20.139   8.617  0.00  0.00    +0.000 A 
ATOM     15  C   UNL     1      20.557  18.120   7.685  0.00  0.00    +0.000 A 
ATOM     16  C   UNL     1      20.379  19.388   8.233  0.00  0.00    +0.000 A 
ENDBRANCH  10  11
ENDBRANCH   1  10
TORSDOF 2
ENDMDL
MODEL 7
REMARK VINA RESULT:    -4.502     45.511     47.225
REMARK INTER + INTRA:          -5.169
REMARK INTER:                  -5.020
REMARK INTRA:                  -0.149
REMARK UNBOUND:                -0.140
REMARK  Name = 1550473
REMARK  2 active torsions:
REMARK  status: ('A' for Active; 'I' for Inactive)
REMARK    1  A    between atoms: N_1  and  C_4
REMARK    2  A    between atoms: C_4  and  C_5
REMARK                            x       y       z     vdW  Elec       q    Type
REMARK                         _______ _______ _______ _____ _____    ______ ____
ROOT
ATOM      1  N   UNL     1      25.378  18.608   7.061  0.00  0.00    -0.354 N 
ATOM      2  N   UNL     1      27.278  19.901   6.776  0.00  0.00    -0.372 N 
ATOM      3  N   UNL     1      26.901  18.919   8.815  0.00  0.00    -0.372 N 
ATOM      4  C   UNL     1      26.507  19.134   7.555  0.00  0.00    +0.166 C 
ATOM      5  H   UNL     1      25.119  18.834   6.107  0.00  0.00    +0.163 HD
ATOM      6  H   UNL     1      28.137  20.308   7.120  0.00  0.00    +0.159 HD
ATOM      7  H   UNL     1      27.041  20.087   5.809  0.00  0.00    +0.159 HD
ATOM      8  H   UNL     1      26.360  18.354   9.456  0.00  0.00    +0.159 HD
ATOM      9  H   UNL     1      27.752  19.327   9.181  0.00  0.00    +0.159 HD
ENDROOT
BRANCH   1  10
ATOM     10  C   UNL     1      24.495  17.716   7.809  0.00  0.00    +0.151 C 
BRANCH  10  11
ATOM     11  C   UNL     1      23.135  18.348   7.918  0.00  0.00    -0.028 A 
ATOM     12  C   UNL     1      22.985  19.619   8.491  0.00  0.00    +0.005 A 
ATOM     13  C   UNL     1      21.993  17.682   7.446  0.00  0.00    +0.005 A 
ATOM     14  C   UNL     1      21.726  20.220   8.565  0.00  0.00    +0.000 A 
ATOM     15  C   UNL     1      20.738  18.285   7.523  0.00  0.00    +0.000 A 
ATOM     16  C   UNL     1      20.605  19.554   8.080  0.00  0.00    +0.000 A 
ENDBRANCH  10  11
ENDBRANCH   1  10
TORSDOF 2
ENDMDL
MODEL 8
REMARK VINA RESULT:    -4.450     22.559     24.207
REMARK INTER + INTRA:          -5.111
REMARK INTER:                  -4.988
REMARK INTRA:                  -0.123
REMARK UNBOUND:                -0.140
REMARK  Name = 1550473
REMARK  2 active torsions:
REMARK  status: ('A' for Active; 'I' for Inactive)
REMARK    1  A    between atoms: N_1  and  C_4
REMARK    2  A    between atoms: C_4  and  C_5
REMARK                            x       y       z     vdW  Elec       q    Type
REMARK                         _______ _______ _______ _____ _____    ______ ____
ROOT
ATOM      1  N   UNL     1       3.337   4.420   8.447  0.00  0.00    -0.354 N 
ATOM      2  N   UNL     1       4.591   6.126   9.385  0.00  0.00    -0.372 N 
ATOM      3  N   UNL     1       2.345   6.454   9.054  0.00  0.00    -0.372 N 
ATOM      4  C   UNL     1       3.414   5.657   8.955  0.00  0.00    +0.166 C 
ATOM      5  H   UNL     1       4.189   3.877   8.371  0.00  0.00    +0.163 HD
ATOM      6  H   UNL     1       4.680   7.054   9.777  0.00  0.00    +0.159 HD
ATOM      7  H   UNL     1       5.433   5.564   9.351  0.00  0.00    +0.159 HD
ATOM      8  H   UNL     1       1.428   6.162   8.742  0.00  0.00    +0.159 HD
ATOM      9  H   UNL     1       2.415   7.391   9.433  0.00  0.00    +0.159 HD
ENDROOT
BRANCH   1  10
ATOM     10  C   UNL     1       2.093   3.795   8.000  0.00  0.00    +0.151 C 
BRANCH  10  11
ATOM     11  C   UNL     1       2.402   2.437   7.433  0.00  0.00    -0.028 A 
ATOM     12  C   UNL     1       1.376   1.632   6.916  0.00  0.00    +0.005 A 
ATOM     13  C   UNL     1       3.718   1.952   7.404  0.00  0.00    +0.005 A 
ATOM     14  C   UNL     1       1.666   0.383   6.362  0.00  0.00    +0.000 A 
ATOM     15  C   UNL     1       4.004   0.705   6.850  0.00  0.00    +0.000 A 
ATOM     16  C   UNL     1       2.978  -0.079   6.327  0.00  0.00    +0.000 A 
ENDBRANCH  10  11
ENDBRANCH   1  10
TORSDOF 2
ENDMDL
MODEL 9
REMARK VINA RESULT:    -4.406     45.273     46.910
REMARK INTER + INTRA:          -5.061
REMARK INTER:                  -4.882
REMARK INTRA:                  -0.179
REMARK UNBOUND:                -0.140
REMARK  Name = 1550473
REMARK  2 active torsions:
REMARK  status: ('A' for Active; 'I' for Inactive)
REMARK    1  A    between atoms: N_1  and  C_4
REMARK    2  A    between atoms: C_4  and  C_5
REMARK                            x       y       z     vdW  Elec       q    Type
REMARK                         _______ _______ _______ _____ _____    ______ ____
ROOT
ATOM      1  N   UNL     1      25.096  19.819   7.469  0.00  0.00    -0.354 N 
ATOM      2  N   UNL     1      26.869  19.092   8.770  0.00  0.00    -0.372 N 
ATOM      3  N   UNL     1      25.961  17.655   7.228  0.00  0.00    -0.372 N 
ATOM      4  C   UNL     1      25.963  18.857   7.813  0.00  0.00    +0.166 C 
ATOM      5  H   UNL     1      25.129  20.699   7.971  0.00  0.00    +0.163 HD
ATOM      6  H   UNL     1      27.538  18.386   9.048  0.00  0.00    +0.159 HD
ATOM      7  H   UNL     1      26.930  19.987   9.238  0.00  0.00    +0.159 HD
ATOM      8  H   UNL     1      25.299  17.413   6.503  0.00  0.00    +0.159 HD
ATOM      9  H   UNL     1      26.615  16.932   7.501  0.00  0.00    +0.159 HD
ENDROOT
BRANCH   1  10
ATOM     10  C   UNL     1      24.106  19.684   6.402  0.00  0.00    +0.151 C 
BRANCH  10  11
ATOM     11  C   UNL     1      22.777  19.324   7.008  0.00  0.00    -0.028 A 
ATOM     12  C   UNL     1      22.153  18.110   6.685  0.00  0.00    +0.005 A 
ATOM     13  C   UNL     1      22.140  20.190   7.910  0.00  0.00    +0.005 A 
ATOM     14  C   UNL     1      20.934  17.761   7.270  0.00  0.00    +0.000 A 
ATOM     15  C   UNL     1      20.922  19.838   8.492  0.00  0.00    +0.000 A 
ATOM     16  C   UNL     1      20.320  18.623   8.173  0.00  0.00    +0.000 A 
ENDBRANCH  10  11
ENDBRANCH   1  10
TORSDOF 2
ENDMDL
