MODEL 1
REMARK VINA RESULT:    -5.064      0.000      0.000
REMARK INTER + INTRA:          -5.748
REMARK INTER:                  -5.656
REMARK INTRA:                  -0.092
REMARK UNBOUND:                -0.092
REMARK  Name = 1550473
REMARK  2 active torsions:
REMARK  status: ('A' for Active; 'I' for Inactive)
REMARK    1  A    between atoms: N_1  and  C_4
REMARK    2  A    between atoms: C_4  and  C_5
REMARK                            x       y       z     vdW  Elec       q    Type
REMARK                         _______ _______ _______ _____ _____    ______ ____
ROOT
ATOM      1  N   UNL     1      -7.600   9.131  -5.642  0.00  0.00    -0.354 N 
ATOM      2  N   UNL     1      -6.432   8.699  -3.689  0.00  0.00    -0.372 N 
ATOM      3  N   UNL     1      -6.324   7.180  -5.406  0.00  0.00    -0.372 N 
ATOM      4  C   UNL     1      -6.793   8.337  -4.926  0.00  0.00    +0.166 C 
ATOM      5  H   UNL     1      -7.946   9.981  -5.210  0.00  0.00    +0.163 HD
ATOM      6  H   UNL     1      -5.821   8.122  -3.127  0.00  0.00    +0.159 HD
ATOM      7  H   UNL     1      -6.742   9.571  -3.277  0.00  0.00    +0.159 HD
ATOM      8  H   UNL     1      -6.563   6.847  -6.330  0.00  0.00    +0.159 HD
ATOM      9  H   UNL     1      -5.721   6.583  -4.854  0.00  0.00    +0.159 HD
ENDROOT
BRANCH   1  10
ATOM     10  C   UNL     1      -8.009   8.856  -7.018  0.00  0.00    +0.151 C 
BRANCH  10  11
ATOM     11  C   UNL     1      -8.989   9.908  -7.460  0.00  0.00    -0.028 A 
ATOM     12  C   UNL     1      -8.544  11.187  -7.823  0.00  0.00    +0.005 A 
ATOM     13  C   UNL     1     -10.363   9.629  -7.523  0.00  0.00    +0.005 A 
ATOM     14  C   UNL     1      -9.450  12.155  -8.262  0.00  0.00    +0.000 A 
ATOM     15  C   UNL     1     -11.264  10.599  -7.961  0.00  0.00    +0.000 A 
ATOM     16  C   UNL     1     -10.807  11.861  -8.333  0.00  0.00    +0.000 A 
ENDBRANCH  10  11
ENDBRANCH   1  10
TORSDOF 2
ENDMDL
MODEL 2
REMARK VINA RESULT:    -4.573     19.700     21.587
REMARK INTER + INTRA:          -5.200
REMARK INTER:                  -5.075
REMARK INTRA:                  -0.125
REMARK UNBOUND:                -0.092
REMARK  Name = 1550473
REMARK  2 active torsions:
REMARK  status: ('A' for Active; 'I' for Inactive)
REMARK    1  A    between atoms: N_1  and  C_4
REMARK    2  A    between atoms: C_4  and  C_5
REMARK                            x       y       z     vdW  Elec       q    Type
REMARK                         _______ _______ _______ _____ _____    ______ ____
ROOT
ATOM      1  N   UNL     1       9.677   3.554 -11.255  0.00  0.00    -0.354 N 
ATOM      2  N   UNL     1       7.801   4.844 -10.832  0.00  0.00    -0.372 N 
ATOM      3  N   UNL     1       7.571   2.565 -10.973  0.00  0.00    -0.372 N 
ATOM      4  C   UNL     1       8.361   3.644 -11.023  0.00  0.00    +0.166 C 
ATOM      5  H   UNL     1      10.216   4.411 -11.310  0.00  0.00    +0.163 HD
ATOM      6  H   UNL     1       6.811   4.943 -10.652  0.00  0.00    +0.159 HD
ATOM      7  H   UNL     1       8.349   5.696 -10.842  0.00  0.00    +0.159 HD
ATOM      8  H   UNL     1       7.931   1.631 -11.114  0.00  0.00    +0.159 HD
ATOM      9  H   UNL     1       6.576   2.645 -10.805  0.00  0.00    +0.159 HD
ENDROOT
BRANCH   1  10
ATOM     10  C   UNL     1      10.394   2.291 -11.422  0.00  0.00    +0.151 C 
BRANCH  10  11
ATOM     11  C   UNL     1      11.256   2.374 -12.652  0.00  0.00    -0.028 A 
ATOM     12  C   UNL     1      11.267   1.328 -13.585  0.00  0.00    +0.005 A 
ATOM     13  C   UNL     1      12.059   3.500 -12.892  0.00  0.00    +0.005 A 
ATOM     14  C   UNL     1      12.044   1.418 -14.743  0.00  0.00    +0.000 A 
ATOM     15  C   UNL     1      12.834   3.586 -14.048  0.00  0.00    +0.000 A 
ATOM     16  C   UNL     1      12.824   2.546 -14.974  0.00  0.00    +0.000 A 
ENDBRANCH  10  11
ENDBRANCH   1  10
TORSDOF 2
ENDMDL
MODEL 3
REMARK VINA RESULT:    -4.411      1.478      2.598
REMARK INTER + INTRA:          -5.019
REMARK INTER:                  -4.933
REMARK INTRA:                  -0.086
REMARK UNBOUND:                -0.092
REMARK  Name = 1550473
REMARK  2 active torsions:
REMARK  status: ('A' for Active; 'I' for Inactive)
REMARK    1  A    between atoms: N_1  and  C_4
REMARK    2  A    between atoms: C_4  and  C_5
REMARK                            x       y       z     vdW  Elec       q    Type
REMARK                         _______ _______ _______ _____ _____    ______ ____
ROOT
ATOM      1  N   UNL     1      -9.396   9.725  -6.438  0.00  0.00    -0.354 N 
ATOM      2  N   UNL     1      -7.199   9.541  -5.727  0.00  0.00    -0.372 N 
ATOM      3  N   UNL     1      -7.842   8.443  -7.637  0.00  0.00    -0.372 N 
ATOM      4  C   UNL     1      -8.160   9.236  -6.608  0.00  0.00    +0.166 C 
ATOM      5  H   UNL     1      -9.580  10.295  -5.621  0.00  0.00    +0.163 HD
ATOM      6  H   UNL     1      -6.257   9.190  -5.831  0.00  0.00    +0.159 HD
ATOM      7  H   UNL     1      -7.375  10.149  -4.936  0.00  0.00    +0.159 HD
ATOM      8  H   UNL     1      -8.523   8.170  -8.333  0.00  0.00    +0.159 HD
ATOM      9  H   UNL     1      -6.907   8.072  -7.751  0.00  0.00    +0.159 HD
ENDROOT
BRANCH   1  10
ATOM     10  C   UNL     1     -10.500   9.496  -7.369  0.00  0.00    +0.151 C 
BRANCH  10  11
ATOM     11  C   UNL     1     -10.820  10.784  -8.077  0.00  0.00    -0.028 A 
ATOM     12  C   UNL     1     -11.989  10.904  -8.842  0.00  0.00    +0.005 A 
ATOM     13  C   UNL     1      -9.962  11.890  -7.980  0.00  0.00    +0.005 A 
ATOM     14  C   UNL     1     -12.302  12.110  -9.475  0.00  0.00    +0.000 A 
ATOM     15  C   UNL     1     -10.277  13.091  -8.615  0.00  0.00    +0.000 A 
ATOM     16  C   UNL     1     -11.448  13.202  -9.360  0.00  0.00    +0.000 A 
ENDBRANCH  10  11
ENDBRANCH   1  10
TORSDOF 2
ENDMDL
MODEL 4
REMARK VINA RESULT:    -4.355     29.346     32.116
REMARK INTER + INTRA:          -4.956
REMARK INTER:                  -4.812
REMARK INTRA:                  -0.145
REMARK UNBOUND:                -0.092
REMARK  Name = 1550473
REMARK  2 active torsions:
REMARK  status: ('A' for Active; 'I' for Inactive)
REMARK    1  A    between atoms: N_1  and  C_4
REMARK    2  A    between atoms: C_4  and  C_5
REMARK                            x       y       z     vdW  Elec       q    Type
REMARK                         _______ _______ _______ _____ _____    ______ ____
ROOT
ATOM      1  N   UNL     1      -0.039  -0.356  20.272  0.00  0.00    -0.354 N 
ATOM      2  N   UNL     1       0.678  -0.443  18.071  0.00  0.00    -0.372 N 
ATOM      3  N   UNL     1       0.416  -2.406  19.231  0.00  0.00    -0.372 N 
ATOM      4  C   UNL     1       0.347  -1.071  19.207  0.00  0.00    +0.166 C 
ATOM      5  H   UNL     1      -0.041   0.655  20.198  0.00  0.00    +0.163 HD
ATOM      6  H   UNL     1       0.970  -0.956  17.250  0.00  0.00    +0.159 HD
ATOM      7  H   UNL     1       0.631   0.565  17.986  0.00  0.00    +0.159 HD
ATOM      8  H   UNL     1       0.185  -2.939  20.059  0.00  0.00    +0.159 HD
ATOM      9  H   UNL     1       0.717  -2.936  18.423  0.00  0.00    +0.159 HD
ENDROOT
BRANCH   1  10
ATOM     10  C   UNL     1      -0.472  -0.945  21.538  0.00  0.00    +0.151 C 
BRANCH  10  11
ATOM     11  C   UNL     1       0.487  -0.536  22.623  0.00  0.00    -0.028 A 
ATOM     12  C   UNL     1       0.852   0.809  22.780  0.00  0.00    +0.005 A 
ATOM     13  C   UNL     1       1.028  -1.488  23.500  0.00  0.00    +0.005 A 
ATOM     14  C   UNL     1       1.719   1.194  23.806  0.00  0.00    +0.000 A 
ATOM     15  C   UNL     1       1.894  -1.100  24.523  0.00  0.00    +0.000 A 
ATOM     16  C   UNL     1       2.237   0.241  24.677  0.00  0.00    +0.000 A 
ENDBRANCH  10  11
ENDBRANCH   1  10
TORSDOF 2
ENDMDL
MODEL 5
REMARK VINA RESULT:    -4.328      9.347     10.900
REMARK INTER + INTRA:          -4.926
REMARK INTER:                  -4.805
REMARK INTRA:                  -0.120
REMARK UNBOUND:                -0.092
REMARK  Name = 1550473
REMARK  2 active torsions:
REMARK  status: ('A' for Active; 'I' for Inactive)
REMARK    1  A    between atoms: N_1  and  C_4
REMARK    2  A    between atoms: C_4  and  C_5
REMARK                            x       y       z     vdW  Elec       q    Type
REMARK                         _______ _______ _______ _____ _____    ______ ____
ROOT
ATOM      1  N   UNL     1      -8.508  14.230 -14.836  0.00  0.00    -0.354 N 
ATOM      2  N   UNL     1     -10.768  14.663 -15.098  0.00  0.00    -0.372 N 
ATOM      3  N   UNL     1      -9.741  15.274 -13.139  0.00  0.00    -0.372 N 
ATOM      4  C   UNL     1      -9.657  14.720 -14.353  0.00  0.00    +0.166 C 
ATOM      5  H   UNL     1      -8.517  13.795 -15.752  0.00  0.00    +0.163 HD
ATOM      6  H   UNL     1     -11.649  15.028 -14.761  0.00  0.00    +0.159 HD
ATOM      7  H   UNL     1     -10.764  14.270 -16.031  0.00  0.00    +0.159 HD
ATOM      8  H   UNL     1      -8.940  15.342 -12.525  0.00  0.00    +0.159 HD
ATOM      9  H   UNL     1     -10.616  15.634 -12.780  0.00  0.00    +0.159 HD
ENDROOT
BRANCH   1  10
ATOM     10  C   UNL     1      -7.231  14.291 -14.128  0.00  0.00    +0.151 C 
BRANCH  10  11
ATOM     11  C   UNL     1      -6.175  14.811 -15.064  0.00  0.00    -0.028 A 
ATOM     12  C   UNL     1      -5.352  15.881 -14.685  0.00  0.00    +0.005 A 
ATOM     13  C   UNL     1      -5.988  14.233 -16.329  0.00  0.00    +0.005 A 
ATOM     14  C   UNL     1      -4.350  16.345 -15.542  0.00  0.00    +0.000 A 
ATOM     15  C   UNL     1      -4.988  14.699 -17.182  0.00  0.00    +0.000 A 
ATOM     16  C   UNL     1      -4.168  15.753 -16.787  0.00  0.00    +0.000 A 
ENDBRANCH  10  11
ENDBRANCH   1  10
TORSDOF 2
ENDMDL
MODEL 6
REMARK VINA RESULT:    -4.272      2.331      3.290
REMARK INTER + INTRA:          -4.864
REMARK INTER:                  -4.723
REMARK INTRA:                  -0.141
REMARK UNBOUND:                -0.092
REMARK  Name = 1550473
REMARK  2 active torsions:
REMARK  status: ('A' for Active; 'I' for Inactive)
REMARK    1  A    between atoms: N_1  and  C_4
REMARK    2  A    between atoms: C_4  and  C_5
REMARK                            x       y       z     vdW  Elec       q    Type
REMARK                         _______ _______ _______ _____ _____    ______ ____
ROOT
ATOM      1  N   UNL     1      -9.160   9.174  -7.142  0.00  0.00    -0.354 N 
ATOM      2  N   UNL     1      -7.504   7.927  -8.174  0.00  0.00    -0.372 N 
ATOM      3  N   UNL     1      -7.523  10.203  -8.465  0.00  0.00    -0.372 N 
ATOM      4  C   UNL     1      -8.073   9.112  -7.921  0.00  0.00    +0.166 C 
ATOM      5  H   UNL     1      -9.547   8.308  -6.784  0.00  0.00    +0.163 HD
ATOM      6  H   UNL     1      -6.681   7.849  -8.756  0.00  0.00    +0.159 HD
ATOM      7  H   UNL     1      -7.865   7.067  -7.778  0.00  0.00    +0.159 HD
ATOM      8  H   UNL     1      -7.908  11.126  -8.318  0.00  0.00    +0.159 HD
ATOM      9  H   UNL     1      -6.706  10.144  -9.060  0.00  0.00    +0.159 HD
ENDROOT
BRANCH   1  10
ATOM     10  C   UNL     1      -9.824  10.420  -6.761  0.00  0.00    +0.151 C 
BRANCH  10  11
ATOM     11  C   UNL     1     -11.266  10.356  -7.181  0.00  0.00    -0.028 A 
ATOM     12  C   UNL     1     -11.677  10.911  -8.402  0.00  0.00    +0.005 A 
ATOM     13  C   UNL     1     -12.226   9.738  -6.366  0.00  0.00    +0.005 A 
ATOM     14  C   UNL     1     -13.012  10.826  -8.807  0.00  0.00    +0.000 A 
ATOM     15  C   UNL     1     -13.558   9.655  -6.773  0.00  0.00    +0.000 A 
ATOM     16  C   UNL     1     -13.950  10.197  -7.994  0.00  0.00    +0.000 A 
ENDBRANCH  10  11
ENDBRANCH   1  10
TORSDOF 2
ENDMDL
MODEL 7
REMARK VINA RESULT:    -4.239     31.739     33.583
REMARK INTER + INTRA:          -4.826
REMARK INTER:                  -4.698
REMARK INTRA:                  -0.128
REMARK UNBOUND:                -0.092
REMARK  Name = 1550473
REMARK  2 active torsions:
REMARK  status: ('A' for Active; 'I' for Inactive)
REMARK    1  A    between atoms: N_1  and  C_4
REMARK    2  A    between atoms: C_4  and  C_5
REMARK                            x       y       z     vdW  Elec       q    Type
REMARK                         _______ _______ _______ _____ _____    ______ ____
ROOT
ATOM      1  N   UNL     1      -0.114  -0.723  23.225  0.00  0.00    -0.354 N 
ATOM      2  N   UNL     1       1.326   0.989  22.626  0.00  0.00    -0.372 N 
ATOM      3  N   UNL     1       0.247  -0.181  20.974  0.00  0.00    -0.372 N 
ATOM      4  C   UNL     1       0.476   0.016  22.276  0.00  0.00    +0.166 C 
ATOM      5  H   UNL     1       0.125  -0.543  24.193  0.00  0.00    +0.163 HD
ATOM      6  H   UNL     1       1.784   1.566  21.933  0.00  0.00    +0.159 HD
ATOM      7  H   UNL     1       1.528   1.197  23.597  0.00  0.00    +0.159 HD
ATOM      8  H   UNL     1      -0.379  -0.903  20.644  0.00  0.00    +0.159 HD
ATOM      9  H   UNL     1       0.705   0.378  20.264  0.00  0.00    +0.159 HD
ENDROOT
BRANCH   1  10
ATOM     10  C   UNL     1      -1.096  -1.771  22.952  0.00  0.00    +0.151 C 
BRANCH  10  11
ATOM     11  C   UNL     1      -2.015  -1.903  24.135  0.00  0.00    -0.028 A 
ATOM     12  C   UNL     1      -1.729  -1.239  25.337  0.00  0.00    +0.005 A 
ATOM     13  C   UNL     1      -3.178  -2.684  24.058  0.00  0.00    +0.005 A 
ATOM     14  C   UNL     1      -2.598  -1.337  26.426  0.00  0.00    +0.000 A 
ATOM     15  C   UNL     1      -4.043  -2.780  25.147  0.00  0.00    +0.000 A 
ATOM     16  C   UNL     1      -3.754  -2.104  26.330  0.00  0.00    +0.000 A 
ENDBRANCH  10  11
ENDBRANCH   1  10
TORSDOF 2
ENDMDL
MODEL 8
REMARK VINA RESULT:    -4.229     29.223     31.795
REMARK INTER + INTRA:          -4.815
REMARK INTER:                  -4.674
REMARK INTRA:                  -0.141
REMARK UNBOUND:                -0.092
REMARK  Name = 1550473
REMARK  2 active torsions:
REMARK  status: ('A' for Active; 'I' for Inactive)
REMARK    1  A    between atoms: N_1  and  C_4
REMARK    2  A    between atoms: C_4  and  C_5
REMARK                            x       y       z     vdW  Elec       q    Type
REMARK                         _______ _______ _______ _____ _____    ______ ____
ROOT
ATOM      1  N   UNL     1       0.440  -1.988  20.012  0.00  0.00    -0.354 N 
ATOM      2  N   UNL     1      -0.052  -2.533  17.815  0.00  0.00    -0.372 N 
ATOM      3  N   UNL     1       0.541  -0.374  18.316  0.00  0.00    -0.372 N 
ATOM      4  C   UNL     1       0.313  -1.625  18.728  0.00  0.00    +0.166 C 
ATOM      5  H   UNL     1       0.224  -2.945  20.265  0.00  0.00    +0.163 HD
ATOM      6  H   UNL     1      -0.152  -2.290  16.839  0.00  0.00    +0.159 HD
ATOM      7  H   UNL     1      -0.222  -3.500  18.064  0.00  0.00    +0.159 HD
ATOM      8  H   UNL     1       0.813   0.360  18.956  0.00  0.00    +0.159 HD
ATOM      9  H   UNL     1       0.434  -0.108  17.345  0.00  0.00    +0.159 HD
ENDROOT
BRANCH   1  10
ATOM     10  C   UNL     1       0.885  -1.089  21.075  0.00  0.00    +0.151 C 
BRANCH  10  11
ATOM     11  C   UNL     1      -0.021  -1.251  22.265  0.00  0.00    -0.028 A 
ATOM     12  C   UNL     1      -1.240  -1.933  22.145  0.00  0.00    +0.005 A 
ATOM     13  C   UNL     1       0.338  -0.729  23.518  0.00  0.00    +0.005 A 
ATOM     14  C   UNL     1      -2.067  -2.110  23.256  0.00  0.00    +0.000 A 
ATOM     15  C   UNL     1      -0.491  -0.907  24.625  0.00  0.00    +0.000 A 
ATOM     16  C   UNL     1      -1.692  -1.600  24.495  0.00  0.00    +0.000 A 
ENDBRANCH  10  11
ENDBRANCH   1  10
TORSDOF 2
ENDMDL
MODEL 9
REMARK VINA RESULT:    -4.145      4.523      6.335
REMARK INTER + INTRA:          -4.722
REMARK INTER:                  -4.582
REMARK INTRA:                  -0.140
REMARK UNBOUND:                -0.092
REMARK  Name = 1550473
REMARK  2 active torsions:
REMARK  status: ('A' for Active; 'I' for Inactive)
REMARK    1  A    between atoms: N_1  and  C_4
REMARK    2  A    between atoms: C_4  and  C_5
REMARK                            x       y       z     vdW  Elec       q    Type
REMARK                         _______ _______ _______ _____ _____    ______ ____
ROOT
ATOM      1  N   UNL     1     -13.113  11.111  -9.399  0.00  0.00    -0.354 N 
ATOM      2  N   UNL     1     -15.353  10.525  -9.379  0.00  0.00    -0.372 N 
ATOM      3  N   UNL     1     -14.772  12.699  -8.934  0.00  0.00    -0.372 N 
ATOM      4  C   UNL     1     -14.398  11.451  -9.237  0.00  0.00    +0.166 C 
ATOM      5  H   UNL     1     -12.893  10.142  -9.598  0.00  0.00    +0.163 HD
ATOM      6  H   UNL     1     -16.332  10.752  -9.266  0.00  0.00    +0.159 HD
ATOM      7  H   UNL     1     -15.134   9.566  -9.623  0.00  0.00    +0.159 HD
ATOM      8  H   UNL     1     -14.100  13.444  -8.808  0.00  0.00    +0.159 HD
ATOM      9  H   UNL     1     -15.746  12.944  -8.806  0.00  0.00    +0.159 HD
ENDROOT
BRANCH   1  10
ATOM     10  C   UNL     1     -12.000  12.056  -9.319  0.00  0.00    +0.151 C 
BRANCH  10  11
ATOM     11  C   UNL     1     -10.885  11.435  -8.524  0.00  0.00    -0.028 A 
ATOM     12  C   UNL     1     -11.032  10.155  -7.970  0.00  0.00    +0.005 A 
ATOM     13  C   UNL     1      -9.676  12.120  -8.325  0.00  0.00    +0.005 A 
ATOM     14  C   UNL     1      -9.986   9.566  -7.256  0.00  0.00    +0.000 A 
ATOM     15  C   UNL     1      -8.634  11.529  -7.611  0.00  0.00    +0.000 A 
ATOM     16  C   UNL     1      -8.788  10.251  -7.079  0.00  0.00    +0.000 A 
ENDBRANCH  10  11
ENDBRANCH   1  10
TORSDOF 2
ENDMDL
