MODEL 1
REMARK VINA RESULT:    -4.688      0.000      0.000
REMARK INTER + INTRA:          -5.415
REMARK INTER:                  -5.236
REMARK INTRA:                  -0.179
REMARK UNBOUND:                -0.179
REMARK  Name = 1550473
REMARK  2 active torsions:
REMARK  status: ('A' for Active; 'I' for Inactive)
REMARK    1  A    between atoms: N_1  and  C_4
REMARK    2  A    between atoms: C_4  and  C_5
REMARK                            x       y       z     vdW  Elec       q    Type
REMARK                         _______ _______ _______ _____ _____    ______ ____
ROOT
ATOM      1  N   UNL     1      12.102   0.237  17.871  0.00  0.00    -0.354 N 
ATOM      2  N   UNL     1      12.400   2.306  16.873  0.00  0.00    -0.372 N 
ATOM      3  N   UNL     1      10.538   1.956  18.168  0.00  0.00    -0.372 N 
ATOM      4  C   UNL     1      11.675   1.487  17.645  0.00  0.00    +0.166 C 
ATOM      5  H   UNL     1      12.958  -0.068  17.421  0.00  0.00    +0.163 HD
ATOM      6  H   UNL     1      12.105   3.256  16.688  0.00  0.00    +0.159 HD
ATOM      7  H   UNL     1      13.278   2.013  16.462  0.00  0.00    +0.159 HD
ATOM      8  H   UNL     1       9.942   1.387  18.754  0.00  0.00    +0.159 HD
ATOM      9  H   UNL     1      10.220   2.900  17.984  0.00  0.00    +0.159 HD
ENDROOT
BRANCH   1  10
ATOM     10  C   UNL     1      11.416  -0.717  18.739  0.00  0.00    +0.151 C 
BRANCH  10  11
ATOM     11  C   UNL     1      10.602  -1.655  17.892  0.00  0.00    -0.028 A 
ATOM     12  C   UNL     1       9.214  -1.754  18.070  0.00  0.00    +0.005 A 
ATOM     13  C   UNL     1      11.212  -2.444  16.904  0.00  0.00    +0.005 A 
ATOM     14  C   UNL     1       8.453  -2.603  17.262  0.00  0.00    +0.000 A 
ATOM     15  C   UNL     1      10.449  -3.292  16.101  0.00  0.00    +0.000 A 
ATOM     16  C   UNL     1       9.070  -3.369  16.278  0.00  0.00    +0.000 A 
ENDBRANCH  10  11
ENDBRANCH   1  10
TORSDOF 2
ENDMDL
MODEL 2
REMARK VINA RESULT:    -4.508     28.294     29.466
REMARK INTER + INTRA:          -5.215
REMARK INTER:                  -5.055
REMARK INTRA:                  -0.160
REMARK UNBOUND:                -0.179
REMARK  Name = 1550473
REMARK  2 active torsions:
REMARK  status: ('A' for Active; 'I' for Inactive)
REMARK    1  A    between atoms: N_1  and  C_4
REMARK    2  A    between atoms: C_4  and  C_5
REMARK                            x       y       z     vdW  Elec       q    Type
REMARK                         _______ _______ _______ _____ _____    ______ ____
ROOT
ATOM      1  N   UNL     1      -7.033   0.629  -5.533  0.00  0.00    -0.354 N 
ATOM      2  N   UNL     1      -7.847   0.127  -3.423  0.00  0.00    -0.372 N 
ATOM      3  N   UNL     1      -5.596   0.491  -3.686  0.00  0.00    -0.372 N 
ATOM      4  C   UNL     1      -6.817   0.419  -4.227  0.00  0.00    +0.166 C 
ATOM      5  H   UNL     1      -7.977   0.530  -5.887  0.00  0.00    +0.163 HD
ATOM      6  H   UNL     1      -7.715  -0.034  -2.434  0.00  0.00    +0.159 HD
ATOM      7  H   UNL     1      -8.796   0.074  -3.772  0.00  0.00    +0.159 HD
ATOM      8  H   UNL     1      -4.777   0.702  -4.240  0.00  0.00    +0.159 HD
ATOM      9  H   UNL     1      -5.443   0.322  -2.700  0.00  0.00    +0.159 HD
ENDROOT
BRANCH   1  10
ATOM     10  C   UNL     1      -5.988   1.006  -6.484  0.00  0.00    +0.151 C 
BRANCH  10  11
ATOM     11  C   UNL     1      -5.740  -0.143  -7.422  0.00  0.00    -0.028 A 
ATOM     12  C   UNL     1      -4.471  -0.735  -7.502  0.00  0.00    +0.005 A 
ATOM     13  C   UNL     1      -6.772  -0.647  -8.229  0.00  0.00    +0.005 A 
ATOM     14  C   UNL     1      -4.248  -1.821  -8.352  0.00  0.00    +0.000 A 
ATOM     15  C   UNL     1      -6.544  -1.732  -9.076  0.00  0.00    +0.000 A 
ATOM     16  C   UNL     1      -5.283  -2.320  -9.135  0.00  0.00    +0.000 A 
ENDBRANCH  10  11
ENDBRANCH   1  10
TORSDOF 2
ENDMDL
MODEL 3
REMARK VINA RESULT:    -4.449     31.633     32.813
REMARK INTER + INTRA:          -5.148
REMARK INTER:                  -5.030
REMARK INTRA:                  -0.118
REMARK UNBOUND:                -0.179
REMARK  Name = 1550473
REMARK  2 active torsions:
REMARK  status: ('A' for Active; 'I' for Inactive)
REMARK    1  A    between atoms: N_1  and  C_4
REMARK    2  A    between atoms: C_4  and  C_5
REMARK                            x       y       z     vdW  Elec       q    Type
REMARK                         _______ _______ _______ _____ _____    ______ ____
ROOT
ATOM      1  N   UNL     1      -7.244  -3.664 -11.164  0.00  0.00    -0.354 N 
ATOM      2  N   UNL     1      -7.516  -4.831 -13.146  0.00  0.00    -0.372 N 
ATOM      3  N   UNL     1      -9.322  -3.740 -12.245  0.00  0.00    -0.372 N 
ATOM      4  C   UNL     1      -8.029  -4.070 -12.172  0.00  0.00    +0.166 C 
ATOM      5  H   UNL     1      -6.279  -3.973 -11.151  0.00  0.00    +0.163 HD
ATOM      6  H   UNL     1      -8.083  -5.150 -13.920  0.00  0.00    +0.159 HD
ATOM      7  H   UNL     1      -6.540  -5.101 -13.154  0.00  0.00    +0.159 HD
ATOM      8  H   UNL     1      -9.771  -3.172 -11.538  0.00  0.00    +0.159 HD
ATOM      9  H   UNL     1      -9.909  -4.059 -13.006  0.00  0.00    +0.159 HD
ENDROOT
BRANCH   1  10
ATOM     10  C   UNL     1      -7.690  -2.787 -10.083  0.00  0.00    +0.151 C 
BRANCH  10  11
ATOM     11  C   UNL     1      -6.487  -2.228  -9.376  0.00  0.00    -0.028 A 
ATOM     12  C   UNL     1      -6.580  -1.030  -8.652  0.00  0.00    +0.005 A 
ATOM     13  C   UNL     1      -5.252  -2.893  -9.421  0.00  0.00    +0.005 A 
ATOM     14  C   UNL     1      -5.469  -0.525  -7.971  0.00  0.00    +0.000 A 
ATOM     15  C   UNL     1      -4.146  -2.385  -8.740  0.00  0.00    +0.000 A 
ATOM     16  C   UNL     1      -4.256  -1.203  -8.013  0.00  0.00    +0.000 A 
ENDBRANCH  10  11
ENDBRANCH   1  10
TORSDOF 2
ENDMDL
MODEL 4
REMARK VINA RESULT:    -4.438     31.674     32.883
REMARK INTER + INTRA:          -5.136
REMARK INTER:                  -5.023
REMARK INTRA:                  -0.114
REMARK UNBOUND:                -0.179
REMARK  Name = 1550473
REMARK  2 active torsions:
REMARK  status: ('A' for Active; 'I' for Inactive)
REMARK    1  A    between atoms: N_1  and  C_4
REMARK    2  A    between atoms: C_4  and  C_5
REMARK                            x       y       z     vdW  Elec       q    Type
REMARK                         _______ _______ _______ _____ _____    ______ ____
ROOT
ATOM      1  N   UNL     1      -8.110  -2.228 -10.988  0.00  0.00    -0.354 N 
ATOM      2  N   UNL     1      -9.782  -1.608 -12.465  0.00  0.00    -0.372 N 
ATOM      3  N   UNL     1      -9.172  -3.817 -12.344  0.00  0.00    -0.372 N 
ATOM      4  C   UNL     1      -9.010  -2.558 -11.923  0.00  0.00    +0.166 C 
ATOM      5  H   UNL     1      -8.015  -1.251 -10.734  0.00  0.00    +0.163 HD
ATOM      6  H   UNL     1     -10.473  -1.828 -13.170  0.00  0.00    +0.159 HD
ATOM      7  H   UNL     1      -9.718  -0.640 -12.176  0.00  0.00    +0.159 HD
ATOM      8  H   UNL     1      -8.616  -4.579 -11.979  0.00  0.00    +0.159 HD
ATOM      9  H   UNL     1      -9.850  -4.054 -13.057  0.00  0.00    +0.159 HD
ENDROOT
BRANCH   1  10
ATOM     10  C   UNL     1      -7.257  -3.194 -10.297  0.00  0.00    +0.151 C 
BRANCH  10  11
ATOM     11  C   UNL     1      -6.253  -2.451  -9.459  0.00  0.00    -0.028 A 
ATOM     12  C   UNL     1      -4.959  -2.962  -9.280  0.00  0.00    +0.005 A 
ATOM     13  C   UNL     1      -6.587  -1.233  -8.847  0.00  0.00    +0.005 A 
ATOM     14  C   UNL     1      -4.016  -2.258  -8.527  0.00  0.00    +0.000 A 
ATOM     15  C   UNL     1      -5.643  -0.534  -8.096  0.00  0.00    +0.000 A 
ATOM     16  C   UNL     1      -4.357  -1.045  -7.938  0.00  0.00    +0.000 A 
ENDBRANCH  10  11
ENDBRANCH   1  10
TORSDOF 2
ENDMDL
MODEL 5
REMARK VINA RESULT:    -4.383     30.983     32.177
REMARK INTER + INTRA:          -5.075
REMARK INTER:                  -4.952
REMARK INTRA:                  -0.123
REMARK UNBOUND:                -0.179
REMARK  Name = 1550473
REMARK  2 active torsions:
REMARK  status: ('A' for Active; 'I' for Inactive)
REMARK    1  A    between atoms: N_1  and  C_4
REMARK    2  A    between atoms: C_4  and  C_5
REMARK                            x       y       z     vdW  Elec       q    Type
REMARK                         _______ _______ _______ _____ _____    ______ ____
ROOT
ATOM      1  N   UNL     1      -4.965  -1.126  -9.350  0.00  0.00    -0.354 N 
ATOM      2  N   UNL     1      -2.791  -0.454  -8.918  0.00  0.00    -0.372 N 
ATOM      3  N   UNL     1      -3.792  -1.951  -7.497  0.00  0.00    -0.372 N 
ATOM      4  C   UNL     1      -3.864  -1.183  -8.589  0.00  0.00    +0.166 C 
ATOM      5  H   UNL     1      -4.967  -0.501 -10.148  0.00  0.00    +0.163 HD
ATOM      6  H   UNL     1      -1.945  -0.479  -8.365  0.00  0.00    +0.159 HD
ATOM      7  H   UNL     1      -2.779   0.135  -9.742  0.00  0.00    +0.159 HD
ATOM      8  H   UNL     1      -4.570  -2.521  -7.191  0.00  0.00    +0.159 HD
ATOM      9  H   UNL     1      -2.958  -1.981  -6.924  0.00  0.00    +0.159 HD
ENDROOT
BRANCH   1  10
ATOM     10  C   UNL     1      -6.168  -1.921  -9.109  0.00  0.00    +0.151 C 
BRANCH  10  11
ATOM     11  C   UNL     1      -6.442  -2.775 -10.315  0.00  0.00    -0.028 A 
ATOM     12  C   UNL     1      -5.455  -2.962 -11.295  0.00  0.00    +0.005 A 
ATOM     13  C   UNL     1      -7.685  -3.406 -10.483  0.00  0.00    +0.005 A 
ATOM     14  C   UNL     1      -5.699  -3.780 -12.400  0.00  0.00    +0.000 A 
ATOM     15  C   UNL     1      -7.924  -4.221 -11.588  0.00  0.00    +0.000 A 
ATOM     16  C   UNL     1      -6.930  -4.410 -12.546  0.00  0.00    +0.000 A 
ENDBRANCH  10  11
ENDBRANCH   1  10
TORSDOF 2
ENDMDL
MODEL 6
REMARK VINA RESULT:    -4.370     28.642     29.750
REMARK INTER + INTRA:          -5.061
REMARK INTER:                  -4.965
REMARK INTRA:                  -0.096
REMARK UNBOUND:                -0.179
REMARK  Name = 1550473
REMARK  2 active torsions:
REMARK  status: ('A' for Active; 'I' for Inactive)
REMARK    1  A    between atoms: N_1  and  C_4
REMARK    2  A    between atoms: C_4  and  C_5
REMARK                            x       y       z     vdW  Elec       q    Type
REMARK                         _______ _______ _______ _____ _____    ______ ____
ROOT
ATOM      1  N   UNL     1      -1.409   0.621  -8.698  0.00  0.00    -0.354 N 
ATOM      2  N   UNL     1       0.670   1.596  -8.398  0.00  0.00    -0.372 N 
ATOM      3  N   UNL     1      -1.209   2.812  -7.891  0.00  0.00    -0.372 N 
ATOM      4  C   UNL     1      -0.665   1.672  -8.331  0.00  0.00    +0.166 C 
ATOM      5  H   UNL     1      -0.937  -0.203  -9.051  0.00  0.00    +0.163 HD
ATOM      6  H   UNL     1       1.258   2.372  -8.124  0.00  0.00    +0.159 HD
ATOM      7  H   UNL     1       1.141   0.755  -8.708  0.00  0.00    +0.159 HD
ATOM      8  H   UNL     1      -2.210   2.935  -7.822  0.00  0.00    +0.159 HD
ATOM      9  H   UNL     1      -0.638   3.604  -7.624  0.00  0.00    +0.159 HD
ENDROOT
BRANCH   1  10
ATOM     10  C   UNL     1      -2.868   0.582  -8.612  0.00  0.00    +0.151 C 
BRANCH  10  11
ATOM     11  C   UNL     1      -3.362  -0.701  -9.222  0.00  0.00    -0.028 A 
ATOM     12  C   UNL     1      -3.304  -0.898 -10.609  0.00  0.00    +0.005 A 
ATOM     13  C   UNL     1      -3.884  -1.725  -8.417  0.00  0.00    +0.005 A 
ATOM     14  C   UNL     1      -3.735  -2.102 -11.173  0.00  0.00    +0.000 A 
ATOM     15  C   UNL     1      -4.314  -2.925  -8.984  0.00  0.00    +0.000 A 
ATOM     16  C   UNL     1      -4.237  -3.114 -10.361  0.00  0.00    +0.000 A 
ENDBRANCH  10  11
ENDBRANCH   1  10
TORSDOF 2
ENDMDL
MODEL 7
REMARK VINA RESULT:    -4.276      3.653      4.876
REMARK INTER + INTRA:          -4.955
REMARK INTER:                  -4.816
REMARK INTRA:                  -0.139
REMARK UNBOUND:                -0.179
REMARK  Name = 1550473
REMARK  2 active torsions:
REMARK  status: ('A' for Active; 'I' for Inactive)
REMARK    1  A    between atoms: N_1  and  C_4
REMARK    2  A    between atoms: C_4  and  C_5
REMARK                            x       y       z     vdW  Elec       q    Type
REMARK                         _______ _______ _______ _____ _____    ______ ____
ROOT
ATOM      1  N   UNL     1       6.108  -1.472  17.496  0.00  0.00    -0.354 N 
ATOM      2  N   UNL     1       4.864   0.478  17.618  0.00  0.00    -0.372 N 
ATOM      3  N   UNL     1       4.758  -0.788  15.708  0.00  0.00    -0.372 N 
ATOM      4  C   UNL     1       5.251  -0.607  16.937  0.00  0.00    +0.166 C 
ATOM      5  H   UNL     1       6.470  -1.262  18.420  0.00  0.00    +0.163 HD
ATOM      6  H   UNL     1       4.216   1.146  17.224  0.00  0.00    +0.159 HD
ATOM      7  H   UNL     1       5.191   0.661  18.559  0.00  0.00    +0.159 HD
ATOM      8  H   UNL     1       5.014  -1.584  15.139  0.00  0.00    +0.159 HD
ATOM      9  H   UNL     1       4.116  -0.124  15.291  0.00  0.00    +0.159 HD
ENDROOT
BRANCH   1  10
ATOM     10  C   UNL     1       6.551  -2.711  16.861  0.00  0.00    +0.151 C 
BRANCH  10  11
ATOM     11  C   UNL     1       8.054  -2.734  16.820  0.00  0.00    -0.028 A 
ATOM     12  C   UNL     1       8.728  -3.350  15.756  0.00  0.00    +0.005 A 
ATOM     13  C   UNL     1       8.810  -2.134  17.839  0.00  0.00    +0.005 A 
ATOM     14  C   UNL     1      10.124  -3.345  15.702  0.00  0.00    +0.000 A 
ATOM     15  C   UNL     1      10.203  -2.132  17.782  0.00  0.00    +0.000 A 
ATOM     16  C   UNL     1      10.860  -2.735  16.712  0.00  0.00    +0.000 A 
ENDBRANCH  10  11
ENDBRANCH   1  10
TORSDOF 2
ENDMDL
MODEL 8
REMARK VINA RESULT:    -4.202     32.582     33.596
REMARK INTER + INTRA:          -4.873
REMARK INTER:                  -4.757
REMARK INTRA:                  -0.116
REMARK UNBOUND:                -0.179
REMARK  Name = 1550473
REMARK  2 active torsions:
REMARK  status: ('A' for Active; 'I' for Inactive)
REMARK    1  A    between atoms: N_1  and  C_4
REMARK    2  A    between atoms: C_4  and  C_5
REMARK                            x       y       z     vdW  Elec       q    Type
REMARK                         _______ _______ _______ _____ _____    ______ ____
ROOT
ATOM      1  N   UNL     1      -3.266  -3.898 -12.094  0.00  0.00    -0.354 N 
ATOM      2  N   UNL     1      -1.944  -4.750 -13.793  0.00  0.00    -0.372 N 
ATOM      3  N   UNL     1      -2.548  -2.537 -13.861  0.00  0.00    -0.372 N 
ATOM      4  C   UNL     1      -2.595  -3.720 -13.239  0.00  0.00    +0.166 C 
ATOM      5  H   UNL     1      -3.289  -4.826 -11.688  0.00  0.00    +0.163 HD
ATOM      6  H   UNL     1      -1.426  -4.646 -14.656  0.00  0.00    +0.159 HD
ATOM      7  H   UNL     1      -1.930  -5.666 -13.362  0.00  0.00    +0.159 HD
ATOM      8  H   UNL     1      -3.023  -1.722 -13.498  0.00  0.00    +0.159 HD
ATOM      9  H   UNL     1      -2.044  -2.416 -14.731  0.00  0.00    +0.159 HD
ENDROOT
BRANCH   1  10
ATOM     10  C   UNL     1      -3.963  -2.829 -11.380  0.00  0.00    +0.151 C 
BRANCH  10  11
ATOM     11  C   UNL     1      -5.432  -3.146 -11.334  0.00  0.00    -0.028 A 
ATOM     12  C   UNL     1      -6.052  -3.808 -12.404  0.00  0.00    +0.005 A 
ATOM     13  C   UNL     1      -6.209  -2.792 -10.220  0.00  0.00    +0.005 A 
ATOM     14  C   UNL     1      -7.410  -4.130 -12.348  0.00  0.00    +0.000 A 
ATOM     15  C   UNL     1      -7.565  -3.114 -10.169  0.00  0.00    +0.000 A 
ATOM     16  C   UNL     1      -8.165  -3.785 -11.232  0.00  0.00    +0.000 A 
ENDBRANCH  10  11
ENDBRANCH   1  10
TORSDOF 2
ENDMDL
MODEL 9
REMARK VINA RESULT:    -4.154     13.246     14.493
REMARK INTER + INTRA:          -4.819
REMARK INTER:                  -4.686
REMARK INTRA:                  -0.133
REMARK UNBOUND:                -0.179
REMARK  Name = 1550473
REMARK  2 active torsions:
REMARK  status: ('A' for Active; 'I' for Inactive)
REMARK    1  A    between atoms: N_1  and  C_4
REMARK    2  A    between atoms: C_4  and  C_5
REMARK                            x       y       z     vdW  Elec       q    Type
REMARK                         _______ _______ _______ _____ _____    ______ ____
ROOT
ATOM      1  N   UNL     1      13.131  -3.919   4.169  0.00  0.00    -0.354 N 
ATOM      2  N   UNL     1      13.255  -1.630   4.499  0.00  0.00    -0.372 N 
ATOM      3  N   UNL     1      13.375  -3.021   6.320  0.00  0.00    -0.372 N 
ATOM      4  C   UNL     1      13.253  -2.872   4.996  0.00  0.00    +0.166 C 
ATOM      5  H   UNL     1      13.012  -3.738   3.179  0.00  0.00    +0.163 HD
ATOM      6  H   UNL     1      13.349  -0.821   5.098  0.00  0.00    +0.159 HD
ATOM      7  H   UNL     1      13.182  -1.454   3.504  0.00  0.00    +0.159 HD
ATOM      8  H   UNL     1      13.374  -3.932   6.759  0.00  0.00    +0.159 HD
ATOM      9  H   UNL     1      13.458  -2.223   6.937  0.00  0.00    +0.159 HD
ENDROOT
BRANCH   1  10
ATOM     10  C   UNL     1      13.171  -5.314   4.604  0.00  0.00    +0.151 C 
BRANCH  10  11
ATOM     11  C   UNL     1      12.285  -6.133   3.707  0.00  0.00    -0.028 A 
ATOM     12  C   UNL     1      12.261  -7.532   3.815  0.00  0.00    +0.005 A 
ATOM     13  C   UNL     1      11.462  -5.517   2.752  0.00  0.00    +0.005 A 
ATOM     14  C   UNL     1      11.415  -8.291   3.003  0.00  0.00    +0.000 A 
ATOM     15  C   UNL     1      10.619  -6.280   1.943  0.00  0.00    +0.000 A 
ATOM     16  C   UNL     1      10.595  -7.666   2.070  0.00  0.00    +0.000 A 
ENDBRANCH  10  11
ENDBRANCH   1  10
TORSDOF 2
ENDMDL
