MODEL 1
REMARK VINA RESULT:    -6.144      0.000      0.000
REMARK INTER + INTRA:          -6.987
REMARK INTER:                  -6.863
REMARK INTRA:                  -0.124
REMARK UNBOUND:                -0.124
REMARK  Name = 1550473
REMARK  2 active torsions:
REMARK  status: ('A' for Active; 'I' for Inactive)
REMARK    1  A    between atoms: N_1  and  C_4
REMARK    2  A    between atoms: C_4  and  C_5
REMARK                            x       y       z     vdW  Elec       q    Type
REMARK                         _______ _______ _______ _____ _____    ______ ____
ROOT
ATOM      1  N   UNL     1      -5.327  -9.424  -5.467  0.00  0.00    -0.354 N 
ATOM      2  N   UNL     1      -4.706  -9.581  -3.242  0.00  0.00    -0.372 N 
ATOM      3  N   UNL     1      -6.269  -8.015  -3.849  0.00  0.00    -0.372 N 
ATOM      4  C   UNL     1      -5.440  -9.003  -4.201  0.00  0.00    +0.166 C 
ATOM      5  H   UNL     1      -4.658 -10.157  -5.673  0.00  0.00    +0.163 HD
ATOM      6  H   UNL     1      -4.772  -9.287  -2.276  0.00  0.00    +0.159 HD
ATOM      7  H   UNL     1      -4.072 -10.344  -3.443  0.00  0.00    +0.159 HD
ATOM      8  H   UNL     1      -6.847  -7.534  -4.526  0.00  0.00    +0.159 HD
ATOM      9  H   UNL     1      -6.341  -7.699  -2.890  0.00  0.00    +0.159 HD
ENDROOT
BRANCH   1  10
ATOM     10  C   UNL     1      -6.120  -8.899  -6.577  0.00  0.00    +0.151 C 
BRANCH  10  11
ATOM     11  C   UNL     1      -5.196  -8.303  -7.603  0.00  0.00    -0.028 A 
ATOM     12  C   UNL     1      -5.525  -8.343  -8.966  0.00  0.00    +0.005 A 
ATOM     13  C   UNL     1      -3.992  -7.693  -7.218  0.00  0.00    +0.005 A 
ATOM     14  C   UNL     1      -4.681  -7.763  -9.916  0.00  0.00    +0.000 A 
ATOM     15  C   UNL     1      -3.152  -7.116  -8.170  0.00  0.00    +0.000 A 
ATOM     16  C   UNL     1      -3.498  -7.149  -9.519  0.00  0.00    +0.000 A 
ENDBRANCH  10  11
ENDBRANCH   1  10
TORSDOF 2
ENDMDL
MODEL 2
REMARK VINA RESULT:    -5.791      5.848      7.652
REMARK INTER + INTRA:          -6.592
REMARK INTER:                  -6.478
REMARK INTRA:                  -0.114
REMARK UNBOUND:                -0.124
REMARK  Name = 1550473
REMARK  2 active torsions:
REMARK  status: ('A' for Active; 'I' for Inactive)
REMARK    1  A    between atoms: N_1  and  C_4
REMARK    2  A    between atoms: C_4  and  C_5
REMARK                            x       y       z     vdW  Elec       q    Type
REMARK                         _______ _______ _______ _____ _____    ______ ____
ROOT
ATOM      1  N   UNL     1      -3.147  -6.050 -13.441  0.00  0.00    -0.354 N 
ATOM      2  N   UNL     1      -1.254  -5.210 -14.478  0.00  0.00    -0.372 N 
ATOM      3  N   UNL     1      -3.316  -4.491 -15.183  0.00  0.00    -0.372 N 
ATOM      4  C   UNL     1      -2.587  -5.254 -14.362  0.00  0.00    +0.166 C 
ATOM      5  H   UNL     1      -2.540  -6.626 -12.870  0.00  0.00    +0.163 HD
ATOM      6  H   UNL     1      -0.803  -4.617 -15.162  0.00  0.00    +0.159 HD
ATOM      7  H   UNL     1      -0.648  -5.753 -13.875  0.00  0.00    +0.159 HD
ATOM      8  H   UNL     1      -4.327  -4.484 -15.151  0.00  0.00    +0.159 HD
ATOM      9  H   UNL     1      -2.883  -3.900 -15.882  0.00  0.00    +0.159 HD
ENDROOT
BRANCH   1  10
ATOM     10  C   UNL     1      -4.586  -6.131 -13.197  0.00  0.00    +0.151 C 
BRANCH  10  11
ATOM     11  C   UNL     1      -4.830  -6.963 -11.969  0.00  0.00    -0.028 A 
ATOM     12  C   UNL     1      -3.987  -6.850 -10.854  0.00  0.00    +0.005 A 
ATOM     13  C   UNL     1      -5.907  -7.862 -11.912  0.00  0.00    +0.005 A 
ATOM     14  C   UNL     1      -4.231  -7.601  -9.701  0.00  0.00    +0.000 A 
ATOM     15  C   UNL     1      -6.146  -8.610 -10.759  0.00  0.00    +0.000 A 
ATOM     16  C   UNL     1      -5.310  -8.478  -9.654  0.00  0.00    +0.000 A 
ENDBRANCH  10  11
ENDBRANCH   1  10
TORSDOF 2
ENDMDL
MODEL 3
REMARK VINA RESULT:    -5.740      4.429      6.019
REMARK INTER + INTRA:          -6.535
REMARK INTER:                  -6.415
REMARK INTRA:                  -0.121
REMARK UNBOUND:                -0.124
REMARK  Name = 1550473
REMARK  2 active torsions:
REMARK  status: ('A' for Active; 'I' for Inactive)
REMARK    1  A    between atoms: N_1  and  C_4
REMARK    2  A    between atoms: C_4  and  C_5
REMARK                            x       y       z     vdW  Elec       q    Type
REMARK                         _______ _______ _______ _____ _____    ______ ____
ROOT
ATOM      1  N   UNL     1      -4.721  -6.876 -11.755  0.00  0.00    -0.354 N 
ATOM      2  N   UNL     1      -4.386  -5.607 -13.664  0.00  0.00    -0.372 N 
ATOM      3  N   UNL     1      -5.867  -7.358 -13.742  0.00  0.00    -0.372 N 
ATOM      4  C   UNL     1      -4.995  -6.624 -13.042  0.00  0.00    +0.166 C 
ATOM      5  H   UNL     1      -4.028  -6.301 -11.289  0.00  0.00    +0.163 HD
ATOM      6  H   UNL     1      -4.575  -5.391 -14.633  0.00  0.00    +0.159 HD
ATOM      7  H   UNL     1      -3.728  -5.006 -13.183  0.00  0.00    +0.159 HD
ATOM      8  H   UNL     1      -6.356  -8.143 -13.332  0.00  0.00    +0.159 HD
ATOM      9  H   UNL     1      -6.061  -7.165 -14.716  0.00  0.00    +0.159 HD
ENDROOT
BRANCH   1  10
ATOM     10  C   UNL     1      -5.369  -7.926 -10.971  0.00  0.00    +0.151 C 
BRANCH  10  11
ATOM     11  C   UNL     1      -4.886  -7.846  -9.549  0.00  0.00    -0.028 A 
ATOM     12  C   UNL     1      -5.565  -8.526  -8.527  0.00  0.00    +0.005 A 
ATOM     13  C   UNL     1      -3.746  -7.098  -9.218  0.00  0.00    +0.005 A 
ATOM     14  C   UNL     1      -5.099  -8.477  -7.211  0.00  0.00    +0.000 A 
ATOM     15  C   UNL     1      -3.284  -7.051  -7.903  0.00  0.00    +0.000 A 
ATOM     16  C   UNL     1      -3.960  -7.742  -6.900  0.00  0.00    +0.000 A 
ENDBRANCH  10  11
ENDBRANCH   1  10
TORSDOF 2
ENDMDL
MODEL 4
REMARK VINA RESULT:    -5.555     17.909     19.071
REMARK INTER + INTRA:          -6.328
REMARK INTER:                  -6.192
REMARK INTRA:                  -0.136
REMARK UNBOUND:                -0.124
REMARK  Name = 1550473
REMARK  2 active torsions:
REMARK  status: ('A' for Active; 'I' for Inactive)
REMARK    1  A    between atoms: N_1  and  C_4
REMARK    2  A    between atoms: C_4  and  C_5
REMARK                            x       y       z     vdW  Elec       q    Type
REMARK                         _______ _______ _______ _____ _____    ______ ____
ROOT
ATOM      1  N   UNL     1     -14.492 -11.699   8.856  0.00  0.00    -0.354 N 
ATOM      2  N   UNL     1     -16.714 -11.048   8.926  0.00  0.00    -0.372 N 
ATOM      3  N   UNL     1     -15.199  -9.708   7.842  0.00  0.00    -0.372 N 
ATOM      4  C   UNL     1     -15.452 -10.820   8.539  0.00  0.00    +0.166 C 
ATOM      5  H   UNL     1     -14.743 -12.507   9.412  0.00  0.00    +0.163 HD
ATOM      6  H   UNL     1     -17.460 -10.405   8.699  0.00  0.00    +0.159 HD
ATOM      7  H   UNL     1     -16.970 -11.881   9.442  0.00  0.00    +0.159 HD
ATOM      8  H   UNL     1     -14.267  -9.474   7.526  0.00  0.00    +0.159 HD
ATOM      9  H   UNL     1     -15.931  -9.046   7.615  0.00  0.00    +0.159 HD
ENDROOT
BRANCH   1  10
ATOM     10  C   UNL     1     -13.097 -11.571   8.437  0.00  0.00    +0.151 C 
BRANCH  10  11
ATOM     11  C   UNL     1     -12.243 -11.311   9.648  0.00  0.00    -0.028 A 
ATOM     12  C   UNL     1     -12.472 -10.186  10.453  0.00  0.00    +0.005 A 
ATOM     13  C   UNL     1     -11.206 -12.190   9.998  0.00  0.00    +0.005 A 
ATOM     14  C   UNL     1     -11.699  -9.960  11.594  0.00  0.00    +0.000 A 
ATOM     15  C   UNL     1     -10.436 -11.961  11.138  0.00  0.00    +0.000 A 
ATOM     16  C   UNL     1     -10.684 -10.847  11.937  0.00  0.00    +0.000 A 
ENDBRANCH  10  11
ENDBRANCH   1  10
TORSDOF 2
ENDMDL
MODEL 5
REMARK VINA RESULT:    -5.185      9.604     11.116
REMARK INTER + INTRA:          -5.915
REMARK INTER:                  -5.777
REMARK INTRA:                  -0.138
REMARK UNBOUND:                -0.124
REMARK  Name = 1550473
REMARK  2 active torsions:
REMARK  status: ('A' for Active; 'I' for Inactive)
REMARK    1  A    between atoms: N_1  and  C_4
REMARK    2  A    between atoms: C_4  and  C_5
REMARK                            x       y       z     vdW  Elec       q    Type
REMARK                         _______ _______ _______ _____ _____    ______ ____
ROOT
ATOM      1  N   UNL     1     -12.707 -14.445 -10.536  0.00  0.00    -0.354 N 
ATOM      2  N   UNL     1     -12.734 -14.899 -12.807  0.00  0.00    -0.372 N 
ATOM      3  N   UNL     1     -14.192 -16.020 -11.435  0.00  0.00    -0.372 N 
ATOM      4  C   UNL     1     -13.213 -15.120 -11.577  0.00  0.00    +0.166 C 
ATOM      5  H   UNL     1     -11.946 -13.798 -10.706  0.00  0.00    +0.163 HD
ATOM      6  H   UNL     1     -13.098 -15.390 -13.612  0.00  0.00    +0.159 HD
ATOM      7  H   UNL     1     -12.004 -14.218 -12.981  0.00  0.00    +0.159 HD
ATOM      8  H   UNL     1     -14.593 -16.237 -10.533  0.00  0.00    +0.159 HD
ATOM      9  H   UNL     1     -14.561 -16.531 -12.227  0.00  0.00    +0.159 HD
ENDROOT
BRANCH   1  10
ATOM     10  C   UNL     1     -13.195 -14.572  -9.164  0.00  0.00    +0.151 C 
BRANCH  10  11
ATOM     11  C   UNL     1     -12.058 -14.997  -8.276  0.00  0.00    -0.028 A 
ATOM     12  C   UNL     1     -11.969 -16.320  -7.817  0.00  0.00    +0.005 A 
ATOM     13  C   UNL     1     -11.063 -14.084  -7.895  0.00  0.00    +0.005 A 
ATOM     14  C   UNL     1     -10.897 -16.723  -7.017  0.00  0.00    +0.000 A 
ATOM     15  C   UNL     1      -9.995 -14.490  -7.096  0.00  0.00    +0.000 A 
ATOM     16  C   UNL     1      -9.911 -15.810  -6.659  0.00  0.00    +0.000 A 
ENDBRANCH  10  11
ENDBRANCH   1  10
TORSDOF 2
ENDMDL
MODEL 6
REMARK VINA RESULT:    -5.173     14.096     15.803
REMARK INTER + INTRA:          -5.901
REMARK INTER:                  -5.731
REMARK INTRA:                  -0.170
REMARK UNBOUND:                -0.124
REMARK  Name = 1550473
REMARK  2 active torsions:
REMARK  status: ('A' for Active; 'I' for Inactive)
REMARK    1  A    between atoms: N_1  and  C_4
REMARK    2  A    between atoms: C_4  and  C_5
REMARK                            x       y       z     vdW  Elec       q    Type
REMARK                         _______ _______ _______ _____ _____    ______ ____
ROOT
ATOM      1  N   UNL     1      -5.866  -8.763 -23.355  0.00  0.00    -0.354 N 
ATOM      2  N   UNL     1      -3.946  -8.176 -24.509  0.00  0.00    -0.372 N 
ATOM      3  N   UNL     1      -5.732  -6.736 -24.523  0.00  0.00    -0.372 N 
ATOM      4  C   UNL     1      -5.195  -7.893 -24.122  0.00  0.00    +0.166 C 
ATOM      5  H   UNL     1      -5.414  -9.637 -23.110  0.00  0.00    +0.163 HD
ATOM      6  H   UNL     1      -3.414  -7.537 -25.085  0.00  0.00    +0.159 HD
ATOM      7  H   UNL     1      -3.480  -9.029 -24.225  0.00  0.00    +0.159 HD
ATOM      8  H   UNL     1      -6.673  -6.466 -24.270  0.00  0.00    +0.159 HD
ATOM      9  H   UNL     1      -5.220  -6.089 -25.110  0.00  0.00    +0.159 HD
ENDROOT
BRANCH   1  10
ATOM     10  C   UNL     1      -7.211  -8.527 -22.835  0.00  0.00    +0.151 C 
BRANCH  10  11
ATOM     11  C   UNL     1      -7.109  -7.924 -21.461  0.00  0.00    -0.028 A 
ATOM     12  C   UNL     1      -7.380  -6.563 -21.258  0.00  0.00    +0.005 A 
ATOM     13  C   UNL     1      -6.745  -8.711 -20.357  0.00  0.00    +0.005 A 
ATOM     14  C   UNL     1      -7.314  -6.010 -19.977  0.00  0.00    +0.000 A 
ATOM     15  C   UNL     1      -6.680  -8.154 -19.080  0.00  0.00    +0.000 A 
ATOM     16  C   UNL     1      -6.966  -6.805 -18.890  0.00  0.00    +0.000 A 
ENDBRANCH  10  11
ENDBRANCH   1  10
TORSDOF 2
ENDMDL
MODEL 7
REMARK VINA RESULT:    -5.082     17.049     18.897
REMARK INTER + INTRA:          -5.800
REMARK INTER:                  -5.673
REMARK INTRA:                  -0.127
REMARK UNBOUND:                -0.124
REMARK  Name = 1550473
REMARK  2 active torsions:
REMARK  status: ('A' for Active; 'I' for Inactive)
REMARK    1  A    between atoms: N_1  and  C_4
REMARK    2  A    between atoms: C_4  and  C_5
REMARK                            x       y       z     vdW  Elec       q    Type
REMARK                         _______ _______ _______ _____ _____    ______ ____
ROOT
ATOM      1  N   UNL     1     -13.552 -11.181   8.442  0.00  0.00    -0.354 N 
ATOM      2  N   UNL     1     -14.122 -11.913   6.320  0.00  0.00    -0.372 N 
ATOM      3  N   UNL     1     -14.587  -9.744   6.906  0.00  0.00    -0.372 N 
ATOM      4  C   UNL     1     -14.084 -10.938   7.236  0.00  0.00    +0.166 C 
ATOM      5  H   UNL     1     -13.216 -12.116   8.640  0.00  0.00    +0.163 HD
ATOM      6  H   UNL     1     -14.515 -11.759   5.401  0.00  0.00    +0.159 HD
ATOM      7  H   UNL     1     -13.744 -12.834   6.505  0.00  0.00    +0.159 HD
ATOM      8  H   UNL     1     -14.593  -8.968   7.555  0.00  0.00    +0.159 HD
ATOM      9  H   UNL     1     -14.994  -9.574   5.995  0.00  0.00    +0.159 HD
ENDROOT
BRANCH   1  10
ATOM     10  C   UNL     1     -13.413 -10.173   9.492  0.00  0.00    +0.151 C 
BRANCH  10  11
ATOM     11  C   UNL     1     -12.366 -10.625  10.471  0.00  0.00    -0.028 A 
ATOM     12  C   UNL     1     -11.577 -11.752  10.200  0.00  0.00    +0.005 A 
ATOM     13  C   UNL     1     -12.154  -9.927  11.670  0.00  0.00    +0.005 A 
ATOM     14  C   UNL     1     -10.583 -12.155  11.095  0.00  0.00    +0.000 A 
ATOM     15  C   UNL     1     -11.161 -10.333  12.562  0.00  0.00    +0.000 A 
ATOM     16  C   UNL     1     -10.375 -11.446  12.273  0.00  0.00    +0.000 A 
ENDBRANCH  10  11
ENDBRANCH   1  10
TORSDOF 2
ENDMDL
MODEL 8
REMARK VINA RESULT:    -4.990     18.508     19.772
REMARK INTER + INTRA:          -5.697
REMARK INTER:                  -5.533
REMARK INTRA:                  -0.163
REMARK UNBOUND:                -0.124
REMARK  Name = 1550473
REMARK  2 active torsions:
REMARK  status: ('A' for Active; 'I' for Inactive)
REMARK    1  A    between atoms: N_1  and  C_4
REMARK    2  A    between atoms: C_4  and  C_5
REMARK                            x       y       z     vdW  Elec       q    Type
REMARK                         _______ _______ _______ _____ _____    ______ ____
ROOT
ATOM      1  N   UNL     1     -10.607 -11.503  12.618  0.00  0.00    -0.354 N 
ATOM      2  N   UNL     1     -10.982 -12.024  14.843  0.00  0.00    -0.372 N 
ATOM      3  N   UNL     1     -10.900  -9.817  14.219  0.00  0.00    -0.372 N 
ATOM      4  C   UNL     1     -10.827 -11.109  13.879  0.00  0.00    +0.166 C 
ATOM      5  H   UNL     1     -10.533 -12.497  12.430  0.00  0.00    +0.163 HD
ATOM      6  H   UNL     1     -11.153 -11.756  15.803  0.00  0.00    +0.159 HD
ATOM      7  H   UNL     1     -10.953 -13.017  14.645  0.00  0.00    +0.159 HD
ATOM      8  H   UNL     1     -10.786  -9.077  13.539  0.00  0.00    +0.159 HD
ATOM      9  H   UNL     1     -11.059  -9.529  15.176  0.00  0.00    +0.159 HD
ENDROOT
BRANCH   1  10
ATOM     10  C   UNL     1     -10.478 -10.588  11.485  0.00  0.00    +0.151 C 
BRANCH  10  11
ATOM     11  C   UNL     1     -11.645 -10.786  10.558  0.00  0.00    -0.028 A 
ATOM     12  C   UNL     1     -12.814 -10.026  10.713  0.00  0.00    +0.005 A 
ATOM     13  C   UNL     1     -11.587 -11.728   9.519  0.00  0.00    +0.005 A 
ATOM     14  C   UNL     1     -13.887 -10.188   9.833  0.00  0.00    +0.000 A 
ATOM     15  C   UNL     1     -12.661 -11.887   8.644  0.00  0.00    +0.000 A 
ATOM     16  C   UNL     1     -13.810 -11.115   8.800  0.00  0.00    +0.000 A 
ENDBRANCH  10  11
ENDBRANCH   1  10
TORSDOF 2
ENDMDL
MODEL 9
REMARK VINA RESULT:    -4.910     27.733     28.876
REMARK INTER + INTRA:          -5.608
REMARK INTER:                  -5.473
REMARK INTRA:                  -0.135
REMARK UNBOUND:                -0.124
REMARK  Name = 1550473
REMARK  2 active torsions:
REMARK  status: ('A' for Active; 'I' for Inactive)
REMARK    1  A    between atoms: N_1  and  C_4
REMARK    2  A    between atoms: C_4  and  C_5
REMARK                            x       y       z     vdW  Elec       q    Type
REMARK                         _______ _______ _______ _____ _____    ______ ____
ROOT
ATOM      1  N   UNL     1      -7.999   2.106  19.646  0.00  0.00    -0.354 N 
ATOM      2  N   UNL     1      -8.999   4.093  19.000  0.00  0.00    -0.372 N 
ATOM      3  N   UNL     1      -8.113   2.721  17.388  0.00  0.00    -0.372 N 
ATOM      4  C   UNL     1      -8.363   2.959  18.680  0.00  0.00    +0.166 C 
ATOM      5  H   UNL     1      -8.191   2.359  20.609  0.00  0.00    +0.163 HD
ATOM      6  H   UNL     1      -9.288   4.754  18.292  0.00  0.00    +0.159 HD
ATOM      7  H   UNL     1      -9.230   4.322  19.959  0.00  0.00    +0.159 HD
ATOM      8  H   UNL     1      -7.631   1.886  17.081  0.00  0.00    +0.159 HD
ATOM      9  H   UNL     1      -8.384   3.376  16.666  0.00  0.00    +0.159 HD
ENDROOT
BRANCH   1  10
ATOM     10  C   UNL     1      -7.350   0.820  19.400  0.00  0.00    +0.151 C 
BRANCH  10  11
ATOM     11  C   UNL     1      -6.079   0.750  20.200  0.00  0.00    -0.028 A 
ATOM     12  C   UNL     1      -5.472   1.921  20.676  0.00  0.00    +0.005 A 
ATOM     13  C   UNL     1      -5.479  -0.485  20.490  0.00  0.00    +0.005 A 
ATOM     14  C   UNL     1      -4.307   1.855  21.445  0.00  0.00    +0.000 A 
ATOM     15  C   UNL     1      -4.316  -0.547  21.257  0.00  0.00    +0.000 A 
ATOM     16  C   UNL     1      -3.731   0.623  21.736  0.00  0.00    +0.000 A 
ENDBRANCH  10  11
ENDBRANCH   1  10
TORSDOF 2
ENDMDL
