MODEL 1
REMARK VINA RESULT:    -6.048      0.000      0.000
REMARK INTER + INTRA:          -6.885
REMARK INTER:                  -6.756
REMARK INTRA:                  -0.130
REMARK UNBOUND:                -0.130
REMARK  Name = 1550473
REMARK  2 active torsions:
REMARK  status: ('A' for Active; 'I' for Inactive)
REMARK    1  A    between atoms: N_1  and  C_4
REMARK    2  A    between atoms: C_4  and  C_5
REMARK                            x       y       z     vdW  Elec       q    Type
REMARK                         _______ _______ _______ _____ _____    ______ ____
ROOT
ATOM      1  N   UNL     1      -6.183   2.164  -7.085  0.00  0.00    -0.354 N 
ATOM      2  N   UNL     1      -3.877   2.306  -6.917  0.00  0.00    -0.372 N 
ATOM      3  N   UNL     1      -5.022   4.014  -7.934  0.00  0.00    -0.372 N 
ATOM      4  C   UNL     1      -5.043   2.830  -7.315  0.00  0.00    +0.166 C 
ATOM      5  H   UNL     1      -6.128   1.256  -6.638  0.00  0.00    +0.163 HD
ATOM      6  H   UNL     1      -3.001   2.786  -7.073  0.00  0.00    +0.159 HD
ATOM      7  H   UNL     1      -3.830   1.420  -6.429  0.00  0.00    +0.159 HD
ATOM      8  H   UNL     1      -5.867   4.461  -8.265  0.00  0.00    +0.159 HD
ATOM      9  H   UNL     1      -4.154   4.505  -8.110  0.00  0.00    +0.159 HD
ENDROOT
BRANCH   1  10
ATOM     10  C   UNL     1      -7.509   2.672  -7.430  0.00  0.00    +0.151 C 
BRANCH  10  11
ATOM     11  C   UNL     1      -8.192   1.685  -8.337  0.00  0.00    -0.028 A 
ATOM     12  C   UNL     1      -7.446   0.723  -9.033  0.00  0.00    +0.005 A 
ATOM     13  C   UNL     1      -9.586   1.704  -8.500  0.00  0.00    +0.005 A 
ATOM     14  C   UNL     1      -8.083  -0.213  -9.851  0.00  0.00    +0.000 A 
ATOM     15  C   UNL     1     -10.218   0.768  -9.319  0.00  0.00    +0.000 A 
ATOM     16  C   UNL     1      -9.466  -0.191  -9.993  0.00  0.00    +0.000 A 
ENDBRANCH  10  11
ENDBRANCH   1  10
TORSDOF 2
ENDMDL
MODEL 2
REMARK VINA RESULT:    -5.719      1.743      2.837
REMARK INTER + INTRA:          -6.517
REMARK INTER:                  -6.416
REMARK INTRA:                  -0.102
REMARK UNBOUND:                -0.130
REMARK  Name = 1550473
REMARK  2 active torsions:
REMARK  status: ('A' for Active; 'I' for Inactive)
REMARK    1  A    between atoms: N_1  and  C_4
REMARK    2  A    between atoms: C_4  and  C_5
REMARK                            x       y       z     vdW  Elec       q    Type
REMARK                         _______ _______ _______ _____ _____    ______ ____
ROOT
ATOM      1  N   UNL     1      -8.236   1.083  -7.920  0.00  0.00    -0.354 N 
ATOM      2  N   UNL     1      -7.989   1.662  -5.692  0.00  0.00    -0.372 N 
ATOM      3  N   UNL     1      -6.175   1.824  -7.088  0.00  0.00    -0.372 N 
ATOM      4  C   UNL     1      -7.465   1.519  -6.915  0.00  0.00    +0.166 C 
ATOM      5  H   UNL     1      -9.199   0.840  -7.718  0.00  0.00    +0.163 HD
ATOM      6  H   UNL     1      -7.433   1.993  -4.915  0.00  0.00    +0.159 HD
ATOM      7  H   UNL     1      -8.963   1.462  -5.502  0.00  0.00    +0.159 HD
ATOM      8  H   UNL     1      -5.718   1.732  -7.985  0.00  0.00    +0.159 HD
ATOM      9  H   UNL     1      -5.599   2.146  -6.320  0.00  0.00    +0.159 HD
ENDROOT
BRANCH   1  10
ATOM     10  C   UNL     1      -7.777   0.944  -9.301  0.00  0.00    +0.151 C 
BRANCH  10  11
ATOM     11  C   UNL     1      -8.937   0.527 -10.164  0.00  0.00    -0.028 A 
ATOM     12  C   UNL     1      -9.666  -0.633  -9.865  0.00  0.00    +0.005 A 
ATOM     13  C   UNL     1      -9.314   1.291 -11.279  0.00  0.00    +0.005 A 
ATOM     14  C   UNL     1     -10.762  -1.004 -10.648  0.00  0.00    +0.000 A 
ATOM     15  C   UNL     1     -10.408   0.917 -12.060  0.00  0.00    +0.000 A 
ATOM     16  C   UNL     1     -11.133  -0.229 -11.742  0.00  0.00    +0.000 A 
ENDBRANCH  10  11
ENDBRANCH   1  10
TORSDOF 2
ENDMDL
MODEL 3
REMARK VINA RESULT:    -5.452     14.093     15.181
REMARK INTER + INTRA:          -6.218
REMARK INTER:                  -6.126
REMARK INTRA:                  -0.092
REMARK UNBOUND:                -0.130
REMARK  Name = 1550473
REMARK  2 active torsions:
REMARK  status: ('A' for Active; 'I' for Inactive)
REMARK    1  A    between atoms: N_1  and  C_4
REMARK    2  A    between atoms: C_4  and  C_5
REMARK                            x       y       z     vdW  Elec       q    Type
REMARK                         _______ _______ _______ _____ _____    ______ ____
ROOT
ATOM      1  N   UNL     1      -0.240  -9.885  -4.763  0.00  0.00    -0.354 N 
ATOM      2  N   UNL     1      -0.487  -7.802  -3.780  0.00  0.00    -0.372 N 
ATOM      3  N   UNL     1      -1.511  -9.614  -2.812  0.00  0.00    -0.372 N 
ATOM      4  C   UNL     1      -0.746  -9.115  -3.790  0.00  0.00    +0.166 C 
ATOM      5  H   UNL     1       0.307  -9.441  -5.492  0.00  0.00    +0.163 HD
ATOM      6  H   UNL     1      -0.852  -7.197  -3.056  0.00  0.00    +0.159 HD
ATOM      7  H   UNL     1       0.098  -7.369  -4.484  0.00  0.00    +0.159 HD
ATOM      8  H   UNL     1      -1.748 -10.596  -2.766  0.00  0.00    +0.159 HD
ATOM      9  H   UNL     1      -1.895  -9.022  -2.086  0.00  0.00    +0.159 HD
ENDROOT
BRANCH   1  10
ATOM     10  C   UNL     1      -0.418 -11.334  -4.835  0.00  0.00    +0.151 C 
BRANCH  10  11
ATOM     11  C   UNL     1       0.035 -11.818  -6.185  0.00  0.00    -0.028 A 
ATOM     12  C   UNL     1      -0.896 -12.045  -7.209  0.00  0.00    +0.005 A 
ATOM     13  C   UNL     1       1.395 -12.045  -6.448  0.00  0.00    +0.005 A 
ATOM     14  C   UNL     1      -0.472 -12.465  -8.472  0.00  0.00    +0.000 A 
ATOM     15  C   UNL     1       1.813 -12.466  -7.710  0.00  0.00    +0.000 A 
ATOM     16  C   UNL     1       0.880 -12.673  -8.723  0.00  0.00    +0.000 A 
ENDBRANCH  10  11
ENDBRANCH   1  10
TORSDOF 2
ENDMDL
MODEL 4
REMARK VINA RESULT:    -5.266      1.621      2.816
REMARK INTER + INTRA:          -6.011
REMARK INTER:                  -5.913
REMARK INTRA:                  -0.098
REMARK UNBOUND:                -0.130
REMARK  Name = 1550473
REMARK  2 active torsions:
REMARK  status: ('A' for Active; 'I' for Inactive)
REMARK    1  A    between atoms: N_1  and  C_4
REMARK    2  A    between atoms: C_4  and  C_5
REMARK                            x       y       z     vdW  Elec       q    Type
REMARK                         _______ _______ _______ _____ _____    ______ ____
ROOT
ATOM      1  N   UNL     1      -8.254   2.391  -7.893  0.00  0.00    -0.354 N 
ATOM      2  N   UNL     1      -6.170   2.064  -6.937  0.00  0.00    -0.372 N 
ATOM      3  N   UNL     1      -8.043   1.550  -5.716  0.00  0.00    -0.372 N 
ATOM      4  C   UNL     1      -7.505   2.003  -6.853  0.00  0.00    +0.166 C 
ATOM      5  H   UNL     1      -7.786   2.754  -8.715  0.00  0.00    +0.163 HD
ATOM      6  H   UNL     1      -5.578   1.775  -6.170  0.00  0.00    +0.159 HD
ATOM      7  H   UNL     1      -5.704   2.384  -7.778  0.00  0.00    +0.159 HD
ATOM      8  H   UNL     1      -9.044   1.485  -5.586  0.00  0.00    +0.159 HD
ATOM      9  H   UNL     1      -7.468   1.267  -4.932  0.00  0.00    +0.159 HD
ENDROOT
BRANCH   1  10
ATOM     10  C   UNL     1      -9.714   2.314  -7.923  0.00  0.00    +0.151 C 
BRANCH  10  11
ATOM     11  C   UNL     1     -10.132   1.322  -8.972  0.00  0.00    -0.028 A 
ATOM     12  C   UNL     1     -11.399   1.407  -9.569  0.00  0.00    +0.005 A 
ATOM     13  C   UNL     1      -9.264   0.296  -9.378  0.00  0.00    +0.005 A 
ATOM     14  C   UNL     1     -11.776   0.504 -10.565  0.00  0.00    +0.000 A 
ATOM     15  C   UNL     1      -9.645  -0.604 -10.373  0.00  0.00    +0.000 A 
ATOM     16  C   UNL     1     -10.900  -0.499 -10.968  0.00  0.00    +0.000 A 
ENDBRANCH  10  11
ENDBRANCH   1  10
TORSDOF 2
ENDMDL
MODEL 5
REMARK VINA RESULT:    -4.987     22.318     23.967
REMARK INTER + INTRA:          -5.700
REMARK INTER:                  -5.525
REMARK INTRA:                  -0.174
REMARK UNBOUND:                -0.130
REMARK  Name = 1550473
REMARK  2 active torsions:
REMARK  status: ('A' for Active; 'I' for Inactive)
REMARK    1  A    between atoms: N_1  and  C_4
REMARK    2  A    between atoms: C_4  and  C_5
REMARK                            x       y       z     vdW  Elec       q    Type
REMARK                         _______ _______ _______ _____ _____    ______ ____
ROOT
ATOM      1  N   UNL     1      12.185   6.390   3.516  0.00  0.00    -0.354 N 
ATOM      2  N   UNL     1      10.702   6.998   1.845  0.00  0.00    -0.372 N 
ATOM      3  N   UNL     1      10.577   8.055   3.877  0.00  0.00    -0.372 N 
ATOM      4  C   UNL     1      11.163   7.145   3.092  0.00  0.00    +0.166 C 
ATOM      5  H   UNL     1      12.566   5.697   2.883  0.00  0.00    +0.163 HD
ATOM      6  H   UNL     1       9.935   7.557   1.496  0.00  0.00    +0.159 HD
ATOM      7  H   UNL     1      11.115   6.337   1.198  0.00  0.00    +0.159 HD
ATOM      8  H   UNL     1      10.874   8.211   4.831  0.00  0.00    +0.159 HD
ATOM      9  H   UNL     1       9.800   8.616   3.550  0.00  0.00    +0.159 HD
ENDROOT
BRANCH   1  10
ATOM     10  C   UNL     1      12.797   6.509   4.839  0.00  0.00    +0.151 C 
BRANCH  10  11
ATOM     11  C   UNL     1      12.403   5.319   5.671  0.00  0.00    -0.028 A 
ATOM     12  C   UNL     1      11.191   5.314   6.377  0.00  0.00    +0.005 A 
ATOM     13  C   UNL     1      13.235   4.192   5.753  0.00  0.00    +0.005 A 
ATOM     14  C   UNL     1      10.811   4.198   7.126  0.00  0.00    +0.000 A 
ATOM     15  C   UNL     1      12.852   3.080   6.502  0.00  0.00    +0.000 A 
ATOM     16  C   UNL     1      11.639   3.082   7.187  0.00  0.00    +0.000 A 
ENDBRANCH  10  11
ENDBRANCH   1  10
TORSDOF 2
ENDMDL
MODEL 6
REMARK VINA RESULT:    -4.826     20.865     22.648
REMARK INTER + INTRA:          -5.519
REMARK INTER:                  -5.402
REMARK INTRA:                  -0.117
REMARK UNBOUND:                -0.130
REMARK  Name = 1550473
REMARK  2 active torsions:
REMARK  status: ('A' for Active; 'I' for Inactive)
REMARK    1  A    between atoms: N_1  and  C_4
REMARK    2  A    between atoms: C_4  and  C_5
REMARK                            x       y       z     vdW  Elec       q    Type
REMARK                         _______ _______ _______ _____ _____    ______ ____
ROOT
ATOM      1  N   UNL     1      11.250   7.517   1.435  0.00  0.00    -0.354 N 
ATOM      2  N   UNL     1      11.037   7.129  -0.838  0.00  0.00    -0.372 N 
ATOM      3  N   UNL     1       9.675   8.687   0.153  0.00  0.00    -0.372 N 
ATOM      4  C   UNL     1      10.653   7.782   0.265  0.00  0.00    +0.166 C 
ATOM      5  H   UNL     1      11.964   6.798   1.459  0.00  0.00    +0.163 HD
ATOM      6  H   UNL     1      10.608   7.310  -1.736  0.00  0.00    +0.159 HD
ATOM      7  H   UNL     1      11.783   6.444  -0.820  0.00  0.00    +0.159 HD
ATOM      8  H   UNL     1       9.336   9.210   0.950  0.00  0.00    +0.159 HD
ATOM      9  H   UNL     1       9.225   8.874  -0.734  0.00  0.00    +0.159 HD
ENDROOT
BRANCH   1  10
ATOM     10  C   UNL     1      10.943   8.211   2.685  0.00  0.00    +0.151 C 
BRANCH  10  11
ATOM     11  C   UNL     1      11.163   7.268   3.836  0.00  0.00    -0.028 A 
ATOM     12  C   UNL     1      12.206   6.332   3.801  0.00  0.00    +0.005 A 
ATOM     13  C   UNL     1      10.334   7.311   4.968  0.00  0.00    +0.005 A 
ATOM     14  C   UNL     1      12.429   5.476   4.883  0.00  0.00    +0.000 A 
ATOM     15  C   UNL     1      10.559   6.455   6.046  0.00  0.00    +0.000 A 
ATOM     16  C   UNL     1      11.608   5.539   6.004  0.00  0.00    +0.000 A 
ENDBRANCH  10  11
ENDBRANCH   1  10
TORSDOF 2
ENDMDL
MODEL 7
REMARK VINA RESULT:    -4.736     15.631     16.213
REMARK INTER + INTRA:          -5.419
REMARK INTER:                  -5.307
REMARK INTRA:                  -0.112
REMARK UNBOUND:                -0.130
REMARK  Name = 1550473
REMARK  2 active torsions:
REMARK  status: ('A' for Active; 'I' for Inactive)
REMARK    1  A    between atoms: N_1  and  C_4
REMARK    2  A    between atoms: C_4  and  C_5
REMARK                            x       y       z     vdW  Elec       q    Type
REMARK                         _______ _______ _______ _____ _____    ______ ____
ROOT
ATOM      1  N   UNL     1      -5.619 -12.564  -2.503  0.00  0.00    -0.354 N 
ATOM      2  N   UNL     1      -7.064 -11.609  -0.965  0.00  0.00    -0.372 N 
ATOM      3  N   UNL     1      -6.922 -13.896  -1.082  0.00  0.00    -0.372 N 
ATOM      4  C   UNL     1      -6.526 -12.699  -1.526  0.00  0.00    +0.166 C 
ATOM      5  H   UNL     1      -5.383 -11.629  -2.816  0.00  0.00    +0.163 HD
ATOM      6  H   UNL     1      -7.748 -11.679  -0.224  0.00  0.00    +0.159 HD
ATOM      7  H   UNL     1      -6.792 -10.675  -1.248  0.00  0.00    +0.159 HD
ATOM      8  H   UNL     1      -6.559 -14.757  -1.467  0.00  0.00    +0.159 HD
ATOM      9  H   UNL     1      -7.615 -13.987  -0.349  0.00  0.00    +0.159 HD
ENDROOT
BRANCH   1  10
ATOM     10  C   UNL     1      -4.934 -13.686  -3.142  0.00  0.00    +0.151 C 
BRANCH  10  11
ATOM     11  C   UNL     1      -3.706 -13.176  -3.845  0.00  0.00    -0.028 A 
ATOM     12  C   UNL     1      -3.467 -13.503  -5.188  0.00  0.00    +0.005 A 
ATOM     13  C   UNL     1      -2.782 -12.359  -3.176  0.00  0.00    +0.005 A 
ATOM     14  C   UNL     1      -2.342 -13.005  -5.850  0.00  0.00    +0.000 A 
ATOM     15  C   UNL     1      -1.660 -11.864  -3.841  0.00  0.00    +0.000 A 
ATOM     16  C   UNL     1      -1.442 -12.185  -5.178  0.00  0.00    +0.000 A 
ENDBRANCH  10  11
ENDBRANCH   1  10
TORSDOF 2
ENDMDL
MODEL 8
REMARK VINA RESULT:    -4.720     21.995     23.373
REMARK INTER + INTRA:          -5.401
REMARK INTER:                  -5.275
REMARK INTRA:                  -0.126
REMARK UNBOUND:                -0.130
REMARK  Name = 1550473
REMARK  2 active torsions:
REMARK  status: ('A' for Active; 'I' for Inactive)
REMARK    1  A    between atoms: N_1  and  C_4
REMARK    2  A    between atoms: C_4  and  C_5
REMARK                            x       y       z     vdW  Elec       q    Type
REMARK                         _______ _______ _______ _____ _____    ______ ____
ROOT
ATOM      1  N   UNL     1      12.609   3.951 -21.373  0.00  0.00    -0.354 N 
ATOM      2  N   UNL     1      14.024   2.156 -21.743  0.00  0.00    -0.372 N 
ATOM      3  N   UNL     1      11.912   1.756 -20.941  0.00  0.00    -0.372 N 
ATOM      4  C   UNL     1      12.837   2.632 -21.348  0.00  0.00    +0.166 C 
ATOM      5  H   UNL     1      13.361   4.565 -21.664  0.00  0.00    +0.163 HD
ATOM      6  H   UNL     1      14.224   1.165 -21.739  0.00  0.00    +0.159 HD
ATOM      7  H   UNL     1      14.759   2.768 -22.077  0.00  0.00    +0.159 HD
ATOM      8  H   UNL     1      10.998   2.051 -20.625  0.00  0.00    +0.159 HD
ATOM      9  H   UNL     1      12.097   0.761 -20.918  0.00  0.00    +0.159 HD
ENDROOT
BRANCH   1  10
ATOM     10  C   UNL     1      11.332   4.567 -21.015  0.00  0.00    +0.151 C 
BRANCH  10  11
ATOM     11  C   UNL     1      11.574   5.640 -19.989  0.00  0.00    -0.028 A 
ATOM     12  C   UNL     1      10.885   5.625 -18.768  0.00  0.00    +0.005 A 
ATOM     13  C   UNL     1      12.497   6.669 -20.229  0.00  0.00    +0.005 A 
ATOM     14  C   UNL     1      11.132   6.604 -17.802  0.00  0.00    +0.000 A 
ATOM     15  C   UNL     1      12.740   7.645 -19.263  0.00  0.00    +0.000 A 
ATOM     16  C   UNL     1      12.059   7.611 -18.048  0.00  0.00    +0.000 A 
ENDBRANCH  10  11
ENDBRANCH   1  10
TORSDOF 2
ENDMDL
MODEL 9
REMARK VINA RESULT:    -4.648      3.614      5.395
REMARK INTER + INTRA:          -5.321
REMARK INTER:                  -5.217
REMARK INTRA:                  -0.104
REMARK UNBOUND:                -0.130
REMARK  Name = 1550473
REMARK  2 active torsions:
REMARK  status: ('A' for Active; 'I' for Inactive)
REMARK    1  A    between atoms: N_1  and  C_4
REMARK    2  A    between atoms: C_4  and  C_5
REMARK                            x       y       z     vdW  Elec       q    Type
REMARK                         _______ _______ _______ _____ _____    ______ ____
ROOT
ATOM      1  N   UNL     1      -9.621  -0.437  -9.728  0.00  0.00    -0.354 N 
ATOM      2  N   UNL     1     -11.675  -1.467  -9.437  0.00  0.00    -0.372 N 
ATOM      3  N   UNL     1     -11.017  -0.886 -11.557  0.00  0.00    -0.372 N 
ATOM      4  C   UNL     1     -10.758  -0.923 -10.245  0.00  0.00    +0.166 C 
ATOM      5  H   UNL     1      -9.498  -0.467  -8.723  0.00  0.00    +0.163 HD
ATOM      6  H   UNL     1     -12.540  -1.845  -9.798  0.00  0.00    +0.159 HD
ATOM      7  H   UNL     1     -11.529  -1.538  -8.437  0.00  0.00    +0.159 HD
ATOM      8  H   UNL     1     -10.368  -0.483 -12.220  0.00  0.00    +0.159 HD
ATOM      9  H   UNL     1     -11.883  -1.248 -11.936  0.00  0.00    +0.159 HD
ENDROOT
BRANCH   1  10
ATOM     10  C   UNL     1      -8.535   0.128 -10.528  0.00  0.00    +0.151 C 
BRANCH  10  11
ATOM     11  C   UNL     1      -7.748   1.087  -9.678  0.00  0.00    -0.028 A 
ATOM     12  C   UNL     1      -7.538   2.407 -10.103  0.00  0.00    +0.005 A 
ATOM     13  C   UNL     1      -7.213   0.683  -8.445  0.00  0.00    +0.005 A 
ATOM     14  C   UNL     1      -6.833   3.307  -9.301  0.00  0.00    +0.000 A 
ATOM     15  C   UNL     1      -6.508   1.585  -7.648  0.00  0.00    +0.000 A 
ATOM     16  C   UNL     1      -6.320   2.897  -8.074  0.00  0.00    +0.000 A 
ENDBRANCH  10  11
ENDBRANCH   1  10
TORSDOF 2
ENDMDL
