MODEL 1
REMARK VINA RESULT:    -5.508      0.000      0.000
REMARK INTER + INTRA:          -6.296
REMARK INTER:                  -6.152
REMARK INTRA:                  -0.144
REMARK UNBOUND:                -0.144
REMARK  Name = 1550473
REMARK  2 active torsions:
REMARK  status: ('A' for Active; 'I' for Inactive)
REMARK    1  A    between atoms: N_1  and  C_4
REMARK    2  A    between atoms: C_4  and  C_5
REMARK                            x       y       z     vdW  Elec       q    Type
REMARK                         _______ _______ _______ _____ _____    ______ ____
ROOT
ATOM      1  N   UNL     1       1.080   5.854   2.545  0.00  0.00    -0.354 N 
ATOM      2  N   UNL     1       1.347   4.218   0.928  0.00  0.00    -0.372 N 
ATOM      3  N   UNL     1      -0.688   5.259   1.128  0.00  0.00    -0.372 N 
ATOM      4  C   UNL     1       0.575   5.122   1.544  0.00  0.00    +0.166 C 
ATOM      5  H   UNL     1       2.037   5.681   2.833  0.00  0.00    +0.163 HD
ATOM      6  H   UNL     1       0.995   3.653   0.167  0.00  0.00    +0.159 HD
ATOM      7  H   UNL     1       2.317   4.080   1.187  0.00  0.00    +0.159 HD
ATOM      8  H   UNL     1      -1.324   5.919   1.555  0.00  0.00    +0.159 HD
ATOM      9  H   UNL     1      -1.062   4.694   0.375  0.00  0.00    +0.159 HD
ENDROOT
BRANCH   1  10
ATOM     10  C   UNL     1       0.340   6.902   3.246  0.00  0.00    +0.151 C 
BRANCH  10  11
ATOM     11  C   UNL     1       0.375   6.624   4.723  0.00  0.00    -0.028 A 
ATOM     12  C   UNL     1       1.344   5.766   5.264  0.00  0.00    +0.005 A 
ATOM     13  C   UNL     1      -0.554   7.221   5.589  0.00  0.00    +0.005 A 
ATOM     14  C   UNL     1       1.396   5.531   6.640  0.00  0.00    +0.000 A 
ATOM     15  C   UNL     1      -0.499   6.983   6.963  0.00  0.00    +0.000 A 
ATOM     16  C   UNL     1       0.478   6.140   7.488  0.00  0.00    +0.000 A 
ENDBRANCH  10  11
ENDBRANCH   1  10
TORSDOF 2
ENDMDL
MODEL 2
REMARK VINA RESULT:    -5.425     22.431     23.607
REMARK INTER + INTRA:          -6.204
REMARK INTER:                  -6.043
REMARK INTRA:                  -0.161
REMARK UNBOUND:                -0.144
REMARK  Name = 1550473
REMARK  2 active torsions:
REMARK  status: ('A' for Active; 'I' for Inactive)
REMARK    1  A    between atoms: N_1  and  C_4
REMARK    2  A    between atoms: C_4  and  C_5
REMARK                            x       y       z     vdW  Elec       q    Type
REMARK                         _______ _______ _______ _____ _____    ______ ____
ROOT
ATOM      1  N   UNL     1       0.447  -0.015 -18.212  0.00  0.00    -0.354 N 
ATOM      2  N   UNL     1       2.294   1.225 -18.856  0.00  0.00    -0.372 N 
ATOM      3  N   UNL     1       0.898   2.071 -17.243  0.00  0.00    -0.372 N 
ATOM      4  C   UNL     1       1.200   1.087 -18.098  0.00  0.00    +0.166 C 
ATOM      5  H   UNL     1       0.713  -0.710 -18.900  0.00  0.00    +0.163 HD
ATOM      6  H   UNL     1       2.883   2.045 -18.790  0.00  0.00    +0.159 HD
ATOM      7  H   UNL     1       2.583   0.508 -19.510  0.00  0.00    +0.159 HD
ATOM      8  H   UNL     1       0.082   2.030 -16.647  0.00  0.00    +0.159 HD
ATOM      9  H   UNL     1       1.468   2.904 -17.171  0.00  0.00    +0.159 HD
ENDROOT
BRANCH   1  10
ATOM     10  C   UNL     1      -0.734  -0.287 -17.395  0.00  0.00    +0.151 C 
BRANCH  10  11
ATOM     11  C   UNL     1      -1.957   0.201 -18.121  0.00  0.00    -0.028 A 
ATOM     12  C   UNL     1      -2.919   0.975 -17.456  0.00  0.00    +0.005 A 
ATOM     13  C   UNL     1      -2.157  -0.101 -19.477  0.00  0.00    +0.005 A 
ATOM     14  C   UNL     1      -4.040   1.454 -18.138  0.00  0.00    +0.000 A 
ATOM     15  C   UNL     1      -3.278   0.378 -20.154  0.00  0.00    +0.000 A 
ATOM     16  C   UNL     1      -4.218   1.158 -19.485  0.00  0.00    +0.000 A 
ENDBRANCH  10  11
ENDBRANCH   1  10
TORSDOF 2
ENDMDL
MODEL 3
REMARK VINA RESULT:    -5.141     22.939     25.170
REMARK INTER + INTRA:          -5.886
REMARK INTER:                  -5.771
REMARK INTRA:                  -0.115
REMARK UNBOUND:                -0.144
REMARK  Name = 1550473
REMARK  2 active torsions:
REMARK  status: ('A' for Active; 'I' for Inactive)
REMARK    1  A    between atoms: N_1  and  C_4
REMARK    2  A    between atoms: C_4  and  C_5
REMARK                            x       y       z     vdW  Elec       q    Type
REMARK                         _______ _______ _______ _____ _____    ______ ____
ROOT
ATOM      1  N   UNL     1      -0.838   0.165 -19.127  0.00  0.00    -0.354 N 
ATOM      2  N   UNL     1       1.249   0.471 -18.172  0.00  0.00    -0.372 N 
ATOM      3  N   UNL     1      -0.439  -0.406 -16.889  0.00  0.00    -0.372 N 
ATOM      4  C   UNL     1      -0.025   0.074 -18.067  0.00  0.00    +0.166 C 
ATOM      5  H   UNL     1      -0.471   0.565 -19.983  0.00  0.00    +0.163 HD
ATOM      6  H   UNL     1       1.888   0.411 -17.390  0.00  0.00    +0.159 HD
ATOM      7  H   UNL     1       1.626   0.828 -19.041  0.00  0.00    +0.159 HD
ATOM      8  H   UNL     1      -1.390  -0.717 -16.743  0.00  0.00    +0.159 HD
ATOM      9  H   UNL     1       0.181  -0.463 -16.092  0.00  0.00    +0.159 HD
ENDROOT
BRANCH   1  10
ATOM     10  C   UNL     1      -2.228  -0.290 -19.133  0.00  0.00    +0.151 C 
BRANCH  10  11
ATOM     11  C   UNL     1      -2.989   0.470 -20.183  0.00  0.00    -0.028 A 
ATOM     12  C   UNL     1      -2.369   0.838 -21.386  0.00  0.00    +0.005 A 
ATOM     13  C   UNL     1      -4.333   0.822 -19.983  0.00  0.00    +0.005 A 
ATOM     14  C   UNL     1      -3.085   1.518 -22.375  0.00  0.00    +0.000 A 
ATOM     15  C   UNL     1      -5.044   1.502 -20.972  0.00  0.00    +0.000 A 
ATOM     16  C   UNL     1      -4.420   1.848 -22.168  0.00  0.00    +0.000 A 
ENDBRANCH  10  11
ENDBRANCH   1  10
TORSDOF 2
ENDMDL
MODEL 4
REMARK VINA RESULT:    -5.103     20.771     21.915
REMARK INTER + INTRA:          -5.844
REMARK INTER:                  -5.695
REMARK INTRA:                  -0.149
REMARK UNBOUND:                -0.144
REMARK  Name = 1550473
REMARK  2 active torsions:
REMARK  status: ('A' for Active; 'I' for Inactive)
REMARK    1  A    between atoms: N_1  and  C_4
REMARK    2  A    between atoms: C_4  and  C_5
REMARK                            x       y       z     vdW  Elec       q    Type
REMARK                         _______ _______ _______ _____ _____    ______ ____
ROOT
ATOM      1  N   UNL     1      -3.649 -10.964 -10.462  0.00  0.00    -0.354 N 
ATOM      2  N   UNL     1      -5.725  -9.963 -10.687  0.00  0.00    -0.372 N 
ATOM      3  N   UNL     1      -4.161  -9.655 -12.337  0.00  0.00    -0.372 N 
ATOM      4  C   UNL     1      -4.497 -10.199 -11.163  0.00  0.00    +0.166 C 
ATOM      5  H   UNL     1      -3.954 -11.322  -9.564  0.00  0.00    +0.163 HD
ATOM      6  H   UNL     1      -6.388  -9.393 -11.196  0.00  0.00    +0.159 HD
ATOM      7  H   UNL     1      -6.044 -10.360  -9.812  0.00  0.00    +0.159 HD
ATOM      8  H   UNL     1      -3.247  -9.790 -12.748  0.00  0.00    +0.159 HD
ATOM      9  H   UNL     1      -4.806  -9.072 -12.855  0.00  0.00    +0.159 HD
ENDROOT
BRANCH   1  10
ATOM     10  C   UNL     1      -2.308 -11.326 -10.916  0.00  0.00    +0.151 C 
BRANCH  10  11
ATOM     11  C   UNL     1      -1.294 -10.743  -9.971  0.00  0.00    -0.028 A 
ATOM     12  C   UNL     1      -0.045 -10.315 -10.442  0.00  0.00    +0.005 A 
ATOM     13  C   UNL     1      -1.580 -10.611  -8.603  0.00  0.00    +0.005 A 
ATOM     14  C   UNL     1       0.886  -9.745  -9.569  0.00  0.00    +0.000 A 
ATOM     15  C   UNL     1      -0.648 -10.043  -7.735  0.00  0.00    +0.000 A 
ATOM     16  C   UNL     1       0.583  -9.608  -8.218  0.00  0.00    +0.000 A 
ENDBRANCH  10  11
ENDBRANCH   1  10
TORSDOF 2
ENDMDL
MODEL 5
REMARK VINA RESULT:    -5.051      1.332      2.069
REMARK INTER + INTRA:          -5.785
REMARK INTER:                  -5.658
REMARK INTRA:                  -0.128
REMARK UNBOUND:                -0.144
REMARK  Name = 1550473
REMARK  2 active torsions:
REMARK  status: ('A' for Active; 'I' for Inactive)
REMARK    1  A    between atoms: N_1  and  C_4
REMARK    2  A    between atoms: C_4  and  C_5
REMARK                            x       y       z     vdW  Elec       q    Type
REMARK                         _______ _______ _______ _____ _____    ______ ____
ROOT
ATOM      1  N   UNL     1       0.644   6.500   3.451  0.00  0.00    -0.354 N 
ATOM      2  N   UNL     1       1.064   5.121   1.639  0.00  0.00    -0.372 N 
ATOM      3  N   UNL     1      -0.386   4.403   3.265  0.00  0.00    -0.372 N 
ATOM      4  C   UNL     1       0.436   5.349   2.799  0.00  0.00    +0.166 C 
ATOM      5  H   UNL     1       1.303   7.163   3.060  0.00  0.00    +0.163 HD
ATOM      6  H   UNL     1       0.924   4.263   1.122  0.00  0.00    +0.159 HD
ATOM      7  H   UNL     1       1.687   5.805   1.227  0.00  0.00    +0.159 HD
ATOM      8  H   UNL     1      -0.886   4.512   4.138  0.00  0.00    +0.159 HD
ATOM      9  H   UNL     1      -0.530   3.533   2.768  0.00  0.00    +0.159 HD
ENDROOT
BRANCH   1  10
ATOM     10  C   UNL     1      -0.031   6.869   4.694  0.00  0.00    +0.151 C 
BRANCH  10  11
ATOM     11  C   UNL     1       0.848   6.503   5.858  0.00  0.00    -0.028 A 
ATOM     12  C   UNL     1       0.285   6.174   7.100  0.00  0.00    +0.005 A 
ATOM     13  C   UNL     1       2.245   6.479   5.724  0.00  0.00    +0.005 A 
ATOM     14  C   UNL     1       1.100   5.805   8.173  0.00  0.00    +0.000 A 
ATOM     15  C   UNL     1       3.055   6.111   6.798  0.00  0.00    +0.000 A 
ATOM     16  C   UNL     1       2.482   5.772   8.022  0.00  0.00    +0.000 A 
ENDBRANCH  10  11
ENDBRANCH   1  10
TORSDOF 2
ENDMDL
MODEL 6
REMARK VINA RESULT:    -5.025     25.189     25.752
REMARK INTER + INTRA:          -5.757
REMARK INTER:                  -5.665
REMARK INTRA:                  -0.091
REMARK UNBOUND:                -0.144
REMARK  Name = 1550473
REMARK  2 active torsions:
REMARK  status: ('A' for Active; 'I' for Inactive)
REMARK    1  A    between atoms: N_1  and  C_4
REMARK    2  A    between atoms: C_4  and  C_5
REMARK                            x       y       z     vdW  Elec       q    Type
REMARK                         _______ _______ _______ _____ _____    ______ ____
ROOT
ATOM      1  N   UNL     1      -6.595 -15.794  17.652  0.00  0.00    -0.354 N 
ATOM      2  N   UNL     1      -7.747 -17.798  17.508  0.00  0.00    -0.372 N 
ATOM      3  N   UNL     1      -8.365 -16.063  16.139  0.00  0.00    -0.372 N 
ATOM      4  C   UNL     1      -7.563 -16.537  17.099  0.00  0.00    +0.166 C 
ATOM      5  H   UNL     1      -6.041 -16.202  18.396  0.00  0.00    +0.163 HD
ATOM      6  H   UNL     1      -8.468 -18.383  17.107  0.00  0.00    +0.159 HD
ATOM      7  H   UNL     1      -7.162 -18.218  18.220  0.00  0.00    +0.159 HD
ATOM      8  H   UNL     1      -8.281 -15.117  15.790  0.00  0.00    +0.159 HD
ATOM      9  H   UNL     1      -9.099 -16.630  15.734  0.00  0.00    +0.159 HD
ENDROOT
BRANCH   1  10
ATOM     10  C   UNL     1      -6.277 -14.428  17.240  0.00  0.00    +0.151 C 
BRANCH  10  11
ATOM     11  C   UNL     1      -5.145 -13.911  18.085  0.00  0.00    -0.028 A 
ATOM     12  C   UNL     1      -5.404 -13.148  19.233  0.00  0.00    +0.005 A 
ATOM     13  C   UNL     1      -3.811 -14.186  17.745  0.00  0.00    +0.005 A 
ATOM     14  C   UNL     1      -4.354 -12.694  20.034  0.00  0.00    +0.000 A 
ATOM     15  C   UNL     1      -2.766 -13.730  18.548  0.00  0.00    +0.000 A 
ATOM     16  C   UNL     1      -3.037 -12.986  19.693  0.00  0.00    +0.000 A 
ENDBRANCH  10  11
ENDBRANCH   1  10
TORSDOF 2
ENDMDL
MODEL 7
REMARK VINA RESULT:    -4.892     21.531     22.522
REMARK INTER + INTRA:          -5.608
REMARK INTER:                  -5.442
REMARK INTRA:                  -0.166
REMARK UNBOUND:                -0.144
REMARK  Name = 1550473
REMARK  2 active torsions:
REMARK  status: ('A' for Active; 'I' for Inactive)
REMARK    1  A    between atoms: N_1  and  C_4
REMARK    2  A    between atoms: C_4  and  C_5
REMARK                            x       y       z     vdW  Elec       q    Type
REMARK                         _______ _______ _______ _____ _____    ______ ____
ROOT
ATOM      1  N   UNL     1      -6.790 -11.335  -9.281  0.00  0.00    -0.354 N 
ATOM      2  N   UNL     1      -5.610  -9.940 -10.704  0.00  0.00    -0.372 N 
ATOM      3  N   UNL     1      -4.821 -12.062 -10.324  0.00  0.00    -0.372 N 
ATOM      4  C   UNL     1      -5.746 -11.124 -10.094  0.00  0.00    +0.166 C 
ATOM      5  H   UNL     1      -7.440 -10.573  -9.124  0.00  0.00    +0.163 HD
ATOM      6  H   UNL     1      -4.834  -9.753 -11.325  0.00  0.00    +0.159 HD
ATOM      7  H   UNL     1      -6.286  -9.196 -10.581  0.00  0.00    +0.159 HD
ATOM      8  H   UNL     1      -4.864 -12.974  -9.889  0.00  0.00    +0.159 HD
ATOM      9  H   UNL     1      -4.032 -11.889 -10.933  0.00  0.00    +0.159 HD
ENDROOT
BRANCH   1  10
ATOM     10  C   UNL     1      -7.061 -12.606  -8.611  0.00  0.00    +0.151 C 
BRANCH  10  11
ATOM     11  C   UNL     1      -6.637 -12.502  -7.172  0.00  0.00    -0.028 A 
ATOM     12  C   UNL     1      -5.317 -12.787  -6.795  0.00  0.00    +0.005 A 
ATOM     13  C   UNL     1      -7.551 -12.112  -6.180  0.00  0.00    +0.005 A 
ATOM     14  C   UNL     1      -4.915 -12.662  -5.463  0.00  0.00    +0.000 A 
ATOM     15  C   UNL     1      -7.146 -11.989  -4.851  0.00  0.00    +0.000 A 
ATOM     16  C   UNL     1      -5.828 -12.261  -4.493  0.00  0.00    +0.000 A 
ENDBRANCH  10  11
ENDBRANCH   1  10
TORSDOF 2
ENDMDL
MODEL 8
REMARK VINA RESULT:    -4.869     19.617     20.870
REMARK INTER + INTRA:          -5.583
REMARK INTER:                  -5.485
REMARK INTRA:                  -0.098
REMARK UNBOUND:                -0.144
REMARK  Name = 1550473
REMARK  2 active torsions:
REMARK  status: ('A' for Active; 'I' for Inactive)
REMARK    1  A    between atoms: N_1  and  C_4
REMARK    2  A    between atoms: C_4  and  C_5
REMARK                            x       y       z     vdW  Elec       q    Type
REMARK                         _______ _______ _______ _____ _____    ______ ____
ROOT
ATOM      1  N   UNL     1       9.049 -11.990  -3.672  0.00  0.00    -0.354 N 
ATOM      2  N   UNL     1      11.062 -13.132  -3.580  0.00  0.00    -0.372 N 
ATOM      3  N   UNL     1      11.035 -10.999  -4.425  0.00  0.00    -0.372 N 
ATOM      4  C   UNL     1      10.370 -12.031  -3.894  0.00  0.00    +0.166 C 
ATOM      5  H   UNL     1       8.599 -12.817  -3.295  0.00  0.00    +0.163 HD
ATOM      6  H   UNL     1      12.060 -13.190  -3.733  0.00  0.00    +0.159 HD
ATOM      7  H   UNL     1      10.617 -13.940  -3.161  0.00  0.00    +0.159 HD
ATOM      8  H   UNL     1      10.569 -10.141  -4.690  0.00  0.00    +0.159 HD
ATOM      9  H   UNL     1      12.031 -11.043  -4.596  0.00  0.00    +0.159 HD
ENDROOT
BRANCH   1  10
ATOM     10  C   UNL     1       8.212 -10.820  -3.929  0.00  0.00    +0.151 C 
BRANCH  10  11
ATOM     11  C   UNL     1       6.767 -11.205  -3.771  0.00  0.00    -0.028 A 
ATOM     12  C   UNL     1       5.998 -10.671  -2.727  0.00  0.00    +0.005 A 
ATOM     13  C   UNL     1       6.159 -12.099  -4.666  0.00  0.00    +0.005 A 
ATOM     14  C   UNL     1       4.648 -11.005  -2.597  0.00  0.00    +0.000 A 
ATOM     15  C   UNL     1       4.811 -12.430  -4.533  0.00  0.00    +0.000 A 
ATOM     16  C   UNL     1       4.055 -11.882  -3.500  0.00  0.00    +0.000 A 
ENDBRANCH  10  11
ENDBRANCH   1  10
TORSDOF 2
ENDMDL
MODEL 9
REMARK VINA RESULT:    -4.746     22.693     23.963
REMARK INTER + INTRA:          -5.445
REMARK INTER:                  -5.306
REMARK INTRA:                  -0.139
REMARK UNBOUND:                -0.144
REMARK  Name = 1550473
REMARK  2 active torsions:
REMARK  status: ('A' for Active; 'I' for Inactive)
REMARK    1  A    between atoms: N_1  and  C_4
REMARK    2  A    between atoms: C_4  and  C_5
REMARK                            x       y       z     vdW  Elec       q    Type
REMARK                         _______ _______ _______ _____ _____    ______ ____
ROOT
ATOM      1  N   UNL     1      -4.093   1.978 -19.277  0.00  0.00    -0.354 N 
ATOM      2  N   UNL     1      -4.582   4.060 -20.166  0.00  0.00    -0.372 N 
ATOM      3  N   UNL     1      -3.951   2.370 -21.584  0.00  0.00    -0.372 N 
ATOM      4  C   UNL     1      -4.205   2.788 -20.339  0.00  0.00    +0.166 C 
ATOM      5  H   UNL     1      -4.271   2.364 -18.357  0.00  0.00    +0.163 HD
ATOM      6  H   UNL     1      -4.678   4.694 -20.948  0.00  0.00    +0.159 HD
ATOM      7  H   UNL     1      -4.803   4.431 -19.250  0.00  0.00    +0.159 HD
ATOM      8  H   UNL     1      -3.656   1.423 -21.781  0.00  0.00    +0.159 HD
ATOM      9  H   UNL     1      -4.030   2.992 -22.378  0.00  0.00    +0.159 HD
ENDROOT
BRANCH   1  10
ATOM     10  C   UNL     1      -3.741   0.562 -19.363  0.00  0.00    +0.151 C 
BRANCH  10  11
ATOM     11  C   UNL     1      -2.486   0.319 -18.571  0.00  0.00    -0.028 A 
ATOM     12  C   UNL     1      -1.939  -0.969 -18.482  0.00  0.00    +0.005 A 
ATOM     13  C   UNL     1      -1.836   1.374 -17.913  0.00  0.00    +0.005 A 
ATOM     14  C   UNL     1      -0.756  -1.190 -17.771  0.00  0.00    +0.000 A 
ATOM     15  C   UNL     1      -0.656   1.150 -17.204  0.00  0.00    +0.000 A 
ATOM     16  C   UNL     1      -0.115  -0.132 -17.135  0.00  0.00    +0.000 A 
ENDBRANCH  10  11
ENDBRANCH   1  10
TORSDOF 2
ENDMDL
