MODEL 1
REMARK VINA RESULT:    -5.269      0.000      0.000
REMARK INTER + INTRA:          -6.001
REMARK INTER:                  -5.885
REMARK INTRA:                  -0.116
REMARK UNBOUND:                -0.116
REMARK  Name = 1550473
REMARK  2 active torsions:
REMARK  status: ('A' for Active; 'I' for Inactive)
REMARK    1  A    between atoms: N_1  and  C_4
REMARK    2  A    between atoms: C_4  and  C_5
REMARK                            x       y       z     vdW  Elec       q    Type
REMARK                         _______ _______ _______ _____ _____    ______ ____
ROOT
ATOM      1  N   UNL     1       2.238   1.795   1.220  0.00  0.00    -0.354 N 
ATOM      2  N   UNL     1       1.977   2.387   3.444  0.00  0.00    -0.372 N 
ATOM      3  N   UNL     1       2.078   4.044   1.860  0.00  0.00    -0.372 N 
ATOM      4  C   UNL     1       2.100   2.740   2.159  0.00  0.00    +0.166 C 
ATOM      5  H   UNL     1       2.277   0.826   1.515  0.00  0.00    +0.163 HD
ATOM      6  H   UNL     1       1.868   3.078   4.174  0.00  0.00    +0.159 HD
ATOM      7  H   UNL     1       1.970   1.415   3.731  0.00  0.00    +0.159 HD
ATOM      8  H   UNL     1       2.172   4.377   0.909  0.00  0.00    +0.159 HD
ATOM      9  H   UNL     1       1.982   4.751   2.578  0.00  0.00    +0.159 HD
ENDROOT
BRANCH   1  10
ATOM     10  C   UNL     1       2.325   2.072  -0.213  0.00  0.00    +0.151 C 
BRANCH  10  11
ATOM     11  C   UNL     1       2.601   0.788  -0.945  0.00  0.00    -0.028 A 
ATOM     12  C   UNL     1       3.385  -0.214  -0.355  0.00  0.00    +0.005 A 
ATOM     13  C   UNL     1       2.076   0.564  -2.228  0.00  0.00    +0.005 A 
ATOM     14  C   UNL     1       3.617  -1.419  -1.023  0.00  0.00    +0.000 A 
ATOM     15  C   UNL     1       2.310  -0.640  -2.891  0.00  0.00    +0.000 A 
ATOM     16  C   UNL     1       3.079  -1.632  -2.288  0.00  0.00    +0.000 A 
ENDBRANCH  10  11
ENDBRANCH   1  10
TORSDOF 2
ENDMDL
MODEL 2
REMARK VINA RESULT:    -4.995      5.594      7.178
REMARK INTER + INTRA:          -5.696
REMARK INTER:                  -5.545
REMARK INTRA:                  -0.151
REMARK UNBOUND:                -0.116
REMARK  Name = 1550473
REMARK  2 active torsions:
REMARK  status: ('A' for Active; 'I' for Inactive)
REMARK    1  A    between atoms: N_1  and  C_4
REMARK    2  A    between atoms: C_4  and  C_5
REMARK                            x       y       z     vdW  Elec       q    Type
REMARK                         _______ _______ _______ _____ _____    ______ ____
ROOT
ATOM      1  N   UNL     1       6.945  -3.453  -3.609  0.00  0.00    -0.354 N 
ATOM      2  N   UNL     1       9.111  -2.991  -4.285  0.00  0.00    -0.372 N 
ATOM      3  N   UNL     1       7.364  -2.213  -5.553  0.00  0.00    -0.372 N 
ATOM      4  C   UNL     1       7.791  -2.888  -4.480  0.00  0.00    +0.166 C 
ATOM      5  H   UNL     1       7.333  -3.976  -2.832  0.00  0.00    +0.163 HD
ATOM      6  H   UNL     1       9.774  -2.572  -4.924  0.00  0.00    +0.159 HD
ATOM      7  H   UNL     1       9.495  -3.475  -3.483  0.00  0.00    +0.159 HD
ATOM      8  H   UNL     1       6.380  -2.104  -5.760  0.00  0.00    +0.159 HD
ATOM      9  H   UNL     1       8.012  -1.797  -6.210  0.00  0.00    +0.159 HD
ENDROOT
BRANCH   1  10
ATOM     10  C   UNL     1       5.490  -3.353  -3.700  0.00  0.00    +0.151 C 
BRANCH  10  11
ATOM     11  C   UNL     1       4.978  -2.556  -2.532  0.00  0.00    -0.028 A 
ATOM     12  C   UNL     1       3.708  -1.962  -2.577  0.00  0.00    +0.005 A 
ATOM     13  C   UNL     1       5.755  -2.396  -1.375  0.00  0.00    +0.005 A 
ATOM     14  C   UNL     1       3.220  -1.247  -1.481  0.00  0.00    +0.000 A 
ATOM     15  C   UNL     1       5.264  -1.681  -0.282  0.00  0.00    +0.000 A 
ATOM     16  C   UNL     1       3.996  -1.109  -0.335  0.00  0.00    +0.000 A 
ENDBRANCH  10  11
ENDBRANCH   1  10
TORSDOF 2
ENDMDL
MODEL 3
REMARK VINA RESULT:    -4.869      5.546      7.016
REMARK INTER + INTRA:          -5.554
REMARK INTER:                  -5.400
REMARK INTRA:                  -0.155
REMARK UNBOUND:                -0.116
REMARK  Name = 1550473
REMARK  2 active torsions:
REMARK  status: ('A' for Active; 'I' for Inactive)
REMARK    1  A    between atoms: N_1  and  C_4
REMARK    2  A    between atoms: C_4  and  C_5
REMARK                            x       y       z     vdW  Elec       q    Type
REMARK                         _______ _______ _______ _____ _____    ______ ____
ROOT
ATOM      1  N   UNL     1       8.299  -3.343  -1.730  0.00  0.00    -0.354 N 
ATOM      2  N   UNL     1       9.965  -3.241  -3.335  0.00  0.00    -0.372 N 
ATOM      3  N   UNL     1       9.690  -1.466  -1.908  0.00  0.00    -0.372 N 
ATOM      4  C   UNL     1       9.307  -2.681  -2.313  0.00  0.00    +0.166 C 
ATOM      5  H   UNL     1       8.038  -4.249  -2.103  0.00  0.00    +0.163 HD
ATOM      6  H   UNL     1      10.732  -2.767  -3.792  0.00  0.00    +0.159 HD
ATOM      7  H   UNL     1       9.732  -4.166  -3.676  0.00  0.00    +0.159 HD
ATOM      8  H   UNL     1       9.230  -0.986  -1.145  0.00  0.00    +0.159 HD
ATOM      9  H   UNL     1      10.448  -0.970  -2.360  0.00  0.00    +0.159 HD
ENDROOT
BRANCH   1  10
ATOM     10  C   UNL     1       7.553  -2.845  -0.575  0.00  0.00    +0.151 C 
BRANCH  10  11
ATOM     11  C   UNL     1       6.152  -2.507  -1.004  0.00  0.00    -0.028 A 
ATOM     12  C   UNL     1       5.578  -3.133  -2.121  0.00  0.00    +0.005 A 
ATOM     13  C   UNL     1       5.390  -1.566  -0.295  0.00  0.00    +0.005 A 
ATOM     14  C   UNL     1       4.266  -2.842  -2.502  0.00  0.00    +0.000 A 
ATOM     15  C   UNL     1       4.081  -1.277  -0.679  0.00  0.00    +0.000 A 
ATOM     16  C   UNL     1       3.518  -1.917  -1.781  0.00  0.00    +0.000 A 
ENDBRANCH  10  11
ENDBRANCH   1  10
TORSDOF 2
ENDMDL
MODEL 4
REMARK VINA RESULT:    -4.861      2.207      3.557
REMARK INTER + INTRA:          -5.546
REMARK INTER:                  -5.423
REMARK INTRA:                  -0.123
REMARK UNBOUND:                -0.116
REMARK  Name = 1550473
REMARK  2 active torsions:
REMARK  status: ('A' for Active; 'I' for Inactive)
REMARK    1  A    between atoms: N_1  and  C_4
REMARK    2  A    between atoms: C_4  and  C_5
REMARK                            x       y       z     vdW  Elec       q    Type
REMARK                         _______ _______ _______ _____ _____    ______ ____
ROOT
ATOM      1  N   UNL     1       3.208   0.154  -0.518  0.00  0.00    -0.354 N 
ATOM      2  N   UNL     1       2.424   1.842   0.860  0.00  0.00    -0.372 N 
ATOM      3  N   UNL     1       1.515   1.609  -1.234  0.00  0.00    -0.372 N 
ATOM      4  C   UNL     1       2.386   1.192  -0.309  0.00  0.00    +0.166 C 
ATOM      5  H   UNL     1       3.866  -0.094   0.211  0.00  0.00    +0.163 HD
ATOM      6  H   UNL     1       1.814   2.627   1.049  0.00  0.00    +0.159 HD
ATOM      7  H   UNL     1       3.051   1.564   1.605  0.00  0.00    +0.159 HD
ATOM      8  H   UNL     1       1.441   1.164  -2.139  0.00  0.00    +0.159 HD
ATOM      9  H   UNL     1       0.904   2.399  -1.068  0.00  0.00    +0.159 HD
ENDROOT
BRANCH   1  10
ATOM     10  C   UNL     1       3.208  -0.655  -1.736  0.00  0.00    +0.151 C 
BRANCH  10  11
ATOM     11  C   UNL     1       4.342  -1.640  -1.670  0.00  0.00    -0.028 A 
ATOM     12  C   UNL     1       4.494  -2.619  -2.663  0.00  0.00    +0.005 A 
ATOM     13  C   UNL     1       5.273  -1.596  -0.620  0.00  0.00    +0.005 A 
ATOM     14  C   UNL     1       5.565  -3.515  -2.619  0.00  0.00    +0.000 A 
ATOM     15  C   UNL     1       6.340  -2.493  -0.579  0.00  0.00    +0.000 A 
ATOM     16  C   UNL     1       6.487  -3.451  -1.580  0.00  0.00    +0.000 A 
ENDBRANCH  10  11
ENDBRANCH   1  10
TORSDOF 2
ENDMDL
MODEL 5
REMARK VINA RESULT:    -4.800     24.829     26.016
REMARK INTER + INTRA:          -5.478
REMARK INTER:                  -5.341
REMARK INTRA:                  -0.136
REMARK UNBOUND:                -0.116
REMARK  Name = 1550473
REMARK  2 active torsions:
REMARK  status: ('A' for Active; 'I' for Inactive)
REMARK    1  A    between atoms: N_1  and  C_4
REMARK    2  A    between atoms: C_4  and  C_5
REMARK                            x       y       z     vdW  Elec       q    Type
REMARK                         _______ _______ _______ _____ _____    ______ ____
ROOT
ATOM      1  N   UNL     1      -1.346 -22.431  10.012  0.00  0.00    -0.354 N 
ATOM      2  N   UNL     1       0.884 -22.305   9.400  0.00  0.00    -0.372 N 
ATOM      3  N   UNL     1       0.332 -23.332  11.377  0.00  0.00    -0.372 N 
ATOM      4  C   UNL     1      -0.058 -22.691  10.270  0.00  0.00    +0.166 C 
ATOM      5  H   UNL     1      -1.574 -21.915   9.170  0.00  0.00    +0.163 HD
ATOM      6  H   UNL     1       1.864 -22.491   9.566  0.00  0.00    +0.159 HD
ATOM      7  H   UNL     1       0.650 -21.830   8.537  0.00  0.00    +0.159 HD
ATOM      8  H   UNL     1      -0.328 -23.644  12.076  0.00  0.00    +0.159 HD
ATOM      9  H   UNL     1       1.310 -23.516  11.566  0.00  0.00    +0.159 HD
ENDROOT
BRANCH   1  10
ATOM     10  C   UNL     1      -2.453 -22.856  10.867  0.00  0.00    +0.151 C 
BRANCH  10  11
ATOM     11  C   UNL     1      -3.312 -21.663  11.188  0.00  0.00    -0.028 A 
ATOM     12  C   UNL     1      -3.482 -20.636  10.249  0.00  0.00    +0.005 A 
ATOM     13  C   UNL     1      -3.962 -21.558  12.427  0.00  0.00    +0.005 A 
ATOM     14  C   UNL     1      -4.304 -19.543  10.534  0.00  0.00    +0.000 A 
ATOM     15  C   UNL     1      -4.781 -20.464  12.709  0.00  0.00    +0.000 A 
ATOM     16  C   UNL     1      -4.953 -19.458  11.761  0.00  0.00    +0.000 A 
ENDBRANCH  10  11
ENDBRANCH   1  10
TORSDOF 2
ENDMDL
MODEL 6
REMARK VINA RESULT:    -4.755     16.526     17.947
REMARK INTER + INTRA:          -5.427
REMARK INTER:                  -5.247
REMARK INTRA:                  -0.180
REMARK UNBOUND:                -0.116
REMARK  Name = 1550473
REMARK  2 active torsions:
REMARK  status: ('A' for Active; 'I' for Inactive)
REMARK    1  A    between atoms: N_1  and  C_4
REMARK    2  A    between atoms: C_4  and  C_5
REMARK                            x       y       z     vdW  Elec       q    Type
REMARK                         _______ _______ _______ _____ _____    ______ ____
ROOT
ATOM      1  N   UNL     1       8.473  -3.577  15.128  0.00  0.00    -0.354 N 
ATOM      2  N   UNL     1       8.711  -5.615  16.203  0.00  0.00    -0.372 N 
ATOM      3  N   UNL     1       6.681  -4.549  16.284  0.00  0.00    -0.372 N 
ATOM      4  C   UNL     1       7.951  -4.566  15.866  0.00  0.00    +0.166 C 
ATOM      5  H   UNL     1       9.451  -3.636  14.868  0.00  0.00    +0.163 HD
ATOM      6  H   UNL     1       8.344  -6.378  16.756  0.00  0.00    +0.159 HD
ATOM      7  H   UNL     1       9.676  -5.693  15.903  0.00  0.00    +0.159 HD
ATOM      8  H   UNL     1       6.057  -3.783  16.068  0.00  0.00    +0.159 HD
ATOM      9  H   UNL     1       6.299  -5.298  16.848  0.00  0.00    +0.159 HD
ENDROOT
BRANCH   1  10
ATOM     10  C   UNL     1       7.715  -2.417  14.662  0.00  0.00    +0.151 C 
BRANCH  10  11
ATOM     11  C   UNL     1       8.044  -1.235  15.530  0.00  0.00    -0.028 A 
ATOM     12  C   UNL     1       7.047  -0.618  16.301  0.00  0.00    +0.005 A 
ATOM     13  C   UNL     1       9.351  -0.729  15.591  0.00  0.00    +0.005 A 
ATOM     14  C   UNL     1       7.358   0.462  17.131  0.00  0.00    +0.000 A 
ATOM     15  C   UNL     1       9.658   0.350  16.421  0.00  0.00    +0.000 A 
ATOM     16  C   UNL     1       8.661   0.943  17.192  0.00  0.00    +0.000 A 
ENDBRANCH  10  11
ENDBRANCH   1  10
TORSDOF 2
ENDMDL
MODEL 7
REMARK VINA RESULT:    -4.672     18.386     19.110
REMARK INTER + INTRA:          -5.335
REMARK INTER:                  -5.188
REMARK INTRA:                  -0.148
REMARK UNBOUND:                -0.116
REMARK  Name = 1550473
REMARK  2 active torsions:
REMARK  status: ('A' for Active; 'I' for Inactive)
REMARK    1  A    between atoms: N_1  and  C_4
REMARK    2  A    between atoms: C_4  and  C_5
REMARK                            x       y       z     vdW  Elec       q    Type
REMARK                         _______ _______ _______ _____ _____    ______ ____
ROOT
ATOM      1  N   UNL     1      18.801   7.771  -1.936  0.00  0.00    -0.354 N 
ATOM      2  N   UNL     1      18.139   8.904  -3.845  0.00  0.00    -0.372 N 
ATOM      3  N   UNL     1      20.340   9.000  -3.205  0.00  0.00    -0.372 N 
ATOM      4  C   UNL     1      19.100   8.552  -2.983  0.00  0.00    +0.166 C 
ATOM      5  H   UNL     1      17.836   7.489  -1.806  0.00  0.00    +0.163 HD
ATOM      6  H   UNL     1      18.335   9.490  -4.645  0.00  0.00    +0.159 HD
ATOM      7  H   UNL     1      17.184   8.584  -3.738  0.00  0.00    +0.159 HD
ATOM      8  H   UNL     1      21.110   8.775  -2.589  0.00  0.00    +0.159 HD
ATOM      9  H   UNL     1      20.555   9.597  -3.995  0.00  0.00    +0.159 HD
ENDROOT
BRANCH   1  10
ATOM     10  C   UNL     1      19.784   7.286  -0.970  0.00  0.00    +0.151 C 
BRANCH  10  11
ATOM     11  C   UNL     1      19.662   8.086   0.298  0.00  0.00    -0.028 A 
ATOM     12  C   UNL     1      20.747   8.192   1.181  0.00  0.00    +0.005 A 
ATOM     13  C   UNL     1      18.465   8.744   0.621  0.00  0.00    +0.005 A 
ATOM     14  C   UNL     1      20.644   8.959   2.344  0.00  0.00    +0.000 A 
ATOM     15  C   UNL     1      18.366   9.508   1.783  0.00  0.00    +0.000 A 
ATOM     16  C   UNL     1      19.456   9.617   2.643  0.00  0.00    +0.000 A 
ENDBRANCH  10  11
ENDBRANCH   1  10
TORSDOF 2
ENDMDL
MODEL 8
REMARK VINA RESULT:    -4.661      3.395      4.812
REMARK INTER + INTRA:          -5.322
REMARK INTER:                  -5.191
REMARK INTRA:                  -0.132
REMARK UNBOUND:                -0.116
REMARK  Name = 1550473
REMARK  2 active torsions:
REMARK  status: ('A' for Active; 'I' for Inactive)
REMARK    1  A    between atoms: N_1  and  C_4
REMARK    2  A    between atoms: C_4  and  C_5
REMARK                            x       y       z     vdW  Elec       q    Type
REMARK                         _______ _______ _______ _____ _____    ______ ____
ROOT
ATOM      1  N   UNL     1       3.273   0.416  -2.343  0.00  0.00    -0.354 N 
ATOM      2  N   UNL     1       2.438   1.337  -4.297  0.00  0.00    -0.372 N 
ATOM      3  N   UNL     1       1.346  -0.450  -3.359  0.00  0.00    -0.372 N 
ATOM      4  C   UNL     1       2.356   0.426  -3.320  0.00  0.00    +0.166 C 
ATOM      5  H   UNL     1       4.031   1.087  -2.388  0.00  0.00    +0.163 HD
ATOM      6  H   UNL     1       1.758   1.371  -5.046  0.00  0.00    +0.159 HD
ATOM      7  H   UNL     1       3.170   2.036  -4.314  0.00  0.00    +0.159 HD
ATOM      8  H   UNL     1       1.231  -1.166  -2.654  0.00  0.00    +0.159 HD
ATOM      9  H   UNL     1       0.663  -0.439  -4.106  0.00  0.00    +0.159 HD
ENDROOT
BRANCH   1  10
ATOM     10  C   UNL     1       3.244  -0.500  -1.204  0.00  0.00    +0.151 C 
BRANCH  10  11
ATOM     11  C   UNL     1       4.315  -1.540  -1.383  0.00  0.00    -0.028 A 
ATOM     12  C   UNL     1       4.209  -2.506  -2.394  0.00  0.00    +0.005 A 
ATOM     13  C   UNL     1       5.442  -1.561  -0.547  0.00  0.00    +0.005 A 
ATOM     14  C   UNL     1       5.218  -3.453  -2.579  0.00  0.00    +0.000 A 
ATOM     15  C   UNL     1       6.448  -2.510  -0.735  0.00  0.00    +0.000 A 
ATOM     16  C   UNL     1       6.336  -3.454  -1.752  0.00  0.00    +0.000 A 
ENDBRANCH  10  11
ENDBRANCH   1  10
TORSDOF 2
ENDMDL
MODEL 9
REMARK VINA RESULT:    -4.537      2.914      4.909
REMARK INTER + INTRA:          -5.184
REMARK INTER:                  -5.021
REMARK INTRA:                  -0.163
REMARK UNBOUND:                -0.116
REMARK  Name = 1550473
REMARK  2 active torsions:
REMARK  status: ('A' for Active; 'I' for Inactive)
REMARK    1  A    between atoms: N_1  and  C_4
REMARK    2  A    between atoms: C_4  and  C_5
REMARK                            x       y       z     vdW  Elec       q    Type
REMARK                         _______ _______ _______ _____ _____    ______ ____
ROOT
ATOM      1  N   UNL     1       2.760   0.507  -1.707  0.00  0.00    -0.354 N 
ATOM      2  N   UNL     1       3.167  -1.540  -2.710  0.00  0.00    -0.372 N 
ATOM      3  N   UNL     1       1.348  -0.317  -3.387  0.00  0.00    -0.372 N 
ATOM      4  C   UNL     1       2.420  -0.436  -2.596  0.00  0.00    +0.166 C 
ATOM      5  H   UNL     1       3.567   0.344  -1.116  0.00  0.00    +0.163 HD
ATOM      6  H   UNL     1       2.938  -2.268  -3.374  0.00  0.00    +0.159 HD
ATOM      7  H   UNL     1       3.999  -1.681  -2.150  0.00  0.00    +0.159 HD
ATOM      8  H   UNL     1       0.739   0.490  -3.346  0.00  0.00    +0.159 HD
ATOM      9  H   UNL     1       1.095  -1.039  -4.049  0.00  0.00    +0.159 HD
ENDROOT
BRANCH   1  10
ATOM     10  C   UNL     1       2.044   1.771  -1.542  0.00  0.00    +0.151 C 
BRANCH  10  11
ATOM     11  C   UNL     1       1.290   1.743  -0.241  0.00  0.00    -0.028 A 
ATOM     12  C   UNL     1       1.967   1.530   0.969  0.00  0.00    +0.005 A 
ATOM     13  C   UNL     1      -0.100   1.934  -0.211  0.00  0.00    +0.005 A 
ATOM     14  C   UNL     1       1.272   1.533   2.180  0.00  0.00    +0.000 A 
ATOM     15  C   UNL     1      -0.790   1.935   1.001  0.00  0.00    +0.000 A 
ATOM     16  C   UNL     1      -0.104   1.737   2.196  0.00  0.00    +0.000 A 
ENDBRANCH  10  11
ENDBRANCH   1  10
TORSDOF 2
ENDMDL
