MODEL 1
REMARK VINA RESULT:    -5.927      0.000      0.000
REMARK INTER + INTRA:          -6.748
REMARK INTER:                  -6.621
REMARK INTRA:                  -0.127
REMARK UNBOUND:                -0.127
REMARK  Name = 1550473
REMARK  2 active torsions:
REMARK  status: ('A' for Active; 'I' for Inactive)
REMARK    1  A    between atoms: N_1  and  C_4
REMARK    2  A    between atoms: C_4  and  C_5
REMARK                            x       y       z     vdW  Elec       q    Type
REMARK                         _______ _______ _______ _____ _____    ______ ____
ROOT
ATOM      1  N   UNL     1       5.997 -11.278  16.868  0.00  0.00    -0.354 N 
ATOM      2  N   UNL     1       8.108 -11.165  17.816  0.00  0.00    -0.372 N 
ATOM      3  N   UNL     1       7.402  -9.445  16.471  0.00  0.00    -0.372 N 
ATOM      4  C   UNL     1       7.155 -10.628  17.044  0.00  0.00    +0.166 C 
ATOM      5  H   UNL     1       5.884 -12.185  17.306  0.00  0.00    +0.163 HD
ATOM      6  H   UNL     1       8.991 -10.696  17.969  0.00  0.00    +0.159 HD
ATOM      7  H   UNL     1       7.974 -12.051  18.288  0.00  0.00    +0.159 HD
ATOM      8  H   UNL     1       6.727  -8.988  15.873  0.00  0.00    +0.159 HD
ATOM      9  H   UNL     1       8.284  -8.965  16.604  0.00  0.00    +0.159 HD
ENDROOT
BRANCH   1  10
ATOM     10  C   UNL     1       4.875 -10.754  16.091  0.00  0.00    +0.151 C 
BRANCH  10  11
ATOM     11  C   UNL     1       4.595 -11.685  14.944  0.00  0.00    -0.028 A 
ATOM     12  C   UNL     1       5.650 -12.256  14.217  0.00  0.00    +0.005 A 
ATOM     13  C   UNL     1       3.278 -12.005  14.583  0.00  0.00    +0.005 A 
ATOM     14  C   UNL     1       5.391 -13.145  13.171  0.00  0.00    +0.000 A 
ATOM     15  C   UNL     1       3.023 -12.892  13.537  0.00  0.00    +0.000 A 
ATOM     16  C   UNL     1       4.080 -13.464  12.833  0.00  0.00    +0.000 A 
ENDBRANCH  10  11
ENDBRANCH   1  10
TORSDOF 2
ENDMDL
MODEL 2
REMARK VINA RESULT:    -5.521      2.709      4.965
REMARK INTER + INTRA:          -6.294
REMARK INTER:                  -6.169
REMARK INTRA:                  -0.125
REMARK UNBOUND:                -0.127
REMARK  Name = 1550473
REMARK  2 active torsions:
REMARK  status: ('A' for Active; 'I' for Inactive)
REMARK    1  A    between atoms: N_1  and  C_4
REMARK    2  A    between atoms: C_4  and  C_5
REMARK                            x       y       z     vdW  Elec       q    Type
REMARK                         _______ _______ _______ _____ _____    ______ ____
ROOT
ATOM      1  N   UNL     1       4.033 -12.263  14.371  0.00  0.00    -0.354 N 
ATOM      2  N   UNL     1       3.698 -13.777  12.651  0.00  0.00    -0.372 N 
ATOM      3  N   UNL     1       1.903 -13.130  13.924  0.00  0.00    -0.372 N 
ATOM      4  C   UNL     1       3.211 -13.047  13.661  0.00  0.00    +0.166 C 
ATOM      5  H   UNL     1       5.020 -12.267  14.141  0.00  0.00    +0.163 HD
ATOM      6  H   UNL     1       3.102 -14.375  12.095  0.00  0.00    +0.159 HD
ATOM      7  H   UNL     1       4.677 -13.744  12.393  0.00  0.00    +0.159 HD
ATOM      8  H   UNL     1       1.474 -12.609  14.677  0.00  0.00    +0.159 HD
ATOM      9  H   UNL     1       1.291 -13.732  13.387  0.00  0.00    +0.159 HD
ENDROOT
BRANCH   1  10
ATOM     10  C   UNL     1       3.594 -11.387  15.456  0.00  0.00    +0.151 C 
BRANCH  10  11
ATOM     11  C   UNL     1       4.763 -11.095  16.355  0.00  0.00    -0.028 A 
ATOM     12  C   UNL     1       6.070 -11.393  15.943  0.00  0.00    +0.005 A 
ATOM     13  C   UNL     1       4.572 -10.513  17.618  0.00  0.00    +0.005 A 
ATOM     14  C   UNL     1       7.159 -11.094  16.766  0.00  0.00    +0.000 A 
ATOM     15  C   UNL     1       5.661 -10.217  18.436  0.00  0.00    +0.000 A 
ATOM     16  C   UNL     1       6.955 -10.505  18.009  0.00  0.00    +0.000 A 
ENDBRANCH  10  11
ENDBRANCH   1  10
TORSDOF 2
ENDMDL
MODEL 3
REMARK VINA RESULT:    -5.513      1.378      2.357
REMARK INTER + INTRA:          -6.284
REMARK INTER:                  -6.154
REMARK INTRA:                  -0.130
REMARK UNBOUND:                -0.127
REMARK  Name = 1550473
REMARK  2 active torsions:
REMARK  status: ('A' for Active; 'I' for Inactive)
REMARK    1  A    between atoms: N_1  and  C_4
REMARK    2  A    between atoms: C_4  and  C_5
REMARK                            x       y       z     vdW  Elec       q    Type
REMARK                         _______ _______ _______ _____ _____    ______ ____
ROOT
ATOM      1  N   UNL     1       6.963 -10.848  18.144  0.00  0.00    -0.354 N 
ATOM      2  N   UNL     1       7.779 -11.353  20.251  0.00  0.00    -0.372 N 
ATOM      3  N   UNL     1       9.008 -11.960  18.411  0.00  0.00    -0.372 N 
ATOM      4  C   UNL     1       7.913 -11.385  18.920  0.00  0.00    +0.166 C 
ATOM      5  H   UNL     1       6.142 -10.454  18.590  0.00  0.00    +0.163 HD
ATOM      6  H   UNL     1       8.481 -11.747  20.863  0.00  0.00    +0.159 HD
ATOM      7  H   UNL     1       6.980 -10.918  20.696  0.00  0.00    +0.159 HD
ATOM      8  H   UNL     1       9.167 -12.022  17.415  0.00  0.00    +0.159 HD
ATOM      9  H   UNL     1       9.717 -12.370  19.007  0.00  0.00    +0.159 HD
ENDROOT
BRANCH   1  10
ATOM     10  C   UNL     1       7.038 -10.783  16.685  0.00  0.00    +0.151 C 
BRANCH  10  11
ATOM     11  C   UNL     1       5.734 -11.255  16.104  0.00  0.00    -0.028 A 
ATOM     12  C   UNL     1       5.711 -11.990  14.909  0.00  0.00    +0.005 A 
ATOM     13  C   UNL     1       4.518 -10.976  16.746  0.00  0.00    +0.005 A 
ATOM     14  C   UNL     1       4.503 -12.454  14.385  0.00  0.00    +0.000 A 
ATOM     15  C   UNL     1       3.313 -11.440  16.219  0.00  0.00    +0.000 A 
ATOM     16  C   UNL     1       3.306 -12.182  15.040  0.00  0.00    +0.000 A 
ENDBRANCH  10  11
ENDBRANCH   1  10
TORSDOF 2
ENDMDL
MODEL 4
REMARK VINA RESULT:    -5.443     21.155     22.248
REMARK INTER + INTRA:          -6.207
REMARK INTER:                  -6.064
REMARK INTRA:                  -0.144
REMARK UNBOUND:                -0.127
REMARK  Name = 1550473
REMARK  2 active torsions:
REMARK  status: ('A' for Active; 'I' for Inactive)
REMARK    1  A    between atoms: N_1  and  C_4
REMARK    2  A    between atoms: C_4  and  C_5
REMARK                            x       y       z     vdW  Elec       q    Type
REMARK                         _______ _______ _______ _____ _____    ______ ____
ROOT
ATOM      1  N   UNL     1      -9.022   3.818   8.665  0.00  0.00    -0.354 N 
ATOM      2  N   UNL     1     -10.402   3.638   6.814  0.00  0.00    -0.372 N 
ATOM      3  N   UNL     1     -10.483   5.553   8.076  0.00  0.00    -0.372 N 
ATOM      4  C   UNL     1      -9.961   4.340   7.865  0.00  0.00    +0.166 C 
ATOM      5  H   UNL     1      -8.688   2.881   8.469  0.00  0.00    +0.163 HD
ATOM      6  H   UNL     1     -11.107   4.008   6.191  0.00  0.00    +0.159 HD
ATOM      7  H   UNL     1     -10.034   2.721   6.594  0.00  0.00    +0.159 HD
ATOM      8  H   UNL     1     -10.197   6.131   8.855  0.00  0.00    +0.159 HD
ATOM      9  H   UNL     1     -11.198   5.935   7.470  0.00  0.00    +0.159 HD
ENDROOT
BRANCH   1  10
ATOM     10  C   UNL     1      -8.435   4.522   9.804  0.00  0.00    +0.151 C 
BRANCH  10  11
ATOM     11  C   UNL     1      -8.720   3.746  11.061  0.00  0.00    -0.028 A 
ATOM     12  C   UNL     1     -10.033   3.371  11.383  0.00  0.00    +0.005 A 
ATOM     13  C   UNL     1      -7.682   3.379  11.931  0.00  0.00    +0.005 A 
ATOM     14  C   UNL     1     -10.295   2.625  12.535  0.00  0.00    +0.000 A 
ATOM     15  C   UNL     1      -7.948   2.634  13.080  0.00  0.00    +0.000 A 
ATOM     16  C   UNL     1      -9.254   2.255  13.380  0.00  0.00    +0.000 A 
ENDBRANCH  10  11
ENDBRANCH   1  10
TORSDOF 2
ENDMDL
MODEL 5
REMARK VINA RESULT:    -5.383     17.133     18.320
REMARK INTER + INTRA:          -6.140
REMARK INTER:                  -5.964
REMARK INTRA:                  -0.175
REMARK UNBOUND:                -0.127
REMARK  Name = 1550473
REMARK  2 active torsions:
REMARK  status: ('A' for Active; 'I' for Inactive)
REMARK    1  A    between atoms: N_1  and  C_4
REMARK    2  A    between atoms: C_4  and  C_5
REMARK                            x       y       z     vdW  Elec       q    Type
REMARK                         _______ _______ _______ _____ _____    ______ ____
ROOT
ATOM      1  N   UNL     1      -6.541  -4.053   6.812  0.00  0.00    -0.354 N 
ATOM      2  N   UNL     1      -5.443  -5.943   6.045  0.00  0.00    -0.372 N 
ATOM      3  N   UNL     1      -6.781  -6.114   7.901  0.00  0.00    -0.372 N 
ATOM      4  C   UNL     1      -6.263  -5.359   6.927  0.00  0.00    +0.166 C 
ATOM      5  H   UNL     1      -6.092  -3.529   6.070  0.00  0.00    +0.163 HD
ATOM      6  H   UNL     1      -5.218  -6.927   6.104  0.00  0.00    +0.159 HD
ATOM      7  H   UNL     1      -5.032  -5.426   5.276  0.00  0.00    +0.159 HD
ATOM      8  H   UNL     1      -7.402  -5.733   8.602  0.00  0.00    +0.159 HD
ATOM      9  H   UNL     1      -6.558  -7.099   7.983  0.00  0.00    +0.159 HD
ENDROOT
BRANCH   1  10
ATOM     10  C   UNL     1      -7.463  -3.333   7.688  0.00  0.00    +0.151 C 
BRANCH  10  11
ATOM     11  C   UNL     1      -8.737  -3.056   6.938  0.00  0.00    -0.028 A 
ATOM     12  C   UNL     1      -8.795  -2.022   5.992  0.00  0.00    +0.005 A 
ATOM     13  C   UNL     1      -9.887  -3.826   7.165  0.00  0.00    +0.005 A 
ATOM     14  C   UNL     1      -9.969  -1.783   5.273  0.00  0.00    +0.000 A 
ATOM     15  C   UNL     1     -11.058  -3.584   6.446  0.00  0.00    +0.000 A 
ATOM     16  C   UNL     1     -11.097  -2.564   5.499  0.00  0.00    +0.000 A 
ENDBRANCH  10  11
ENDBRANCH   1  10
TORSDOF 2
ENDMDL
MODEL 6
REMARK VINA RESULT:    -5.163     21.895     22.928
REMARK INTER + INTRA:          -5.894
REMARK INTER:                  -5.762
REMARK INTRA:                  -0.131
REMARK UNBOUND:                -0.127
REMARK  Name = 1550473
REMARK  2 active torsions:
REMARK  status: ('A' for Active; 'I' for Inactive)
REMARK    1  A    between atoms: N_1  and  C_4
REMARK    2  A    between atoms: C_4  and  C_5
REMARK                            x       y       z     vdW  Elec       q    Type
REMARK                         _______ _______ _______ _____ _____    ______ ____
ROOT
ATOM      1  N   UNL     1     -10.671   5.012   9.523  0.00  0.00    -0.354 N 
ATOM      2  N   UNL     1     -12.263   6.529   8.796  0.00  0.00    -0.372 N 
ATOM      3  N   UNL     1     -10.042   7.035   8.521  0.00  0.00    -0.372 N 
ATOM      4  C   UNL     1     -10.979   6.184   8.951  0.00  0.00    +0.166 C 
ATOM      5  H   UNL     1     -11.427   4.425   9.855  0.00  0.00    +0.163 HD
ATOM      6  H   UNL     1     -12.526   7.405   8.365  0.00  0.00    +0.159 HD
ATOM      7  H   UNL     1     -13.017   5.919   9.087  0.00  0.00    +0.159 HD
ATOM      8  H   UNL     1      -9.055   6.836   8.614  0.00  0.00    +0.159 HD
ATOM      9  H   UNL     1     -10.285   7.922   8.098  0.00  0.00    +0.159 HD
ENDROOT
BRANCH   1  10
ATOM     10  C   UNL     1      -9.305   4.518   9.690  0.00  0.00    +0.151 C 
BRANCH  10  11
ATOM     11  C   UNL     1      -9.214   3.751  10.980  0.00  0.00    -0.028 A 
ATOM     12  C   UNL     1      -7.966   3.380  11.501  0.00  0.00    +0.005 A 
ATOM     13  C   UNL     1     -10.373   3.396  11.689  0.00  0.00    +0.005 A 
ATOM     14  C   UNL     1      -7.880   2.693  12.715  0.00  0.00    +0.000 A 
ATOM     15  C   UNL     1     -10.282   2.710  12.900  0.00  0.00    +0.000 A 
ATOM     16  C   UNL     1      -9.036   2.361  13.414  0.00  0.00    +0.000 A 
ENDBRANCH  10  11
ENDBRANCH   1  10
TORSDOF 2
ENDMDL
MODEL 7
REMARK VINA RESULT:    -4.888     17.907     18.301
REMARK INTER + INTRA:          -5.587
REMARK INTER:                  -5.493
REMARK INTRA:                  -0.094
REMARK UNBOUND:                -0.127
REMARK  Name = 1550473
REMARK  2 active torsions:
REMARK  status: ('A' for Active; 'I' for Inactive)
REMARK    1  A    between atoms: N_1  and  C_4
REMARK    2  A    between atoms: C_4  and  C_5
REMARK                            x       y       z     vdW  Elec       q    Type
REMARK                         _______ _______ _______ _____ _____    ______ ____
ROOT
ATOM      1  N   UNL     1       6.473   2.474   4.901  0.00  0.00    -0.354 N 
ATOM      2  N   UNL     1       6.777   3.385   7.008  0.00  0.00    -0.372 N 
ATOM      3  N   UNL     1       8.429   3.648   5.438  0.00  0.00    -0.372 N 
ATOM      4  C   UNL     1       7.227   3.164   5.767  0.00  0.00    +0.166 C 
ATOM      5  H   UNL     1       5.585   2.107   5.222  0.00  0.00    +0.163 HD
ATOM      6  H   UNL     1       7.322   3.905   7.683  0.00  0.00    +0.159 HD
ATOM      7  H   UNL     1       5.868   3.057   7.312  0.00  0.00    +0.159 HD
ATOM      8  H   UNL     1       8.828   3.511   4.519  0.00  0.00    +0.159 HD
ATOM      9  H   UNL     1       8.994   4.162   6.102  0.00  0.00    +0.159 HD
ENDROOT
BRANCH   1  10
ATOM     10  C   UNL     1       6.848   2.224   3.510  0.00  0.00    +0.151 C 
BRANCH  10  11
ATOM     11  C   UNL     1       5.608   1.916   2.716  0.00  0.00    -0.028 A 
ATOM     12  C   UNL     1       5.002   2.907   1.929  0.00  0.00    +0.005 A 
ATOM     13  C   UNL     1       5.039   0.634   2.741  0.00  0.00    +0.005 A 
ATOM     14  C   UNL     1       3.869   2.613   1.168  0.00  0.00    +0.000 A 
ATOM     15  C   UNL     1       3.906   0.345   1.979  0.00  0.00    +0.000 A 
ATOM     16  C   UNL     1       3.323   1.334   1.191  0.00  0.00    +0.000 A 
ENDBRANCH  10  11
ENDBRANCH   1  10
TORSDOF 2
ENDMDL
MODEL 8
REMARK VINA RESULT:    -4.787     18.147     18.594
REMARK INTER + INTRA:          -5.473
REMARK INTER:                  -5.329
REMARK INTRA:                  -0.145
REMARK UNBOUND:                -0.127
REMARK  Name = 1550473
REMARK  2 active torsions:
REMARK  status: ('A' for Active; 'I' for Inactive)
REMARK    1  A    between atoms: N_1  and  C_4
REMARK    2  A    between atoms: C_4  and  C_5
REMARK                            x       y       z     vdW  Elec       q    Type
REMARK                         _______ _______ _______ _____ _____    ______ ____
ROOT
ATOM      1  N   UNL     1       7.734   2.379   3.578  0.00  0.00    -0.354 N 
ATOM      2  N   UNL     1       9.584   3.042   2.352  0.00  0.00    -0.372 N 
ATOM      3  N   UNL     1       8.947   0.839   2.294  0.00  0.00    -0.372 N 
ATOM      4  C   UNL     1       8.743   2.079   2.749  0.00  0.00    +0.166 C 
ATOM      5  H   UNL     1       7.652   3.333   3.911  0.00  0.00    +0.163 HD
ATOM      6  H   UNL     1      10.352   2.847   1.724  0.00  0.00    +0.159 HD
ATOM      7  H   UNL     1       9.471   4.004   2.650  0.00  0.00    +0.159 HD
ATOM      8  H   UNL     1       8.351   0.066   2.561  0.00  0.00    +0.159 HD
ATOM      9  H   UNL     1       9.717   0.621   1.674  0.00  0.00    +0.159 HD
ENDROOT
BRANCH   1  10
ATOM     10  C   UNL     1       6.731   1.415   4.027  0.00  0.00    +0.151 C 
BRANCH  10  11
ATOM     11  C   UNL     1       5.555   1.457   3.091  0.00  0.00    -0.028 A 
ATOM     12  C   UNL     1       4.871   0.279   2.755  0.00  0.00    +0.005 A 
ATOM     13  C   UNL     1       5.117   2.671   2.541  0.00  0.00    +0.005 A 
ATOM     14  C   UNL     1       3.760   0.322   1.909  0.00  0.00    +0.000 A 
ATOM     15  C   UNL     1       4.008   2.709   1.696  0.00  0.00    +0.000 A 
ATOM     16  C   UNL     1       3.328   1.534   1.382  0.00  0.00    +0.000 A 
ENDBRANCH  10  11
ENDBRANCH   1  10
TORSDOF 2
ENDMDL
MODEL 9
REMARK VINA RESULT:    -4.641     17.179     17.590
REMARK INTER + INTRA:          -5.311
REMARK INTER:                  -5.201
REMARK INTRA:                  -0.111
REMARK UNBOUND:                -0.127
REMARK  Name = 1550473
REMARK  2 active torsions:
REMARK  status: ('A' for Active; 'I' for Inactive)
REMARK    1  A    between atoms: N_1  and  C_4
REMARK    2  A    between atoms: C_4  and  C_5
REMARK                            x       y       z     vdW  Elec       q    Type
REMARK                         _______ _______ _______ _____ _____    ______ ____
ROOT
ATOM      1  N   UNL     1       4.760   0.956   5.471  0.00  0.00    -0.354 N 
ATOM      2  N   UNL     1       5.950   1.833   7.253  0.00  0.00    -0.372 N 
ATOM      3  N   UNL     1       6.914   0.186   5.979  0.00  0.00    -0.372 N 
ATOM      4  C   UNL     1       5.869   0.984   6.222  0.00  0.00    +0.166 C 
ATOM      5  H   UNL     1       3.991   1.565   5.725  0.00  0.00    +0.163 HD
ATOM      6  H   UNL     1       6.776   1.878   7.836  0.00  0.00    +0.159 HD
ATOM      7  H   UNL     1       5.198   2.473   7.478  0.00  0.00    +0.159 HD
ATOM      8  H   UNL     1       6.913  -0.482   5.219  0.00  0.00    +0.159 HD
ATOM      9  H   UNL     1       7.744   0.208   6.558  0.00  0.00    +0.159 HD
ENDROOT
BRANCH   1  10
ATOM     10  C   UNL     1       4.591   0.107   4.293  0.00  0.00    +0.151 C 
BRANCH  10  11
ATOM     11  C   UNL     1       4.463   0.978   3.074  0.00  0.00    -0.028 A 
ATOM     12  C   UNL     1       3.536   0.665   2.069  0.00  0.00    +0.005 A 
ATOM     13  C   UNL     1       5.263   2.121   2.919  0.00  0.00    +0.005 A 
ATOM     14  C   UNL     1       3.395   1.491   0.951  0.00  0.00    +0.000 A 
ATOM     15  C   UNL     1       5.121   2.942   1.801  0.00  0.00    +0.000 A 
ATOM     16  C   UNL     1       4.185   2.628   0.818  0.00  0.00    +0.000 A 
ENDBRANCH  10  11
ENDBRANCH   1  10
TORSDOF 2
ENDMDL
