MODEL 1
REMARK VINA RESULT:    -5.539      0.000      0.000
REMARK INTER + INTRA:          -6.326
REMARK INTER:                  -6.187
REMARK INTRA:                  -0.139
REMARK UNBOUND:                -0.139
REMARK  Name = 1550473
REMARK  2 active torsions:
REMARK  status: ('A' for Active; 'I' for Inactive)
REMARK    1  A    between atoms: N_1  and  C_4
REMARK    2  A    between atoms: C_4  and  C_5
REMARK                            x       y       z     vdW  Elec       q    Type
REMARK                         _______ _______ _______ _____ _____    ______ ____
ROOT
ATOM      1  N   UNL     1      -2.466  -7.283  -6.318  0.00  0.00    -0.354 N 
ATOM      2  N   UNL     1      -2.363  -8.984  -4.750  0.00  0.00    -0.372 N 
ATOM      3  N   UNL     1      -4.409  -8.374  -5.592  0.00  0.00    -0.372 N 
ATOM      4  C   UNL     1      -3.083  -8.202  -5.564  0.00  0.00    +0.166 C 
ATOM      5  H   UNL     1      -1.461  -7.182  -6.228  0.00  0.00    +0.163 HD
ATOM      6  H   UNL     1      -2.801  -9.689  -4.171  0.00  0.00    +0.159 HD
ATOM      7  H   UNL     1      -1.355  -8.912  -4.696  0.00  0.00    +0.159 HD
ATOM      8  H   UNL     1      -5.009  -7.812  -6.181  0.00  0.00    +0.159 HD
ATOM      9  H   UNL     1      -4.866  -9.066  -5.012  0.00  0.00    +0.159 HD
ENDROOT
BRANCH   1  10
ATOM     10  C   UNL     1      -3.151  -6.418  -7.277  0.00  0.00    +0.151 C 
BRANCH  10  11
ATOM     11  C   UNL     1      -2.621  -5.017  -7.141  0.00  0.00    -0.028 A 
ATOM     12  C   UNL     1      -2.751  -4.102  -8.196  0.00  0.00    +0.005 A 
ATOM     13  C   UNL     1      -1.993  -4.598  -5.958  0.00  0.00    +0.005 A 
ATOM     14  C   UNL     1      -2.285  -2.792  -8.059  0.00  0.00    +0.000 A 
ATOM     15  C   UNL     1      -1.530  -3.289  -5.826  0.00  0.00    +0.000 A 
ATOM     16  C   UNL     1      -1.678  -2.386  -6.876  0.00  0.00    +0.000 A 
ENDBRANCH  10  11
ENDBRANCH   1  10
TORSDOF 2
ENDMDL
MODEL 2
REMARK VINA RESULT:    -5.503      1.711      2.182
REMARK INTER + INTRA:          -6.286
REMARK INTER:                  -6.152
REMARK INTRA:                  -0.134
REMARK UNBOUND:                -0.139
REMARK  Name = 1550473
REMARK  2 active torsions:
REMARK  status: ('A' for Active; 'I' for Inactive)
REMARK    1  A    between atoms: N_1  and  C_4
REMARK    2  A    between atoms: C_4  and  C_5
REMARK                            x       y       z     vdW  Elec       q    Type
REMARK                         _______ _______ _______ _____ _____    ______ ____
ROOT
ATOM      1  N   UNL     1      -1.713  -7.957  -5.462  0.00  0.00    -0.354 N 
ATOM      2  N   UNL     1      -1.646  -9.300  -3.577  0.00  0.00    -0.372 N 
ATOM      3  N   UNL     1      -3.670  -8.487  -4.287  0.00  0.00    -0.372 N 
ATOM      4  C   UNL     1      -2.346  -8.572  -4.454  0.00  0.00    +0.166 C 
ATOM      5  H   UNL     1      -0.704  -8.036  -5.516  0.00  0.00    +0.163 HD
ATOM      6  H   UNL     1      -2.096  -9.779  -2.808  0.00  0.00    +0.159 HD
ATOM      7  H   UNL     1      -0.643  -9.415  -3.660  0.00  0.00    +0.159 HD
ATOM      8  H   UNL     1      -4.255  -7.948  -4.911  0.00  0.00    +0.159 HD
ATOM      9  H   UNL     1      -4.138  -8.949  -3.517  0.00  0.00    +0.159 HD
ENDROOT
BRANCH   1  10
ATOM     10  C   UNL     1      -2.389  -7.184  -6.502  0.00  0.00    +0.151 C 
BRANCH  10  11
ATOM     11  C   UNL     1      -1.544  -5.992  -6.856  0.00  0.00    -0.028 A 
ATOM     12  C   UNL     1      -0.230  -5.884  -6.379  0.00  0.00    +0.005 A 
ATOM     13  C   UNL     1      -2.051  -4.968  -7.672  0.00  0.00    +0.005 A 
ATOM     14  C   UNL     1       0.566  -4.791  -6.732  0.00  0.00    +0.000 A 
ATOM     15  C   UNL     1      -1.254  -3.878  -8.021  0.00  0.00    +0.000 A 
ATOM     16  C   UNL     1       0.055  -3.791  -7.553  0.00  0.00    +0.000 A 
ENDBRANCH  10  11
ENDBRANCH   1  10
TORSDOF 2
ENDMDL
MODEL 3
REMARK VINA RESULT:    -5.449      3.910      4.896
REMARK INTER + INTRA:          -6.225
REMARK INTER:                  -6.128
REMARK INTRA:                  -0.097
REMARK UNBOUND:                -0.139
REMARK  Name = 1550473
REMARK  2 active torsions:
REMARK  status: ('A' for Active; 'I' for Inactive)
REMARK    1  A    between atoms: N_1  and  C_4
REMARK    2  A    between atoms: C_4  and  C_5
REMARK                            x       y       z     vdW  Elec       q    Type
REMARK                         _______ _______ _______ _____ _____    ______ ____
ROOT
ATOM      1  N   UNL     1       1.973  -6.449  -5.634  0.00  0.00    -0.354 N 
ATOM      2  N   UNL     1       3.351  -7.835  -6.878  0.00  0.00    -0.372 N 
ATOM      3  N   UNL     1       4.171  -5.819  -6.150  0.00  0.00    -0.372 N 
ATOM      4  C   UNL     1       3.157  -6.690  -6.212  0.00  0.00    +0.166 C 
ATOM      5  H   UNL     1       1.236  -7.136  -5.744  0.00  0.00    +0.163 HD
ATOM      6  H   UNL     1       4.235  -8.045  -7.322  0.00  0.00    +0.159 HD
ATOM      7  H   UNL     1       2.627  -8.540  -6.947  0.00  0.00    +0.159 HD
ATOM      8  H   UNL     1       4.087  -4.934  -5.667  0.00  0.00    +0.159 HD
ATOM      9  H   UNL     1       5.059  -6.007  -6.597  0.00  0.00    +0.159 HD
ENDROOT
BRANCH   1  10
ATOM     10  C   UNL     1       1.677  -5.258  -4.841  0.00  0.00    +0.151 C 
BRANCH  10  11
ATOM     11  C   UNL     1       0.647  -4.431  -5.561  0.00  0.00    -0.028 A 
ATOM     12  C   UNL     1      -0.239  -3.615  -4.843  0.00  0.00    +0.005 A 
ATOM     13  C   UNL     1       0.556  -4.456  -6.961  0.00  0.00    +0.005 A 
ATOM     14  C   UNL     1      -1.176  -2.825  -5.512  0.00  0.00    +0.000 A 
ATOM     15  C   UNL     1      -0.381  -3.666  -7.626  0.00  0.00    +0.000 A 
ATOM     16  C   UNL     1      -1.246  -2.849  -6.901  0.00  0.00    +0.000 A 
ENDBRANCH  10  11
ENDBRANCH   1  10
TORSDOF 2
ENDMDL
MODEL 4
REMARK VINA RESULT:    -5.392      7.797      8.584
REMARK INTER + INTRA:          -6.162
REMARK INTER:                  -6.003
REMARK INTRA:                  -0.160
REMARK UNBOUND:                -0.139
REMARK  Name = 1550473
REMARK  2 active torsions:
REMARK  status: ('A' for Active; 'I' for Inactive)
REMARK    1  A    between atoms: N_1  and  C_4
REMARK    2  A    between atoms: C_4  and  C_5
REMARK                            x       y       z     vdW  Elec       q    Type
REMARK                         _______ _______ _______ _____ _____    ______ ____
ROOT
ATOM      1  N   UNL     1       4.097  -6.064  -6.485  0.00  0.00    -0.354 N 
ATOM      2  N   UNL     1       1.986  -5.175  -6.144  0.00  0.00    -0.372 N 
ATOM      3  N   UNL     1       2.697  -6.895  -4.800  0.00  0.00    -0.372 N 
ATOM      4  C   UNL     1       2.940  -6.053  -5.810  0.00  0.00    +0.166 C 
ATOM      5  H   UNL     1       4.209  -5.420  -7.260  0.00  0.00    +0.163 HD
ATOM      6  H   UNL     1       1.104  -5.141  -5.650  0.00  0.00    +0.159 HD
ATOM      7  H   UNL     1       2.118  -4.502  -6.889  0.00  0.00    +0.159 HD
ATOM      8  H   UNL     1       3.373  -7.585  -4.503  0.00  0.00    +0.159 HD
ATOM      9  H   UNL     1       1.815  -6.884  -4.302  0.00  0.00    +0.159 HD
ENDROOT
BRANCH   1  10
ATOM     10  C   UNL     1       5.221  -6.942  -6.167  0.00  0.00    +0.151 C 
BRANCH  10  11
ATOM     11  C   UNL     1       5.439  -7.895  -7.310  0.00  0.00    -0.028 A 
ATOM     12  C   UNL     1       4.944  -9.206  -7.248  0.00  0.00    +0.005 A 
ATOM     13  C   UNL     1       6.135  -7.491  -8.460  0.00  0.00    +0.005 A 
ATOM     14  C   UNL     1       5.120 -10.082  -8.322  0.00  0.00    +0.000 A 
ATOM     15  C   UNL     1       6.309  -8.369  -9.530  0.00  0.00    +0.000 A 
ATOM     16  C   UNL     1       5.800  -9.663  -9.461  0.00  0.00    +0.000 A 
ENDBRANCH  10  11
ENDBRANCH   1  10
TORSDOF 2
ENDMDL
MODEL 5
REMARK VINA RESULT:    -5.187      3.446      5.118
REMARK INTER + INTRA:          -5.932
REMARK INTER:                  -5.815
REMARK INTRA:                  -0.118
REMARK UNBOUND:                -0.139
REMARK  Name = 1550473
REMARK  2 active torsions:
REMARK  status: ('A' for Active; 'I' for Inactive)
REMARK    1  A    between atoms: N_1  and  C_4
REMARK    2  A    between atoms: C_4  and  C_5
REMARK                            x       y       z     vdW  Elec       q    Type
REMARK                         _______ _______ _______ _____ _____    ______ ____
ROOT
ATOM      1  N   UNL     1      -1.353  -3.833  -6.730  0.00  0.00    -0.354 N 
ATOM      2  N   UNL     1      -2.372  -4.302  -8.757  0.00  0.00    -0.372 N 
ATOM      3  N   UNL     1      -2.888  -2.341  -7.683  0.00  0.00    -0.372 N 
ATOM      4  C   UNL     1      -2.199  -3.487  -7.709  0.00  0.00    +0.166 C 
ATOM      5  H   UNL     1      -0.883  -4.729  -6.795  0.00  0.00    +0.163 HD
ATOM      6  H   UNL     1      -3.001  -4.065  -9.512  0.00  0.00    +0.159 HD
ATOM      7  H   UNL     1      -1.866  -5.175  -8.841  0.00  0.00    +0.159 HD
ATOM      8  H   UNL     1      -2.808  -1.685  -6.917  0.00  0.00    +0.159 HD
ATOM      9  H   UNL     1      -3.532  -2.092  -8.424  0.00  0.00    +0.159 HD
ENDROOT
BRANCH   1  10
ATOM     10  C   UNL     1      -1.053  -2.992  -5.573  0.00  0.00    +0.151 C 
BRANCH  10  11
ATOM     11  C   UNL     1      -0.120  -3.734  -4.655  0.00  0.00    -0.028 A 
ATOM     12  C   UNL     1      -0.077  -3.430  -3.287  0.00  0.00    +0.005 A 
ATOM     13  C   UNL     1       0.718  -4.746  -5.147  0.00  0.00    +0.005 A 
ATOM     14  C   UNL     1       0.768  -4.139  -2.429  0.00  0.00    +0.000 A 
ATOM     15  C   UNL     1       1.561  -5.451  -4.287  0.00  0.00    +0.000 A 
ATOM     16  C   UNL     1       1.583  -5.149  -2.928  0.00  0.00    +0.000 A 
ENDBRANCH  10  11
ENDBRANCH   1  10
TORSDOF 2
ENDMDL
MODEL 6
REMARK VINA RESULT:    -5.111     18.897     19.900
REMARK INTER + INTRA:          -5.847
REMARK INTER:                  -5.724
REMARK INTRA:                  -0.124
REMARK UNBOUND:                -0.139
REMARK  Name = 1550473
REMARK  2 active torsions:
REMARK  status: ('A' for Active; 'I' for Inactive)
REMARK    1  A    between atoms: N_1  and  C_4
REMARK    2  A    between atoms: C_4  and  C_5
REMARK                            x       y       z     vdW  Elec       q    Type
REMARK                         _______ _______ _______ _____ _____    ______ ____
ROOT
ATOM      1  N   UNL     1     -22.148  -6.923  -8.364  0.00  0.00    -0.354 N 
ATOM      2  N   UNL     1     -23.480  -6.194  -6.615  0.00  0.00    -0.372 N 
ATOM      3  N   UNL     1     -21.960  -4.741  -7.532  0.00  0.00    -0.372 N 
ATOM      4  C   UNL     1     -22.519  -5.955  -7.515  0.00  0.00    +0.166 C 
ATOM      5  H   UNL     1     -22.590  -7.832  -8.279  0.00  0.00    +0.163 HD
ATOM      6  H   UNL     1     -23.783  -5.482  -5.964  0.00  0.00    +0.159 HD
ATOM      7  H   UNL     1     -23.952  -7.089  -6.563  0.00  0.00    +0.159 HD
ATOM      8  H   UNL     1     -21.225  -4.498  -8.183  0.00  0.00    +0.159 HD
ATOM      9  H   UNL     1     -22.241  -4.018  -6.881  0.00  0.00    +0.159 HD
ENDROOT
BRANCH   1  10
ATOM     10  C   UNL     1     -21.150  -6.750  -9.417  0.00  0.00    +0.151 C 
BRANCH  10  11
ATOM     11  C   UNL     1     -21.111  -7.990 -10.267  0.00  0.00    -0.028 A 
ATOM     12  C   UNL     1     -22.073  -8.997 -10.100  0.00  0.00    +0.005 A 
ATOM     13  C   UNL     1     -20.118  -8.161 -11.244  0.00  0.00    +0.005 A 
ATOM     14  C   UNL     1     -22.055 -10.136 -10.909  0.00  0.00    +0.000 A 
ATOM     15  C   UNL     1     -20.104  -9.300 -12.049  0.00  0.00    +0.000 A 
ATOM     16  C   UNL     1     -21.073 -10.285 -11.884  0.00  0.00    +0.000 A 
ENDBRANCH  10  11
ENDBRANCH   1  10
TORSDOF 2
ENDMDL
MODEL 7
REMARK VINA RESULT:    -5.081      3.958      5.414
REMARK INTER + INTRA:          -5.814
REMARK INTER:                  -5.673
REMARK INTRA:                  -0.141
REMARK UNBOUND:                -0.139
REMARK  Name = 1550473
REMARK  2 active torsions:
REMARK  status: ('A' for Active; 'I' for Inactive)
REMARK    1  A    between atoms: N_1  and  C_4
REMARK    2  A    between atoms: C_4  and  C_5
REMARK                            x       y       z     vdW  Elec       q    Type
REMARK                         _______ _______ _______ _____ _____    ______ ____
ROOT
ATOM      1  N   UNL     1      -1.381  -4.366  -5.173  0.00  0.00    -0.354 N 
ATOM      2  N   UNL     1      -3.051  -4.081  -6.752  0.00  0.00    -0.372 N 
ATOM      3  N   UNL     1      -1.658  -2.320  -6.280  0.00  0.00    -0.372 N 
ATOM      4  C   UNL     1      -2.018  -3.588  -6.058  0.00  0.00    +0.166 C 
ATOM      5  H   UNL     1      -1.722  -5.310  -5.028  0.00  0.00    +0.163 HD
ATOM      6  H   UNL     1      -3.549  -3.519  -7.429  0.00  0.00    +0.159 HD
ATOM      7  H   UNL     1      -3.361  -5.039  -6.638  0.00  0.00    +0.159 HD
ATOM      8  H   UNL     1      -0.890  -1.886  -5.785  0.00  0.00    +0.159 HD
ATOM      9  H   UNL     1      -2.151  -1.738  -6.946  0.00  0.00    +0.159 HD
ENDROOT
BRANCH   1  10
ATOM     10  C   UNL     1      -0.210  -3.943  -4.406  0.00  0.00    +0.151 C 
BRANCH  10  11
ATOM     11  C   UNL     1       0.931  -4.880  -4.694  0.00  0.00    -0.028 A 
ATOM     12  C   UNL     1       1.649  -5.471  -3.644  0.00  0.00    +0.005 A 
ATOM     13  C   UNL     1       1.295  -5.184  -6.014  0.00  0.00    +0.005 A 
ATOM     14  C   UNL     1       2.689  -6.364  -3.911  0.00  0.00    +0.000 A 
ATOM     15  C   UNL     1       2.335  -6.076  -6.276  0.00  0.00    +0.000 A 
ATOM     16  C   UNL     1       3.030  -6.667  -5.224  0.00  0.00    +0.000 A 
ENDBRANCH  10  11
ENDBRANCH   1  10
TORSDOF 2
ENDMDL
MODEL 8
REMARK VINA RESULT:    -5.069      0.945      2.072
REMARK INTER + INTRA:          -5.801
REMARK INTER:                  -5.668
REMARK INTRA:                  -0.133
REMARK UNBOUND:                -0.139
REMARK  Name = 1550473
REMARK  2 active torsions:
REMARK  status: ('A' for Active; 'I' for Inactive)
REMARK    1  A    between atoms: N_1  and  C_4
REMARK    2  A    between atoms: C_4  and  C_5
REMARK                            x       y       z     vdW  Elec       q    Type
REMARK                         _______ _______ _______ _____ _____    ______ ____
ROOT
ATOM      1  N   UNL     1      -2.993  -6.629  -4.665  0.00  0.00    -0.354 N 
ATOM      2  N   UNL     1      -4.288  -8.518  -4.319  0.00  0.00    -0.372 N 
ATOM      3  N   UNL     1      -2.025  -8.763  -4.609  0.00  0.00    -0.372 N 
ATOM      4  C   UNL     1      -3.091  -7.959  -4.534  0.00  0.00    +0.166 C 
ATOM      5  H   UNL     1      -3.842  -6.078  -4.628  0.00  0.00    +0.163 HD
ATOM      6  H   UNL     1      -4.392  -9.518  -4.212  0.00  0.00    +0.159 HD
ATOM      7  H   UNL     1      -5.129  -7.960  -4.236  0.00  0.00    +0.159 HD
ATOM      8  H   UNL     1      -1.094  -8.404  -4.776  0.00  0.00    +0.159 HD
ATOM      9  H   UNL     1      -2.111  -9.767  -4.517  0.00  0.00    +0.159 HD
ENDROOT
BRANCH   1  10
ATOM     10  C   UNL     1      -1.729  -5.916  -4.848  0.00  0.00    +0.151 C 
BRANCH  10  11
ATOM     11  C   UNL     1      -1.919  -4.836  -5.877  0.00  0.00    -0.028 A 
ATOM     12  C   UNL     1      -1.427  -3.543  -5.650  0.00  0.00    +0.005 A 
ATOM     13  C   UNL     1      -2.586  -5.102  -7.083  0.00  0.00    +0.005 A 
ATOM     14  C   UNL     1      -1.577  -2.547  -6.619  0.00  0.00    +0.000 A 
ATOM     15  C   UNL     1      -2.734  -4.104  -8.047  0.00  0.00    +0.000 A 
ATOM     16  C   UNL     1      -2.227  -2.828  -7.815  0.00  0.00    +0.000 A 
ENDBRANCH  10  11
ENDBRANCH   1  10
TORSDOF 2
ENDMDL
MODEL 9
REMARK VINA RESULT:    -4.892     45.146     46.468
REMARK INTER + INTRA:          -5.603
REMARK INTER:                  -5.479
REMARK INTRA:                  -0.124
REMARK UNBOUND:                -0.139
REMARK  Name = 1550473
REMARK  2 active torsions:
REMARK  status: ('A' for Active; 'I' for Inactive)
REMARK    1  A    between atoms: N_1  and  C_4
REMARK    2  A    between atoms: C_4  and  C_5
REMARK                            x       y       z     vdW  Elec       q    Type
REMARK                         _______ _______ _______ _____ _____    ______ ____
ROOT
ATOM      1  N   UNL     1      26.555   9.696  25.656  0.00  0.00    -0.354 N 
ATOM      2  N   UNL     1      26.933  11.714  24.584  0.00  0.00    -0.372 N 
ATOM      3  N   UNL     1      26.163   9.934  23.357  0.00  0.00    -0.372 N 
ATOM      4  C   UNL     1      26.547  10.433  24.537  0.00  0.00    +0.166 C 
ATOM      5  H   UNL     1      26.885  10.125  26.512  0.00  0.00    +0.163 HD
ATOM      6  H   UNL     1      26.935  12.296  23.757  0.00  0.00    +0.159 HD
ATOM      7  H   UNL     1      27.220  12.153  25.450  0.00  0.00    +0.159 HD
ATOM      8  H   UNL     1      25.866   8.973  23.254  0.00  0.00    +0.159 HD
ATOM      9  H   UNL     1      26.169  10.498  22.516  0.00  0.00    +0.159 HD
ENDROOT
BRANCH   1  10
ATOM     10  C   UNL     1      26.102   8.308  25.723  0.00  0.00    +0.151 C 
BRANCH  10  11
ATOM     11  C   UNL     1      25.967   7.904  27.165  0.00  0.00    -0.028 A 
ATOM     12  C   UNL     1      26.360   8.779  28.189  0.00  0.00    +0.005 A 
ATOM     13  C   UNL     1      25.442   6.651  27.515  0.00  0.00    +0.005 A 
ATOM     14  C   UNL     1      26.206   8.417  29.529  0.00  0.00    +0.000 A 
ATOM     15  C   UNL     1      25.291   6.293  28.855  0.00  0.00    +0.000 A 
ATOM     16  C   UNL     1      25.671   7.177  29.861  0.00  0.00    +0.000 A 
ENDBRANCH  10  11
ENDBRANCH   1  10
TORSDOF 2
ENDMDL
