MODEL 1
REMARK VINA RESULT:    -5.557      0.000      0.000
REMARK INTER + INTRA:          -6.356
REMARK INTER:                  -6.207
REMARK INTRA:                  -0.149
REMARK UNBOUND:                -0.149
REMARK  Name = 1550473
REMARK  2 active torsions:
REMARK  status: ('A' for Active; 'I' for Inactive)
REMARK    1  A    between atoms: N_1  and  C_4
REMARK    2  A    between atoms: C_4  and  C_5
REMARK                            x       y       z     vdW  Elec       q    Type
REMARK                         _______ _______ _______ _____ _____    ______ ____
ROOT
ATOM      1  N   UNL     1       7.495   0.019   1.242  0.00  0.00    -0.354 N 
ATOM      2  N   UNL     1       7.572  -1.908   2.525  0.00  0.00    -0.372 N 
ATOM      3  N   UNL     1       7.189   0.102   3.564  0.00  0.00    -0.372 N 
ATOM      4  C   UNL     1       7.418  -0.581   2.438  0.00  0.00    +0.166 C 
ATOM      5  H   UNL     1       7.701  -0.551   0.430  0.00  0.00    +0.163 HD
ATOM      6  H   UNL     1       7.516  -2.389   3.413  0.00  0.00    +0.159 HD
ATOM      7  H   UNL     1       7.732  -2.481   1.706  0.00  0.00    +0.159 HD
ATOM      8  H   UNL     1       7.070   1.106   3.567  0.00  0.00    +0.159 HD
ATOM      9  H   UNL     1       7.141  -0.360   4.464  0.00  0.00    +0.159 HD
ENDROOT
BRANCH   1  10
ATOM     10  C   UNL     1       7.288   1.451   1.031  0.00  0.00    +0.151 C 
BRANCH  10  11
ATOM     11  C   UNL     1       6.045   1.652   0.210  0.00  0.00    -0.028 A 
ATOM     12  C   UNL     1       5.497   0.589  -0.524  0.00  0.00    +0.005 A 
ATOM     13  C   UNL     1       5.407   2.901   0.165  0.00  0.00    +0.005 A 
ATOM     14  C   UNL     1       4.325   0.768  -1.263  0.00  0.00    +0.000 A 
ATOM     15  C   UNL     1       4.237   3.075  -0.575  0.00  0.00    +0.000 A 
ATOM     16  C   UNL     1       3.695   2.008  -1.287  0.00  0.00    +0.000 A 
ENDBRANCH  10  11
ENDBRANCH   1  10
TORSDOF 2
ENDMDL
MODEL 2
REMARK VINA RESULT:    -5.537     17.387     18.722
REMARK INTER + INTRA:          -6.333
REMARK INTER:                  -6.196
REMARK INTRA:                  -0.137
REMARK UNBOUND:                -0.149
REMARK  Name = 1550473
REMARK  2 active torsions:
REMARK  status: ('A' for Active; 'I' for Inactive)
REMARK    1  A    between atoms: N_1  and  C_4
REMARK    2  A    between atoms: C_4  and  C_5
REMARK                            x       y       z     vdW  Elec       q    Type
REMARK                         _______ _______ _______ _____ _____    ______ ____
ROOT
ATOM      1  N   UNL     1       2.112 -10.748 -11.818  0.00  0.00    -0.354 N 
ATOM      2  N   UNL     1      -0.060 -11.437 -11.402  0.00  0.00    -0.372 N 
ATOM      3  N   UNL     1       1.643 -12.319 -10.143  0.00  0.00    -0.372 N 
ATOM      4  C   UNL     1       1.247 -11.499 -11.122  0.00  0.00    +0.166 C 
ATOM      5  H   UNL     1       1.751 -10.169 -12.568  0.00  0.00    +0.163 HD
ATOM      6  H   UNL     1      -0.737 -11.989 -10.892  0.00  0.00    +0.159 HD
ATOM      7  H   UNL     1      -0.423 -10.823 -12.122  0.00  0.00    +0.159 HD
ATOM      8  H   UNL     1       2.616 -12.416  -9.886  0.00  0.00    +0.159 HD
ATOM      9  H   UNL     1       0.982 -12.888  -9.629  0.00  0.00    +0.159 HD
ENDROOT
BRANCH   1  10
ATOM     10  C   UNL     1       3.549 -10.702 -11.556  0.00  0.00    +0.151 C 
BRANCH  10  11
ATOM     11  C   UNL     1       4.290 -11.045 -12.819  0.00  0.00    -0.028 A 
ATOM     12  C   UNL     1       4.581 -10.052 -13.766  0.00  0.00    +0.005 A 
ATOM     13  C   UNL     1       4.709 -12.360 -13.071  0.00  0.00    +0.005 A 
ATOM     14  C   UNL     1       5.295 -10.365 -14.925  0.00  0.00    +0.000 A 
ATOM     15  C   UNL     1       5.421 -12.669 -14.230  0.00  0.00    +0.000 A 
ATOM     16  C   UNL     1       5.716 -11.671 -15.155  0.00  0.00    +0.000 A 
ENDBRANCH  10  11
ENDBRANCH   1  10
TORSDOF 2
ENDMDL
MODEL 3
REMARK VINA RESULT:    -5.496     17.746     18.707
REMARK INTER + INTRA:          -6.288
REMARK INTER:                  -6.151
REMARK INTRA:                  -0.136
REMARK UNBOUND:                -0.149
REMARK  Name = 1550473
REMARK  2 active torsions:
REMARK  status: ('A' for Active; 'I' for Inactive)
REMARK    1  A    between atoms: N_1  and  C_4
REMARK    2  A    between atoms: C_4  and  C_5
REMARK                            x       y       z     vdW  Elec       q    Type
REMARK                         _______ _______ _______ _____ _____    ______ ____
ROOT
ATOM      1  N   UNL     1       2.227 -11.568 -10.857  0.00  0.00    -0.354 N 
ATOM      2  N   UNL     1       1.361 -13.027  -9.280  0.00  0.00    -0.372 N 
ATOM      3  N   UNL     1      -0.025 -12.213 -10.916  0.00  0.00    -0.372 N 
ATOM      4  C   UNL     1       1.191 -12.260 -10.363  0.00  0.00    +0.166 C 
ATOM      5  H   UNL     1       3.116 -11.622 -10.373  0.00  0.00    +0.163 HD
ATOM      6  H   UNL     1       0.599 -13.563  -8.886  0.00  0.00    +0.159 HD
ATOM      7  H   UNL     1       2.262 -13.115  -8.825  0.00  0.00    +0.159 HD
ATOM      8  H   UNL     1      -0.222 -11.648 -11.732  0.00  0.00    +0.159 HD
ATOM      9  H   UNL     1      -0.804 -12.733 -10.530  0.00  0.00    +0.159 HD
ENDROOT
BRANCH   1  10
ATOM     10  C   UNL     1       2.160 -10.745 -12.063  0.00  0.00    +0.151 C 
BRANCH  10  11
ATOM     11  C   UNL     1       3.302 -11.110 -12.970  0.00  0.00    -0.028 A 
ATOM     12  C   UNL     1       3.950 -12.347 -12.838  0.00  0.00    +0.005 A 
ATOM     13  C   UNL     1       3.737 -10.225 -13.969  0.00  0.00    +0.005 A 
ATOM     14  C   UNL     1       4.991 -12.698 -13.700  0.00  0.00    +0.000 A 
ATOM     15  C   UNL     1       4.778 -10.580 -14.827  0.00  0.00    +0.000 A 
ATOM     16  C   UNL     1       5.403 -11.817 -14.694  0.00  0.00    +0.000 A 
ENDBRANCH  10  11
ENDBRANCH   1  10
TORSDOF 2
ENDMDL
MODEL 4
REMARK VINA RESULT:    -5.491     18.366     19.670
REMARK INTER + INTRA:          -6.282
REMARK INTER:                  -6.141
REMARK INTRA:                  -0.141
REMARK UNBOUND:                -0.149
REMARK  Name = 1550473
REMARK  2 active torsions:
REMARK  status: ('A' for Active; 'I' for Inactive)
REMARK    1  A    between atoms: N_1  and  C_4
REMARK    2  A    between atoms: C_4  and  C_5
REMARK                            x       y       z     vdW  Elec       q    Type
REMARK                         _______ _______ _______ _____ _____    ______ ____
ROOT
ATOM      1  N   UNL     1       4.144 -11.862 -12.181  0.00  0.00    -0.354 N 
ATOM      2  N   UNL     1       3.754 -10.385 -10.440  0.00  0.00    -0.372 N 
ATOM      3  N   UNL     1       3.178  -9.763 -12.572  0.00  0.00    -0.372 N 
ATOM      4  C   UNL     1       3.694 -10.678 -11.745  0.00  0.00    +0.166 C 
ATOM      5  H   UNL     1       4.552 -12.500 -11.507  0.00  0.00    +0.163 HD
ATOM      6  H   UNL     1       3.418  -9.501 -10.081  0.00  0.00    +0.159 HD
ATOM      7  H   UNL     1       4.119 -11.043  -9.762  0.00  0.00    +0.159 HD
ATOM      8  H   UNL     1       3.109  -9.921 -13.569  0.00  0.00    +0.159 HD
ATOM      9  H   UNL     1       2.848  -8.868 -12.234  0.00  0.00    +0.159 HD
ENDROOT
BRANCH   1  10
ATOM     10  C   UNL     1       4.075 -12.301 -13.574  0.00  0.00    +0.151 C 
BRANCH  10  11
ATOM     11  C   UNL     1       5.428 -12.799 -14.000  0.00  0.00    -0.028 A 
ATOM     12  C   UNL     1       5.747 -12.920 -15.360  0.00  0.00    +0.005 A 
ATOM     13  C   UNL     1       6.399 -13.146 -13.047  0.00  0.00    +0.005 A 
ATOM     14  C   UNL     1       7.014 -13.354 -15.756  0.00  0.00    +0.000 A 
ATOM     15  C   UNL     1       7.663 -13.580 -13.447  0.00  0.00    +0.000 A 
ATOM     16  C   UNL     1       7.971 -13.682 -14.802  0.00  0.00    +0.000 A 
ENDBRANCH  10  11
ENDBRANCH   1  10
TORSDOF 2
ENDMDL
MODEL 5
REMARK VINA RESULT:    -5.476     18.708     19.999
REMARK INTER + INTRA:          -6.266
REMARK INTER:                  -6.118
REMARK INTRA:                  -0.147
REMARK UNBOUND:                -0.149
REMARK  Name = 1550473
REMARK  2 active torsions:
REMARK  status: ('A' for Active; 'I' for Inactive)
REMARK    1  A    between atoms: N_1  and  C_4
REMARK    2  A    between atoms: C_4  and  C_5
REMARK                            x       y       z     vdW  Elec       q    Type
REMARK                         _______ _______ _______ _____ _____    ______ ____
ROOT
ATOM      1  N   UNL     1       3.311 -13.027 -12.752  0.00  0.00    -0.354 N 
ATOM      2  N   UNL     1       2.198 -13.650 -10.819  0.00  0.00    -0.372 N 
ATOM      3  N   UNL     1       3.143 -11.562 -10.931  0.00  0.00    -0.372 N 
ATOM      4  C   UNL     1       2.892 -12.739 -11.513  0.00  0.00    +0.166 C 
ATOM      5  H   UNL     1       3.115 -13.948 -13.125  0.00  0.00    +0.163 HD
ATOM      6  H   UNL     1       1.866 -13.460  -9.883  0.00  0.00    +0.159 HD
ATOM      7  H   UNL     1       1.963 -14.553 -11.212  0.00  0.00    +0.159 HD
ATOM      8  H   UNL     1       3.667 -10.834 -11.398  0.00  0.00    +0.159 HD
ATOM      9  H   UNL     1       2.829 -11.358  -9.990  0.00  0.00    +0.159 HD
ENDROOT
BRANCH   1  10
ATOM     10  C   UNL     1       4.028 -12.086 -13.612  0.00  0.00    +0.151 C 
BRANCH  10  11
ATOM     11  C   UNL     1       5.379 -12.656 -13.945  0.00  0.00    -0.028 A 
ATOM     12  C   UNL     1       6.267 -13.024 -12.924  0.00  0.00    +0.005 A 
ATOM     13  C   UNL     1       5.774 -12.836 -15.279  0.00  0.00    +0.005 A 
ATOM     14  C   UNL     1       7.511 -13.582 -13.233  0.00  0.00    +0.000 A 
ATOM     15  C   UNL     1       7.016 -13.392 -15.583  0.00  0.00    +0.000 A 
ATOM     16  C   UNL     1       7.883 -13.767 -14.560  0.00  0.00    +0.000 A 
ENDBRANCH  10  11
ENDBRANCH   1  10
TORSDOF 2
ENDMDL
MODEL 6
REMARK VINA RESULT:    -5.459     16.226     17.565
REMARK INTER + INTRA:          -6.247
REMARK INTER:                  -6.124
REMARK INTRA:                  -0.123
REMARK UNBOUND:                -0.149
REMARK  Name = 1550473
REMARK  2 active torsions:
REMARK  status: ('A' for Active; 'I' for Inactive)
REMARK    1  A    between atoms: N_1  and  C_4
REMARK    2  A    between atoms: C_4  and  C_5
REMARK                            x       y       z     vdW  Elec       q    Type
REMARK                         _______ _______ _______ _____ _____    ______ ____
ROOT
ATOM      1  N   UNL     1      -0.940  -4.667  15.069  0.00  0.00    -0.354 N 
ATOM      2  N   UNL     1      -1.714  -2.511  14.726  0.00  0.00    -0.372 N 
ATOM      3  N   UNL     1      -2.305  -3.608  16.653  0.00  0.00    -0.372 N 
ATOM      4  C   UNL     1      -1.649  -3.610  15.487  0.00  0.00    +0.166 C 
ATOM      5  H   UNL     1      -0.491  -4.616  14.162  0.00  0.00    +0.163 HD
ATOM      6  H   UNL     1      -2.238  -1.697  15.017  0.00  0.00    +0.159 HD
ATOM      7  H   UNL     1      -1.226  -2.446  13.841  0.00  0.00    +0.159 HD
ATOM      8  H   UNL     1      -2.301  -4.408  17.271  0.00  0.00    +0.159 HD
ATOM      9  H   UNL     1      -2.844  -2.807  16.956  0.00  0.00    +0.159 HD
ENDROOT
BRANCH   1  10
ATOM     10  C   UNL     1      -0.762  -5.891  15.847  0.00  0.00    +0.151 C 
BRANCH  10  11
ATOM     11  C   UNL     1       0.008  -6.888  15.025  0.00  0.00    -0.028 A 
ATOM     12  C   UNL     1       0.395  -8.118  15.576  0.00  0.00    +0.005 A 
ATOM     13  C   UNL     1       0.349  -6.610  13.692  0.00  0.00    +0.005 A 
ATOM     14  C   UNL     1       1.084  -9.056  14.803  0.00  0.00    +0.000 A 
ATOM     15  C   UNL     1       1.038  -7.548  12.925  0.00  0.00    +0.000 A 
ATOM     16  C   UNL     1       1.403  -8.773  13.480  0.00  0.00    +0.000 A 
ENDBRANCH  10  11
ENDBRANCH   1  10
TORSDOF 2
ENDMDL
MODEL 7
REMARK VINA RESULT:    -5.290     18.356     19.097
REMARK INTER + INTRA:          -6.057
REMARK INTER:                  -5.922
REMARK INTRA:                  -0.136
REMARK UNBOUND:                -0.149
REMARK  Name = 1550473
REMARK  2 active torsions:
REMARK  status: ('A' for Active; 'I' for Inactive)
REMARK    1  A    between atoms: N_1  and  C_4
REMARK    2  A    between atoms: C_4  and  C_5
REMARK                            x       y       z     vdW  Elec       q    Type
REMARK                         _______ _______ _______ _____ _____    ______ ____
ROOT
ATOM      1  N   UNL     1       3.102 -12.422 -11.327  0.00  0.00    -0.354 N 
ATOM      2  N   UNL     1       1.431 -12.463  -9.724  0.00  0.00    -0.372 N 
ATOM      3  N   UNL     1       1.857 -14.367 -10.932  0.00  0.00    -0.372 N 
ATOM      4  C   UNL     1       2.141 -13.087 -10.673  0.00  0.00    +0.166 C 
ATOM      5  H   UNL     1       3.248 -11.444 -11.105  0.00  0.00    +0.163 HD
ATOM      6  H   UNL     1       0.702 -12.940  -9.211  0.00  0.00    +0.159 HD
ATOM      7  H   UNL     1       1.610 -11.499  -9.472  0.00  0.00    +0.159 HD
ATOM      8  H   UNL     1       2.353 -14.893 -11.640  0.00  0.00    +0.159 HD
ATOM      9  H   UNL     1       1.123 -14.858 -10.437  0.00  0.00    +0.159 HD
ENDROOT
BRANCH   1  10
ATOM     10  C   UNL     1       3.969 -13.023 -12.340  0.00  0.00    +0.151 C 
BRANCH  10  11
ATOM     11  C   UNL     1       4.244 -12.009 -13.415  0.00  0.00    -0.028 A 
ATOM     12  C   UNL     1       3.454 -10.856 -13.526  0.00  0.00    +0.005 A 
ATOM     13  C   UNL     1       5.298 -12.193 -14.324  0.00  0.00    +0.005 A 
ATOM     14  C   UNL     1       3.729  -9.899 -14.506  0.00  0.00    +0.000 A 
ATOM     15  C   UNL     1       5.569 -11.236 -15.301  0.00  0.00    +0.000 A 
ATOM     16  C   UNL     1       4.785 -10.088 -15.391  0.00  0.00    +0.000 A 
ENDBRANCH  10  11
ENDBRANCH   1  10
TORSDOF 2
ENDMDL
MODEL 8
REMARK VINA RESULT:    -5.272     18.223     19.466
REMARK INTER + INTRA:          -6.037
REMARK INTER:                  -5.965
REMARK INTRA:                  -0.072
REMARK UNBOUND:                -0.149
REMARK  Name = 1550473
REMARK  2 active torsions:
REMARK  status: ('A' for Active; 'I' for Inactive)
REMARK    1  A    between atoms: N_1  and  C_4
REMARK    2  A    between atoms: C_4  and  C_5
REMARK                            x       y       z     vdW  Elec       q    Type
REMARK                         _______ _______ _______ _____ _____    ______ ____
ROOT
ATOM      1  N   UNL     1       3.268 -12.350 -12.523  0.00  0.00    -0.354 N 
ATOM      2  N   UNL     1       1.410 -11.177 -11.791  0.00  0.00    -0.372 N 
ATOM      3  N   UNL     1       3.476 -10.603 -10.975  0.00  0.00    -0.372 N 
ATOM      4  C   UNL     1       2.732 -11.383 -11.766  0.00  0.00    +0.166 C 
ATOM      5  H   UNL     1       2.646 -12.927 -13.078  0.00  0.00    +0.163 HD
ATOM      6  H   UNL     1       0.977 -10.452 -11.234  0.00  0.00    +0.159 HD
ATOM      7  H   UNL     1       0.796 -11.724 -12.382  0.00  0.00    +0.159 HD
ATOM      8  H   UNL     1       4.479 -10.711 -10.906  0.00  0.00    +0.159 HD
ATOM      9  H   UNL     1       3.060  -9.880 -10.400  0.00  0.00    +0.159 HD
ENDROOT
BRANCH   1  10
ATOM     10  C   UNL     1       4.702 -12.621 -12.609  0.00  0.00    +0.151 C 
BRANCH  10  11
ATOM     11  C   UNL     1       5.210 -12.156 -13.945  0.00  0.00    -0.028 A 
ATOM     12  C   UNL     1       6.050 -12.977 -14.712  0.00  0.00    +0.005 A 
ATOM     13  C   UNL     1       4.851 -10.898 -14.453  0.00  0.00    +0.005 A 
ATOM     14  C   UNL     1       6.498 -12.558 -15.967  0.00  0.00    +0.000 A 
ATOM     15  C   UNL     1       5.301 -10.483 -15.706  0.00  0.00    +0.000 A 
ATOM     16  C   UNL     1       6.123 -11.314 -16.464  0.00  0.00    +0.000 A 
ENDBRANCH  10  11
ENDBRANCH   1  10
TORSDOF 2
ENDMDL
MODEL 9
REMARK VINA RESULT:    -5.128     16.490     17.545
REMARK INTER + INTRA:          -5.876
REMARK INTER:                  -5.753
REMARK INTRA:                  -0.124
REMARK UNBOUND:                -0.149
REMARK  Name = 1550473
REMARK  2 active torsions:
REMARK  status: ('A' for Active; 'I' for Inactive)
REMARK    1  A    between atoms: N_1  and  C_4
REMARK    2  A    between atoms: C_4  and  C_5
REMARK                            x       y       z     vdW  Elec       q    Type
REMARK                         _______ _______ _______ _____ _____    ______ ____
ROOT
ATOM      1  N   UNL     1      14.817   2.892  14.834  0.00  0.00    -0.354 N 
ATOM      2  N   UNL     1      14.081   4.995  14.202  0.00  0.00    -0.372 N 
ATOM      3  N   UNL     1      16.109   4.800  15.257  0.00  0.00    -0.372 N 
ATOM      4  C   UNL     1      15.010   4.216  14.770  0.00  0.00    +0.166 C 
ATOM      5  H   UNL     1      13.949   2.513  14.473  0.00  0.00    +0.163 HD
ATOM      6  H   UNL     1      14.200   5.997  14.137  0.00  0.00    +0.159 HD
ATOM      7  H   UNL     1      13.235   4.609  13.801  0.00  0.00    +0.159 HD
ATOM      8  H   UNL     1      16.845   4.269  15.704  0.00  0.00    +0.159 HD
ATOM      9  H   UNL     1      16.241   5.803  15.212  0.00  0.00    +0.159 HD
ENDROOT
BRANCH   1  10
ATOM     10  C   UNL     1      15.791   1.950  15.383  0.00  0.00    +0.151 C 
BRANCH  10  11
ATOM     11  C   UNL     1      15.180   0.576  15.417  0.00  0.00    -0.028 A 
ATOM     12  C   UNL     1      13.898   0.353  14.892  0.00  0.00    +0.005 A 
ATOM     13  C   UNL     1      15.879  -0.508  15.969  0.00  0.00    +0.005 A 
ATOM     14  C   UNL     1      13.343  -0.928  14.896  0.00  0.00    +0.000 A 
ATOM     15  C   UNL     1      15.320  -1.786  15.973  0.00  0.00    +0.000 A 
ATOM     16  C   UNL     1      14.053  -1.996  15.434  0.00  0.00    +0.000 A 
ENDBRANCH  10  11
ENDBRANCH   1  10
TORSDOF 2
ENDMDL
