MODEL 1
REMARK VINA RESULT:    -5.984      0.000      0.000
REMARK INTER + INTRA:          -6.834
REMARK INTER:                  -6.683
REMARK INTRA:                  -0.150
REMARK UNBOUND:                -0.150
REMARK  Name = 1550473
REMARK  2 active torsions:
REMARK  status: ('A' for Active; 'I' for Inactive)
REMARK    1  A    between atoms: N_1  and  C_4
REMARK    2  A    between atoms: C_4  and  C_5
REMARK                            x       y       z     vdW  Elec       q    Type
REMARK                         _______ _______ _______ _____ _____    ______ ____
ROOT
ATOM      1  N   UNL     1      -3.006  -2.068   2.515  0.00  0.00    -0.354 N 
ATOM      2  N   UNL     1      -4.425  -2.753   4.212  0.00  0.00    -0.372 N 
ATOM      3  N   UNL     1      -3.079  -0.928   4.562  0.00  0.00    -0.372 N 
ATOM      4  C   UNL     1      -3.493  -1.910   3.753  0.00  0.00    +0.166 C 
ATOM      5  H   UNL     1      -3.339  -2.850   1.963  0.00  0.00    +0.163 HD
ATOM      6  H   UNL     1      -4.813  -2.657   5.141  0.00  0.00    +0.159 HD
ATOM      7  H   UNL     1      -4.790  -3.506   3.642  0.00  0.00    +0.159 HD
ATOM      8  H   UNL     1      -2.373  -0.262   4.277  0.00  0.00    +0.159 HD
ATOM      9  H   UNL     1      -3.447  -0.823   5.499  0.00  0.00    +0.159 HD
ENDROOT
BRANCH   1  10
ATOM     10  C   UNL     1      -2.028  -1.172   1.901  0.00  0.00    +0.151 C 
BRANCH  10  11
ATOM     11  C   UNL     1      -0.772  -1.944   1.605  0.00  0.00    -0.028 A 
ATOM     12  C   UNL     1      -0.284  -2.034   0.293  0.00  0.00    +0.005 A 
ATOM     13  C   UNL     1      -0.063  -2.585   2.633  0.00  0.00    +0.005 A 
ATOM     14  C   UNL     1       0.899  -2.726   0.022  0.00  0.00    +0.000 A 
ATOM     15  C   UNL     1       1.117  -3.276   2.358  0.00  0.00    +0.000 A 
ATOM     16  C   UNL     1       1.599  -3.344   1.053  0.00  0.00    +0.000 A 
ENDBRANCH  10  11
ENDBRANCH   1  10
TORSDOF 2
ENDMDL
MODEL 2
REMARK VINA RESULT:    -5.643     14.381     16.093
REMARK INTER + INTRA:          -6.453
REMARK INTER:                  -6.330
REMARK INTRA:                  -0.123
REMARK UNBOUND:                -0.150
REMARK  Name = 1550473
REMARK  2 active torsions:
REMARK  status: ('A' for Active; 'I' for Inactive)
REMARK    1  A    between atoms: N_1  and  C_4
REMARK    2  A    between atoms: C_4  and  C_5
REMARK                            x       y       z     vdW  Elec       q    Type
REMARK                         _______ _______ _______ _____ _____    ______ ____
ROOT
ATOM      1  N   UNL     1       1.615  -2.721 -12.112  0.00  0.00    -0.354 N 
ATOM      2  N   UNL     1       1.337  -4.110 -10.280  0.00  0.00    -0.372 N 
ATOM      3  N   UNL     1       3.410  -3.956 -11.251  0.00  0.00    -0.372 N 
ATOM      4  C   UNL     1       2.125  -3.587 -11.227  0.00  0.00    +0.166 C 
ATOM      5  H   UNL     1       0.626  -2.505 -12.059  0.00  0.00    +0.163 HD
ATOM      6  H   UNL     1       1.695  -4.763  -9.596  0.00  0.00    +0.159 HD
ATOM      7  H   UNL     1       0.359  -3.857 -10.201  0.00  0.00    +0.159 HD
ATOM      8  H   UNL     1       4.056  -3.602 -11.944  0.00  0.00    +0.159 HD
ATOM      9  H   UNL     1       3.784  -4.618 -10.582  0.00  0.00    +0.159 HD
ENDROOT
BRANCH   1  10
ATOM     10  C   UNL     1       2.400  -2.054 -13.150  0.00  0.00    +0.151 C 
BRANCH  10  11
ATOM     11  C   UNL     1       1.546  -1.012 -13.819  0.00  0.00    -0.028 A 
ATOM     12  C   UNL     1       1.977  -0.388 -14.998  0.00  0.00    +0.005 A 
ATOM     13  C   UNL     1       0.301  -0.650 -13.281  0.00  0.00    +0.005 A 
ATOM     14  C   UNL     1       1.171   0.558 -15.636  0.00  0.00    +0.000 A 
ATOM     15  C   UNL     1      -0.501   0.295 -13.921  0.00  0.00    +0.000 A 
ATOM     16  C   UNL     1      -0.067   0.897 -15.100  0.00  0.00    +0.000 A 
ENDBRANCH  10  11
ENDBRANCH   1  10
TORSDOF 2
ENDMDL
MODEL 3
REMARK VINA RESULT:    -5.382     13.415     14.554
REMARK INTER + INTRA:          -6.161
REMARK INTER:                  -6.067
REMARK INTRA:                  -0.095
REMARK UNBOUND:                -0.150
REMARK  Name = 1550473
REMARK  2 active torsions:
REMARK  status: ('A' for Active; 'I' for Inactive)
REMARK    1  A    between atoms: N_1  and  C_4
REMARK    2  A    between atoms: C_4  and  C_5
REMARK                            x       y       z     vdW  Elec       q    Type
REMARK                         _______ _______ _______ _____ _____    ______ ____
ROOT
ATOM      1  N   UNL     1      -5.221  -3.394 -11.832  0.00  0.00    -0.354 N 
ATOM      2  N   UNL     1      -6.328  -5.305 -12.529  0.00  0.00    -0.372 N 
ATOM      3  N   UNL     1      -7.559  -3.531 -11.754  0.00  0.00    -0.372 N 
ATOM      4  C   UNL     1      -6.364  -4.063 -12.033  0.00  0.00    +0.166 C 
ATOM      5  H   UNL     1      -4.346  -3.864 -12.035  0.00  0.00    +0.163 HD
ATOM      6  H   UNL     1      -7.175  -5.833 -12.694  0.00  0.00    +0.159 HD
ATOM      7  H   UNL     1      -5.455  -5.756 -12.774  0.00  0.00    +0.159 HD
ATOM      8  H   UNL     1      -7.654  -2.599 -11.372  0.00  0.00    +0.159 HD
ATOM      9  H   UNL     1      -8.417  -4.048 -11.901  0.00  0.00    +0.159 HD
ENDROOT
BRANCH   1  10
ATOM     10  C   UNL     1      -5.153  -2.017 -11.347  0.00  0.00    +0.151 C 
BRANCH  10  11
ATOM     11  C   UNL     1      -3.736  -1.526 -11.457  0.00  0.00    -0.028 A 
ATOM     12  C   UNL     1      -2.926  -1.429 -10.316  0.00  0.00    +0.005 A 
ATOM     13  C   UNL     1      -3.196  -1.163 -12.700  0.00  0.00    +0.005 A 
ATOM     14  C   UNL     1      -1.600  -1.001 -10.422  0.00  0.00    +0.000 A 
ATOM     15  C   UNL     1      -1.872  -0.736 -12.801  0.00  0.00    +0.000 A 
ATOM     16  C   UNL     1      -1.074  -0.658 -11.662  0.00  0.00    +0.000 A 
ENDBRANCH  10  11
ENDBRANCH   1  10
TORSDOF 2
ENDMDL
MODEL 4
REMARK VINA RESULT:    -5.215      1.711      2.407
REMARK INTER + INTRA:          -5.975
REMARK INTER:                  -5.854
REMARK INTRA:                  -0.120
REMARK UNBOUND:                -0.150
REMARK  Name = 1550473
REMARK  2 active torsions:
REMARK  status: ('A' for Active; 'I' for Inactive)
REMARK    1  A    between atoms: N_1  and  C_4
REMARK    2  A    between atoms: C_4  and  C_5
REMARK                            x       y       z     vdW  Elec       q    Type
REMARK                         _______ _______ _______ _____ _____    ______ ____
ROOT
ATOM      1  N   UNL     1      -4.714  -2.139   2.392  0.00  0.00    -0.354 N 
ATOM      2  N   UNL     1      -6.977  -1.857   1.985  0.00  0.00    -0.372 N 
ATOM      3  N   UNL     1      -6.237  -1.896   4.156  0.00  0.00    -0.372 N 
ATOM      4  C   UNL     1      -5.961  -1.966   2.850  0.00  0.00    +0.166 C 
ATOM      5  H   UNL     1      -4.576  -2.214   1.390  0.00  0.00    +0.163 HD
ATOM      6  H   UNL     1      -7.928  -1.722   2.301  0.00  0.00    +0.159 HD
ATOM      7  H   UNL     1      -6.829  -1.886   0.983  0.00  0.00    +0.159 HD
ATOM      8  H   UNL     1      -5.516  -1.977   4.861  0.00  0.00    +0.159 HD
ATOM      9  H   UNL     1      -7.184  -1.773   4.493  0.00  0.00    +0.159 HD
ENDROOT
BRANCH   1  10
ATOM     10  C   UNL     1      -3.532  -2.215   3.248  0.00  0.00    +0.151 C 
BRANCH  10  11
ATOM     11  C   UNL     1      -2.302  -2.014   2.406  0.00  0.00    -0.028 A 
ATOM     12  C   UNL     1      -2.338  -1.176   1.282  0.00  0.00    +0.005 A 
ATOM     13  C   UNL     1      -1.096  -2.654   2.730  0.00  0.00    +0.005 A 
ATOM     14  C   UNL     1      -1.188  -0.965   0.517  0.00  0.00    +0.000 A 
ATOM     15  C   UNL     1       0.049  -2.441   1.964  0.00  0.00    +0.000 A 
ATOM     16  C   UNL     1       0.004  -1.595   0.859  0.00  0.00    +0.000 A 
ENDBRANCH  10  11
ENDBRANCH   1  10
TORSDOF 2
ENDMDL
MODEL 5
REMARK VINA RESULT:    -5.209      3.668      4.964
REMARK INTER + INTRA:          -5.968
REMARK INTER:                  -5.846
REMARK INTRA:                  -0.122
REMARK UNBOUND:                -0.150
REMARK  Name = 1550473
REMARK  2 active torsions:
REMARK  status: ('A' for Active; 'I' for Inactive)
REMARK    1  A    between atoms: N_1  and  C_4
REMARK    2  A    between atoms: C_4  and  C_5
REMARK                            x       y       z     vdW  Elec       q    Type
REMARK                         _______ _______ _______ _____ _____    ______ ____
ROOT
ATOM      1  N   UNL     1      -0.565  -2.122  -2.090  0.00  0.00    -0.354 N 
ATOM      2  N   UNL     1      -0.387  -2.246  -4.395  0.00  0.00    -0.372 N 
ATOM      3  N   UNL     1      -2.206  -1.189  -3.479  0.00  0.00    -0.372 N 
ATOM      4  C   UNL     1      -1.056  -1.851  -3.306  0.00  0.00    +0.166 C 
ATOM      5  H   UNL     1       0.296  -2.654  -2.026  0.00  0.00    +0.163 HD
ATOM      6  H   UNL     1      -0.731  -2.053  -5.326  0.00  0.00    +0.159 HD
ATOM      7  H   UNL     1       0.497  -2.737  -4.329  0.00  0.00    +0.159 HD
ATOM      8  H   UNL     1      -2.762  -0.869  -2.697  0.00  0.00    +0.159 HD
ATOM      9  H   UNL     1      -2.572  -0.996  -4.403  0.00  0.00    +0.159 HD
ENDROOT
BRANCH   1  10
ATOM     10  C   UNL     1      -1.189  -1.689  -0.841  0.00  0.00    +0.151 C 
BRANCH  10  11
ATOM     11  C   UNL     1      -0.385  -2.214   0.317  0.00  0.00    -0.028 A 
ATOM     12  C   UNL     1      -0.868  -2.099   1.629  0.00  0.00    +0.005 A 
ATOM     13  C   UNL     1       0.857  -2.832   0.109  0.00  0.00    +0.005 A 
ATOM     14  C   UNL     1      -0.136  -2.613   2.702  0.00  0.00    +0.000 A 
ATOM     15  C   UNL     1       1.585  -3.344   1.183  0.00  0.00    +0.000 A 
ATOM     16  C   UNL     1       1.087  -3.236   2.479  0.00  0.00    +0.000 A 
ENDBRANCH  10  11
ENDBRANCH   1  10
TORSDOF 2
ENDMDL
MODEL 6
REMARK VINA RESULT:    -5.062     16.989     18.488
REMARK INTER + INTRA:          -5.804
REMARK INTER:                  -5.680
REMARK INTRA:                  -0.124
REMARK UNBOUND:                -0.150
REMARK  Name = 1550473
REMARK  2 active torsions:
REMARK  status: ('A' for Active; 'I' for Inactive)
REMARK    1  A    between atoms: N_1  and  C_4
REMARK    2  A    between atoms: C_4  and  C_5
REMARK                            x       y       z     vdW  Elec       q    Type
REMARK                         _______ _______ _______ _____ _____    ______ ____
ROOT
ATOM      1  N   UNL     1     -17.381 -10.778  -3.705  0.00  0.00    -0.354 N 
ATOM      2  N   UNL     1     -18.783  -9.465  -4.998  0.00  0.00    -0.372 N 
ATOM      3  N   UNL     1     -19.412 -11.618  -4.517  0.00  0.00    -0.372 N 
ATOM      4  C   UNL     1     -18.518 -10.632  -4.398  0.00  0.00    +0.166 C 
ATOM      5  H   UNL     1     -16.730 -10.002  -3.678  0.00  0.00    +0.163 HD
ATOM      6  H   UNL     1     -19.634  -9.323  -5.525  0.00  0.00    +0.159 HD
ATOM      7  H   UNL     1     -18.152  -8.676  -4.931  0.00  0.00    +0.159 HD
ATOM      8  H   UNL     1     -19.269 -12.525  -4.093  0.00  0.00    +0.159 HD
ATOM      9  H   UNL     1     -20.265 -11.500  -5.050  0.00  0.00    +0.159 HD
ENDROOT
BRANCH   1  10
ATOM     10  C   UNL     1     -17.022 -11.990  -2.970  0.00  0.00    +0.151 C 
BRANCH  10  11
ATOM     11  C   UNL     1     -15.889 -11.678  -2.032  0.00  0.00    -0.028 A 
ATOM     12  C   UNL     1     -15.592 -10.351  -1.691  0.00  0.00    +0.005 A 
ATOM     13  C   UNL     1     -15.112 -12.706  -1.476  0.00  0.00    +0.005 A 
ATOM     14  C   UNL     1     -14.558 -10.062  -0.796  0.00  0.00    +0.000 A 
ATOM     15  C   UNL     1     -14.081 -12.414  -0.583  0.00  0.00    +0.000 A 
ATOM     16  C   UNL     1     -13.806 -11.092  -0.242  0.00  0.00    +0.000 A 
ENDBRANCH  10  11
ENDBRANCH   1  10
TORSDOF 2
ENDMDL
MODEL 7
REMARK VINA RESULT:    -5.035     15.755     17.071
REMARK INTER + INTRA:          -5.774
REMARK INTER:                  -5.631
REMARK INTRA:                  -0.144
REMARK UNBOUND:                -0.150
REMARK  Name = 1550473
REMARK  2 active torsions:
REMARK  status: ('A' for Active; 'I' for Inactive)
REMARK    1  A    between atoms: N_1  and  C_4
REMARK    2  A    between atoms: C_4  and  C_5
REMARK                            x       y       z     vdW  Elec       q    Type
REMARK                         _______ _______ _______ _____ _____    ______ ____
ROOT
ATOM      1  N   UNL     1      11.445  -8.967  -3.428  0.00  0.00    -0.354 N 
ATOM      2  N   UNL     1       9.711 -10.137  -4.422  0.00  0.00    -0.372 N 
ATOM      3  N   UNL     1      11.725  -9.999  -5.513  0.00  0.00    -0.372 N 
ATOM      4  C   UNL     1      10.973  -9.693  -4.450  0.00  0.00    +0.166 C 
ATOM      5  H   UNL     1      10.815  -8.744  -2.665  0.00  0.00    +0.163 HD
ATOM      6  H   UNL     1       9.328 -10.691  -5.177  0.00  0.00    +0.159 HD
ATOM      7  H   UNL     1       9.098  -9.952  -3.637  0.00  0.00    +0.159 HD
ATOM      8  H   UNL     1      12.684  -9.689  -5.598  0.00  0.00    +0.159 HD
ATOM      9  H   UNL     1      11.356 -10.542  -6.284  0.00  0.00    +0.159 HD
ENDROOT
BRANCH   1  10
ATOM     10  C   UNL     1      12.820  -8.481  -3.336  0.00  0.00    +0.151 C 
BRANCH  10  11
ATOM     11  C   UNL     1      13.574  -9.325  -2.345  0.00  0.00    -0.028 A 
ATOM     12  C   UNL     1      14.975  -9.381  -2.378  0.00  0.00    +0.005 A 
ATOM     13  C   UNL     1      12.893 -10.066  -1.367  0.00  0.00    +0.005 A 
ATOM     14  C   UNL     1      15.676 -10.141  -1.438  0.00  0.00    +0.000 A 
ATOM     15  C   UNL     1      13.597 -10.824  -0.432  0.00  0.00    +0.000 A 
ATOM     16  C   UNL     1      14.989 -10.859  -0.466  0.00  0.00    +0.000 A 
ENDBRANCH  10  11
ENDBRANCH   1  10
TORSDOF 2
ENDMDL
MODEL 8
REMARK VINA RESULT:    -4.954      2.308      2.685
REMARK INTER + INTRA:          -5.683
REMARK INTER:                  -5.539
REMARK INTRA:                  -0.144
REMARK UNBOUND:                -0.150
REMARK  Name = 1550473
REMARK  2 active torsions:
REMARK  status: ('A' for Active; 'I' for Inactive)
REMARK    1  A    between atoms: N_1  and  C_4
REMARK    2  A    between atoms: C_4  and  C_5
REMARK                            x       y       z     vdW  Elec       q    Type
REMARK                         _______ _______ _______ _____ _____    ______ ____
ROOT
ATOM      1  N   UNL     1      -3.710  -2.265   2.122  0.00  0.00    -0.354 N 
ATOM      2  N   UNL     1      -4.156  -2.671   4.359  0.00  0.00    -0.372 N 
ATOM      3  N   UNL     1      -2.364  -1.348   3.807  0.00  0.00    -0.372 N 
ATOM      4  C   UNL     1      -3.405  -2.091   3.415  0.00  0.00    +0.166 C 
ATOM      5  H   UNL     1      -4.494  -2.864   1.890  0.00  0.00    +0.163 HD
ATOM      6  H   UNL     1      -3.952  -2.555   5.342  0.00  0.00    +0.159 HD
ATOM      7  H   UNL     1      -4.966  -3.232   4.124  0.00  0.00    +0.159 HD
ATOM      8  H   UNL     1      -1.754  -0.888   3.145  0.00  0.00    +0.159 HD
ATOM      9  H   UNL     1      -2.137  -1.230   4.787  0.00  0.00    +0.159 HD
ENDROOT
BRANCH   1  10
ATOM     10  C   UNL     1      -2.988  -1.633   1.019  0.00  0.00    +0.151 C 
BRANCH  10  11
ATOM     11  C   UNL     1      -2.517  -2.698   0.067  0.00  0.00    -0.028 A 
ATOM     12  C   UNL     1      -2.715  -2.556  -1.314  0.00  0.00    +0.005 A 
ATOM     13  C   UNL     1      -1.866  -3.848   0.540  0.00  0.00    +0.005 A 
ATOM     14  C   UNL     1      -2.250  -3.530  -2.201  0.00  0.00    +0.000 A 
ATOM     15  C   UNL     1      -1.405  -4.819  -0.349  0.00  0.00    +0.000 A 
ATOM     16  C   UNL     1      -1.595  -4.658  -1.720  0.00  0.00    +0.000 A 
ENDBRANCH  10  11
ENDBRANCH   1  10
TORSDOF 2
ENDMDL
MODEL 9
REMARK VINA RESULT:    -4.890     13.739     15.233
REMARK INTER + INTRA:          -5.612
REMARK INTER:                  -5.511
REMARK INTRA:                  -0.102
REMARK UNBOUND:                -0.150
REMARK  Name = 1550473
REMARK  2 active torsions:
REMARK  status: ('A' for Active; 'I' for Inactive)
REMARK    1  A    between atoms: N_1  and  C_4
REMARK    2  A    between atoms: C_4  and  C_5
REMARK                            x       y       z     vdW  Elec       q    Type
REMARK                         _______ _______ _______ _____ _____    ______ ____
ROOT
ATOM      1  N   UNL     1      -1.158  -1.343 -11.294  0.00  0.00    -0.354 N 
ATOM      2  N   UNL     1      -1.342  -1.989  -9.078  0.00  0.00    -0.372 N 
ATOM      3  N   UNL     1      -3.251  -1.774 -10.332  0.00  0.00    -0.372 N 
ATOM      4  C   UNL     1      -1.919  -1.697 -10.250  0.00  0.00    +0.166 C 
ATOM      5  H   UNL     1      -0.156  -1.275 -11.159  0.00  0.00    +0.163 HD
ATOM      6  H   UNL     1      -1.890  -2.262  -8.273  0.00  0.00    +0.159 HD
ATOM      7  H   UNL     1      -0.337  -1.964  -8.958  0.00  0.00    +0.159 HD
ATOM      8  H   UNL     1      -3.748  -1.561 -11.187  0.00  0.00    +0.159 HD
ATOM      9  H   UNL     1      -3.817  -2.034  -9.535  0.00  0.00    +0.159 HD
ENDROOT
BRANCH   1  10
ATOM     10  C   UNL     1      -1.683  -1.058 -12.629  0.00  0.00    +0.151 C 
BRANCH  10  11
ATOM     11  C   UNL     1      -0.538  -0.728 -13.546  0.00  0.00    -0.028 A 
ATOM     12  C   UNL     1       0.513  -1.638 -13.729  0.00  0.00    +0.005 A 
ATOM     13  C   UNL     1      -0.502   0.491 -14.240  0.00  0.00    +0.005 A 
ATOM     14  C   UNL     1       1.562  -1.345 -14.605  0.00  0.00    +0.000 A 
ATOM     15  C   UNL     1       0.547   0.781 -15.113  0.00  0.00    +0.000 A 
ATOM     16  C   UNL     1       1.578  -0.138 -15.297  0.00  0.00    +0.000 A 
ENDBRANCH  10  11
ENDBRANCH   1  10
TORSDOF 2
ENDMDL
