MODEL 1
REMARK VINA RESULT:    -4.992      0.000      0.000
REMARK INTER + INTRA:          -5.686
REMARK INTER:                  -5.575
REMARK INTRA:                  -0.111
REMARK UNBOUND:                -0.111
REMARK  Name = 1550473
REMARK  2 active torsions:
REMARK  status: ('A' for Active; 'I' for Inactive)
REMARK    1  A    between atoms: N_1  and  C_4
REMARK    2  A    between atoms: C_4  and  C_5
REMARK                            x       y       z     vdW  Elec       q    Type
REMARK                         _______ _______ _______ _____ _____    ______ ____
ROOT
ATOM      1  N   UNL     1       0.145   7.475   8.619  0.00  0.00    -0.354 N 
ATOM      2  N   UNL     1       0.144   6.781   6.409  0.00  0.00    -0.372 N 
ATOM      3  N   UNL     1      -1.433   8.300   7.095  0.00  0.00    -0.372 N 
ATOM      4  C   UNL     1      -0.384   7.525   7.389  0.00  0.00    +0.166 C 
ATOM      5  H   UNL     1       0.921   6.845   8.784  0.00  0.00    +0.163 HD
ATOM      6  H   UNL     1      -0.231   6.800   5.470  0.00  0.00    +0.159 HD
ATOM      7  H   UNL     1       0.949   6.187   6.566  0.00  0.00    +0.159 HD
ATOM      8  H   UNL     1      -1.881   8.881   7.791  0.00  0.00    +0.159 HD
ATOM      9  H   UNL     1      -1.830   8.324   6.164  0.00  0.00    +0.159 HD
ENDROOT
BRANCH   1  10
ATOM     10  C   UNL     1      -0.321   8.286   9.742  0.00  0.00    +0.151 C 
BRANCH  10  11
ATOM     11  C   UNL     1       0.166   7.672  11.026  0.00  0.00    -0.028 A 
ATOM     12  C   UNL     1      -0.126   6.335  11.332  0.00  0.00    +0.005 A 
ATOM     13  C   UNL     1       0.925   8.422  11.938  0.00  0.00    +0.005 A 
ATOM     14  C   UNL     1       0.352   5.756  12.510  0.00  0.00    +0.000 A 
ATOM     15  C   UNL     1       1.400   7.840  13.114  0.00  0.00    +0.000 A 
ATOM     16  C   UNL     1       1.115   6.507  13.398  0.00  0.00    +0.000 A 
ENDBRANCH  10  11
ENDBRANCH   1  10
TORSDOF 2
ENDMDL
MODEL 2
REMARK VINA RESULT:    -4.825     31.282     33.108
REMARK INTER + INTRA:          -5.500
REMARK INTER:                  -5.362
REMARK INTRA:                  -0.138
REMARK UNBOUND:                -0.111
REMARK  Name = 1550473
REMARK  2 active torsions:
REMARK  status: ('A' for Active; 'I' for Inactive)
REMARK    1  A    between atoms: N_1  and  C_4
REMARK    2  A    between atoms: C_4  and  C_5
REMARK                            x       y       z     vdW  Elec       q    Type
REMARK                         _______ _______ _______ _____ _____    ______ ____
ROOT
ATOM      1  N   UNL     1     -12.668  -3.472 -20.222  0.00  0.00    -0.354 N 
ATOM      2  N   UNL     1     -13.699  -2.567 -22.089  0.00  0.00    -0.372 N 
ATOM      3  N   UNL     1     -14.989  -3.622 -20.511  0.00  0.00    -0.372 N 
ATOM      4  C   UNL     1     -13.781  -3.228 -20.927  0.00  0.00    +0.166 C 
ATOM      5  H   UNL     1     -11.779  -3.173 -20.606  0.00  0.00    +0.163 HD
ATOM      6  H   UNL     1     -14.521  -2.365 -22.641  0.00  0.00    +0.159 HD
ATOM      7  H   UNL     1     -12.814  -2.230 -22.448  0.00  0.00    +0.159 HD
ATOM      8  H   UNL     1     -15.118  -4.130 -19.646  0.00  0.00    +0.159 HD
ATOM      9  H   UNL     1     -15.823  -3.440 -21.056  0.00  0.00    +0.159 HD
ENDROOT
BRANCH   1  10
ATOM     10  C   UNL     1     -12.655  -4.135 -18.919  0.00  0.00    +0.151 C 
BRANCH  10  11
ATOM     11  C   UNL     1     -11.832  -3.320 -17.961  0.00  0.00    -0.028 A 
ATOM     12  C   UNL     1     -11.044  -3.949 -16.986  0.00  0.00    +0.005 A 
ATOM     13  C   UNL     1     -11.830  -1.918 -18.027  0.00  0.00    +0.005 A 
ATOM     14  C   UNL     1     -10.255  -3.193 -16.115  0.00  0.00    +0.000 A 
ATOM     15  C   UNL     1     -11.042  -1.167 -17.155  0.00  0.00    +0.000 A 
ATOM     16  C   UNL     1     -10.253  -1.805 -16.201  0.00  0.00    +0.000 A 
ENDBRANCH  10  11
ENDBRANCH   1  10
TORSDOF 2
ENDMDL
MODEL 3
REMARK VINA RESULT:    -4.780      3.017      4.853
REMARK INTER + INTRA:          -5.449
REMARK INTER:                  -5.337
REMARK INTRA:                  -0.112
REMARK UNBOUND:                -0.111
REMARK  Name = 1550473
REMARK  2 active torsions:
REMARK  status: ('A' for Active; 'I' for Inactive)
REMARK    1  A    between atoms: N_1  and  C_4
REMARK    2  A    between atoms: C_4  and  C_5
REMARK                            x       y       z     vdW  Elec       q    Type
REMARK                         _______ _______ _______ _____ _____    ______ ____
ROOT
ATOM      1  N   UNL     1       0.099   5.272  11.091  0.00  0.00    -0.354 N 
ATOM      2  N   UNL     1       1.345   3.320  11.094  0.00  0.00    -0.372 N 
ATOM      3  N   UNL     1      -0.713   3.324  12.108  0.00  0.00    -0.372 N 
ATOM      4  C   UNL     1       0.233   3.984  11.433  0.00  0.00    +0.166 C 
ATOM      5  H   UNL     1       0.866   5.724  10.605  0.00  0.00    +0.163 HD
ATOM      6  H   UNL     1       1.473   2.346  11.335  0.00  0.00    +0.159 HD
ATOM      7  H   UNL     1       2.090   3.761  10.569  0.00  0.00    +0.159 HD
ATOM      8  H   UNL     1      -1.573   3.770  12.399  0.00  0.00    +0.159 HD
ATOM      9  H   UNL     1      -0.599   2.353  12.369  0.00  0.00    +0.159 HD
ENDROOT
BRANCH   1  10
ATOM     10  C   UNL     1      -1.094   6.071  11.364  0.00  0.00    +0.151 C 
BRANCH  10  11
ATOM     11  C   UNL     1      -1.256   7.100  10.280  0.00  0.00    -0.028 A 
ATOM     12  C   UNL     1      -0.149   7.829   9.819  0.00  0.00    +0.005 A 
ATOM     13  C   UNL     1      -2.512   7.347   9.704  0.00  0.00    +0.005 A 
ATOM     14  C   UNL     1      -0.293   8.764   8.791  0.00  0.00    +0.000 A 
ATOM     15  C   UNL     1      -2.651   8.282   8.678  0.00  0.00    +0.000 A 
ATOM     16  C   UNL     1      -1.542   8.988   8.221  0.00  0.00    +0.000 A 
ENDBRANCH  10  11
ENDBRANCH   1  10
TORSDOF 2
ENDMDL
MODEL 4
REMARK VINA RESULT:    -4.773     22.781     24.791
REMARK INTER + INTRA:          -5.442
REMARK INTER:                  -5.325
REMARK INTRA:                  -0.116
REMARK UNBOUND:                -0.111
REMARK  Name = 1550473
REMARK  2 active torsions:
REMARK  status: ('A' for Active; 'I' for Inactive)
REMARK    1  A    between atoms: N_1  and  C_4
REMARK    2  A    between atoms: C_4  and  C_5
REMARK                            x       y       z     vdW  Elec       q    Type
REMARK                         _______ _______ _______ _____ _____    ______ ____
ROOT
ATOM      1  N   UNL     1       2.304   1.470 -12.273  0.00  0.00    -0.354 N 
ATOM      2  N   UNL     1       0.763   2.445 -10.844  0.00  0.00    -0.372 N 
ATOM      3  N   UNL     1       0.046   1.651 -12.874  0.00  0.00    -0.372 N 
ATOM      4  C   UNL     1       1.046   1.848 -12.009  0.00  0.00    +0.166 C 
ATOM      5  H   UNL     1       3.022   1.675 -11.588  0.00  0.00    +0.163 HD
ATOM      6  H   UNL     1      -0.177   2.738 -10.616  0.00  0.00    +0.159 HD
ATOM      7  H   UNL     1       1.475   2.607 -10.142  0.00  0.00    +0.159 HD
ATOM      8  H   UNL     1       0.194   1.212 -13.773  0.00  0.00    +0.159 HD
ATOM      9  H   UNL     1      -0.900   1.948 -12.669  0.00  0.00    +0.159 HD
ENDROOT
BRANCH   1  10
ATOM     10  C   UNL     1       2.707   0.765 -13.488  0.00  0.00    +0.151 C 
BRANCH  10  11
ATOM     11  C   UNL     1       4.139   1.103 -13.800  0.00  0.00    -0.028 A 
ATOM     12  C   UNL     1       4.564   1.242 -15.129  0.00  0.00    +0.005 A 
ATOM     13  C   UNL     1       5.074   1.292 -12.771  0.00  0.00    +0.005 A 
ATOM     14  C   UNL     1       5.887   1.586 -15.419  0.00  0.00    +0.000 A 
ATOM     15  C   UNL     1       6.394   1.635 -13.064  0.00  0.00    +0.000 A 
ATOM     16  C   UNL     1       6.799   1.784 -14.388  0.00  0.00    +0.000 A 
ENDBRANCH  10  11
ENDBRANCH   1  10
TORSDOF 2
ENDMDL
MODEL 5
REMARK VINA RESULT:    -4.717     10.028     12.054
REMARK INTER + INTRA:          -5.379
REMARK INTER:                  -5.273
REMARK INTRA:                  -0.106
REMARK UNBOUND:                -0.111
REMARK  Name = 1550473
REMARK  2 active torsions:
REMARK  status: ('A' for Active; 'I' for Inactive)
REMARK    1  A    between atoms: N_1  and  C_4
REMARK    2  A    between atoms: C_4  and  C_5
REMARK                            x       y       z     vdW  Elec       q    Type
REMARK                         _______ _______ _______ _____ _____    ______ ____
ROOT
ATOM      1  N   UNL     1       3.223  12.770   2.122  0.00  0.00    -0.354 N 
ATOM      2  N   UNL     1       4.230  11.870   4.003  0.00  0.00    -0.372 N 
ATOM      3  N   UNL     1       5.473  12.116   2.090  0.00  0.00    -0.372 N 
ATOM      4  C   UNL     1       4.304  12.258   2.724  0.00  0.00    +0.166 C 
ATOM      5  H   UNL     1       2.359  12.824   2.648  0.00  0.00    +0.163 HD
ATOM      6  H   UNL     1       5.030  11.483   4.485  0.00  0.00    +0.159 HD
ATOM      7  H   UNL     1       3.377  11.967   4.541  0.00  0.00    +0.159 HD
ATOM      8  H   UNL     1       5.594  12.384   1.123  0.00  0.00    +0.159 HD
ATOM      9  H   UNL     1       6.282  11.720   2.552  0.00  0.00    +0.159 HD
ENDROOT
BRANCH   1  10
ATOM     10  C   UNL     1       3.213  13.272   0.749  0.00  0.00    +0.151 C 
BRANCH  10  11
ATOM     11  C   UNL     1       1.800  13.607   0.359  0.00  0.00    -0.028 A 
ATOM     12  C   UNL     1       1.271  13.156  -0.860  0.00  0.00    +0.005 A 
ATOM     13  C   UNL     1       0.982  14.371   1.206  0.00  0.00    +0.005 A 
ATOM     14  C   UNL     1      -0.051  13.442  -1.209  0.00  0.00    +0.000 A 
ATOM     15  C   UNL     1      -0.337  14.655   0.853  0.00  0.00    +0.000 A 
ATOM     16  C   UNL     1      -0.854  14.188  -0.353  0.00  0.00    +0.000 A 
ENDBRANCH  10  11
ENDBRANCH   1  10
TORSDOF 2
ENDMDL
MODEL 6
REMARK VINA RESULT:    -4.579     12.171     13.252
REMARK INTER + INTRA:          -5.225
REMARK INTER:                  -5.102
REMARK INTRA:                  -0.123
REMARK UNBOUND:                -0.111
REMARK  Name = 1550473
REMARK  2 active torsions:
REMARK  status: ('A' for Active; 'I' for Inactive)
REMARK    1  A    between atoms: N_1  and  C_4
REMARK    2  A    between atoms: C_4  and  C_5
REMARK                            x       y       z     vdW  Elec       q    Type
REMARK                         _______ _______ _______ _____ _____    ______ ____
ROOT
ATOM      1  N   UNL     1       4.436  13.125  -0.017  0.00  0.00    -0.354 N 
ATOM      2  N   UNL     1       6.689  12.596  -0.104  0.00  0.00    -0.372 N 
ATOM      3  N   UNL     1       5.797  13.326   1.880  0.00  0.00    -0.372 N 
ATOM      4  C   UNL     1       5.626  13.020   0.589  0.00  0.00    +0.166 C 
ATOM      5  H   UNL     1       4.379  12.906  -1.005  0.00  0.00    +0.163 HD
ATOM      6  H   UNL     1       7.599  12.503   0.327  0.00  0.00    +0.159 HD
ATOM      7  H   UNL     1       6.619  12.334  -1.080  0.00  0.00    +0.159 HD
ATOM      8  H   UNL     1       5.036  13.658   2.457  0.00  0.00    +0.159 HD
ATOM      9  H   UNL     1       6.703  13.251   2.327  0.00  0.00    +0.159 HD
ENDROOT
BRANCH   1  10
ATOM     10  C   UNL     1       3.205  13.525   0.661  0.00  0.00    +0.151 C 
BRANCH  10  11
ATOM     11  C   UNL     1       2.053  13.400  -0.297  0.00  0.00    -0.028 A 
ATOM     12  C   UNL     1       0.763  13.799   0.084  0.00  0.00    +0.005 A 
ATOM     13  C   UNL     1       2.245  12.888  -1.589  0.00  0.00    +0.005 A 
ATOM     14  C   UNL     1      -0.302  13.711  -0.816  0.00  0.00    +0.000 A 
ATOM     15  C   UNL     1       1.179  12.801  -2.485  0.00  0.00    +0.000 A 
ATOM     16  C   UNL     1      -0.093  13.215  -2.098  0.00  0.00    +0.000 A 
ENDBRANCH  10  11
ENDBRANCH   1  10
TORSDOF 2
ENDMDL
MODEL 7
REMARK VINA RESULT:    -4.466     23.535     25.887
REMARK INTER + INTRA:          -5.099
REMARK INTER:                  -4.978
REMARK INTRA:                  -0.120
REMARK UNBOUND:                -0.111
REMARK  Name = 1550473
REMARK  2 active torsions:
REMARK  status: ('A' for Active; 'I' for Inactive)
REMARK    1  A    between atoms: N_1  and  C_4
REMARK    2  A    between atoms: C_4  and  C_5
REMARK                            x       y       z     vdW  Elec       q    Type
REMARK                         _______ _______ _______ _____ _____    ______ ____
ROOT
ATOM      1  N   UNL     1      -2.599  -0.405 -13.240  0.00  0.00    -0.354 N 
ATOM      2  N   UNL     1      -1.650   1.537 -12.407  0.00  0.00    -0.372 N 
ATOM      3  N   UNL     1      -2.341  -0.080 -10.933  0.00  0.00    -0.372 N 
ATOM      4  C   UNL     1      -2.204   0.337 -12.196  0.00  0.00    +0.166 C 
ATOM      5  H   UNL     1      -2.495  -0.019 -14.171  0.00  0.00    +0.163 HD
ATOM      6  H   UNL     1      -1.339   2.118 -11.640  0.00  0.00    +0.159 HD
ATOM      7  H   UNL     1      -1.505   1.900 -13.341  0.00  0.00    +0.159 HD
ATOM      8  H   UNL     1      -2.757  -0.974 -10.706  0.00  0.00    +0.159 HD
ATOM      9  H   UNL     1      -2.047   0.492 -10.151  0.00  0.00    +0.159 HD
ENDROOT
BRANCH   1  10
ATOM     10  C   UNL     1      -3.164  -1.748 -13.121  0.00  0.00    +0.151 C 
BRANCH  10  11
ATOM     11  C   UNL     1      -4.548  -1.752 -13.707  0.00  0.00    -0.028 A 
ATOM     12  C   UNL     1      -5.307  -0.573 -13.750  0.00  0.00    +0.005 A 
ATOM     13  C   UNL     1      -5.106  -2.930 -14.227  0.00  0.00    +0.005 A 
ATOM     14  C   UNL     1      -6.582  -0.569 -14.322  0.00  0.00    +0.000 A 
ATOM     15  C   UNL     1      -6.379  -2.923 -14.796  0.00  0.00    +0.000 A 
ATOM     16  C   UNL     1      -7.116  -1.742 -14.846  0.00  0.00    +0.000 A 
ENDBRANCH  10  11
ENDBRANCH   1  10
TORSDOF 2
ENDMDL
MODEL 8
REMARK VINA RESULT:    -4.424     22.124     23.497
REMARK INTER + INTRA:          -5.052
REMARK INTER:                  -4.916
REMARK INTRA:                  -0.136
REMARK UNBOUND:                -0.111
REMARK  Name = 1550473
REMARK  2 active torsions:
REMARK  status: ('A' for Active; 'I' for Inactive)
REMARK    1  A    between atoms: N_1  and  C_4
REMARK    2  A    between atoms: C_4  and  C_5
REMARK                            x       y       z     vdW  Elec       q    Type
REMARK                         _______ _______ _______ _____ _____    ______ ____
ROOT
ATOM      1  N   UNL     1       0.442   0.571 -11.344  0.00  0.00    -0.354 N 
ATOM      2  N   UNL     1      -1.718  -0.052 -11.898  0.00  0.00    -0.372 N 
ATOM      3  N   UNL     1      -1.344   2.069 -11.107  0.00  0.00    -0.372 N 
ATOM      4  C   UNL     1      -0.860   0.870 -11.445  0.00  0.00    +0.166 C 
ATOM      5  H   UNL     1       0.742  -0.366 -11.588  0.00  0.00    +0.163 HD
ATOM      6  H   UNL     1      -2.706   0.145 -11.989  0.00  0.00    +0.159 HD
ATOM      7  H   UNL     1      -1.409  -0.973 -12.185  0.00  0.00    +0.159 HD
ATOM      8  H   UNL     1      -0.750   2.806 -10.752  0.00  0.00    +0.159 HD
ATOM      9  H   UNL     1      -2.332   2.282 -11.179  0.00  0.00    +0.159 HD
ENDROOT
BRANCH   1  10
ATOM     10  C   UNL     1       1.467   1.520 -10.913  0.00  0.00    +0.151 C 
BRANCH  10  11
ATOM     11  C   UNL     1       2.662   1.397 -11.817  0.00  0.00    -0.028 A 
ATOM     12  C   UNL     1       2.494   1.220 -13.198  0.00  0.00    +0.005 A 
ATOM     13  C   UNL     1       3.965   1.463 -11.300  0.00  0.00    +0.005 A 
ATOM     14  C   UNL     1       3.604   1.136 -14.043  0.00  0.00    +0.000 A 
ATOM     15  C   UNL     1       5.071   1.378 -12.147  0.00  0.00    +0.000 A 
ATOM     16  C   UNL     1       4.889   1.217 -13.518  0.00  0.00    +0.000 A 
ENDBRANCH  10  11
ENDBRANCH   1  10
TORSDOF 2
ENDMDL
MODEL 9
REMARK VINA RESULT:    -4.389      3.298      4.603
REMARK INTER + INTRA:          -5.013
REMARK INTER:                  -4.915
REMARK INTRA:                  -0.098
REMARK UNBOUND:                -0.111
REMARK  Name = 1550473
REMARK  2 active torsions:
REMARK  status: ('A' for Active; 'I' for Inactive)
REMARK    1  A    between atoms: N_1  and  C_4
REMARK    2  A    between atoms: C_4  and  C_5
REMARK                            x       y       z     vdW  Elec       q    Type
REMARK                         _______ _______ _______ _____ _____    ______ ____
ROOT
ATOM      1  N   UNL     1      -3.611   5.701   7.010  0.00  0.00    -0.354 N 
ATOM      2  N   UNL     1      -4.367   3.867   5.814  0.00  0.00    -0.372 N 
ATOM      3  N   UNL     1      -5.902   5.251   6.810  0.00  0.00    -0.372 N 
ATOM      4  C   UNL     1      -4.624   4.953   6.554  0.00  0.00    +0.166 C 
ATOM      5  H   UNL     1      -2.664   5.404   6.806  0.00  0.00    +0.163 HD
ATOM      6  H   UNL     1      -5.111   3.285   5.453  0.00  0.00    +0.159 HD
ATOM      7  H   UNL     1      -3.421   3.599   5.573  0.00  0.00    +0.159 HD
ATOM      8  H   UNL     1      -6.163   6.053   7.368  0.00  0.00    +0.159 HD
ATOM      9  H   UNL     1      -6.660   4.674   6.468  0.00  0.00    +0.159 HD
ENDROOT
BRANCH   1  10
ATOM     10  C   UNL     1      -3.785   6.932   7.778  0.00  0.00    +0.151 C 
BRANCH  10  11
ATOM     11  C   UNL     1      -2.446   7.383   8.293  0.00  0.00    -0.028 A 
ATOM     12  C   UNL     1      -2.202   7.458   9.672  0.00  0.00    +0.005 A 
ATOM     13  C   UNL     1      -1.416   7.733   7.406  0.00  0.00    +0.005 A 
ATOM     14  C   UNL     1      -0.949   7.848  10.150  0.00  0.00    +0.000 A 
ATOM     15  C   UNL     1      -0.166   8.123   7.888  0.00  0.00    +0.000 A 
ATOM     16  C   UNL     1       0.068   8.178   9.260  0.00  0.00    +0.000 A 
ENDBRANCH  10  11
ENDBRANCH   1  10
TORSDOF 2
ENDMDL
