MODEL 1
REMARK VINA RESULT:    -5.419      0.000      0.000
REMARK INTER + INTRA:          -6.194
REMARK INTER:                  -6.052
REMARK INTRA:                  -0.141
REMARK UNBOUND:                -0.141
REMARK  Name = 1550473
REMARK  2 active torsions:
REMARK  status: ('A' for Active; 'I' for Inactive)
REMARK    1  A    between atoms: N_1  and  C_4
REMARK    2  A    between atoms: C_4  and  C_5
REMARK                            x       y       z     vdW  Elec       q    Type
REMARK                         _______ _______ _______ _____ _____    ______ ____
ROOT
ATOM      1  N   UNL     1      26.177   4.956   4.978  0.00  0.00    -0.354 N 
ATOM      2  N   UNL     1      26.856   3.291   6.437  0.00  0.00    -0.372 N 
ATOM      3  N   UNL     1      25.523   4.983   7.228  0.00  0.00    -0.372 N 
ATOM      4  C   UNL     1      26.180   4.423   6.207  0.00  0.00    +0.166 C 
ATOM      5  H   UNL     1      26.719   4.500   4.254  0.00  0.00    +0.163 HD
ATOM      6  H   UNL     1      26.874   2.863   7.353  0.00  0.00    +0.159 HD
ATOM      7  H   UNL     1      27.360   2.812   5.701  0.00  0.00    +0.159 HD
ATOM      8  H   UNL     1      24.998   5.841   7.122  0.00  0.00    +0.159 HD
ATOM      9  H   UNL     1      25.538   4.576   8.155  0.00  0.00    +0.159 HD
ENDROOT
BRANCH   1  10
ATOM     10  C   UNL     1      25.428   6.156   4.609  0.00  0.00    +0.151 C 
BRANCH  10  11
ATOM     11  C   UNL     1      24.663   5.888   3.343  0.00  0.00    -0.028 A 
ATOM     12  C   UNL     1      24.633   4.600   2.788  0.00  0.00    +0.005 A 
ATOM     13  C   UNL     1      23.960   6.916   2.696  0.00  0.00    +0.005 A 
ATOM     14  C   UNL     1      23.898   4.344   1.628  0.00  0.00    +0.000 A 
ATOM     15  C   UNL     1      23.228   6.657   1.538  0.00  0.00    +0.000 A 
ATOM     16  C   UNL     1      23.195   5.370   1.006  0.00  0.00    +0.000 A 
ENDBRANCH  10  11
ENDBRANCH   1  10
TORSDOF 2
ENDMDL
MODEL 2
REMARK VINA RESULT:    -5.204     29.321     30.354
REMARK INTER + INTRA:          -5.954
REMARK INTER:                  -5.810
REMARK INTRA:                  -0.144
REMARK UNBOUND:                -0.141
REMARK  Name = 1550473
REMARK  2 active torsions:
REMARK  status: ('A' for Active; 'I' for Inactive)
REMARK    1  A    between atoms: N_1  and  C_4
REMARK    2  A    between atoms: C_4  and  C_5
REMARK                            x       y       z     vdW  Elec       q    Type
REMARK                         _______ _______ _______ _____ _____    ______ ____
ROOT
ATOM      1  N   UNL     1      -3.420   1.254   0.696  0.00  0.00    -0.354 N 
ATOM      2  N   UNL     1      -1.998   2.856  -0.185  0.00  0.00    -0.372 N 
ATOM      3  N   UNL     1      -1.796   2.292   2.030  0.00  0.00    -0.372 N 
ATOM      4  C   UNL     1      -2.413   2.124   0.856  0.00  0.00    +0.166 C 
ATOM      5  H   UNL     1      -3.866   1.196  -0.212  0.00  0.00    +0.163 HD
ATOM      6  H   UNL     1      -1.238   3.518  -0.096  0.00  0.00    +0.159 HD
ATOM      7  H   UNL     1      -2.415   2.762  -1.103  0.00  0.00    +0.159 HD
ATOM      8  H   UNL     1      -2.066   1.774   2.856  0.00  0.00    +0.159 HD
ATOM      9  H   UNL     1      -1.042   2.958   2.142  0.00  0.00    +0.159 HD
ENDROOT
BRANCH   1  10
ATOM     10  C   UNL     1      -3.912   0.371   1.752  0.00  0.00    +0.151 C 
BRANCH  10  11
ATOM     11  C   UNL     1      -5.396   0.563   1.901  0.00  0.00    -0.028 A 
ATOM     12  C   UNL     1      -6.054   0.151   3.069  0.00  0.00    +0.005 A 
ATOM     13  C   UNL     1      -6.150   1.161   0.879  0.00  0.00    +0.005 A 
ATOM     14  C   UNL     1      -7.427   0.356   3.220  0.00  0.00    +0.000 A 
ATOM     15  C   UNL     1      -7.521   1.364   1.034  0.00  0.00    +0.000 A 
ATOM     16  C   UNL     1      -8.159   0.963   2.205  0.00  0.00    +0.000 A 
ENDBRANCH  10  11
ENDBRANCH   1  10
TORSDOF 2
ENDMDL
MODEL 3
REMARK VINA RESULT:    -5.188     31.690     32.639
REMARK INTER + INTRA:          -5.936
REMARK INTER:                  -5.846
REMARK INTRA:                  -0.090
REMARK UNBOUND:                -0.141
REMARK  Name = 1550473
REMARK  2 active torsions:
REMARK  status: ('A' for Active; 'I' for Inactive)
REMARK    1  A    between atoms: N_1  and  C_4
REMARK    2  A    between atoms: C_4  and  C_5
REMARK                            x       y       z     vdW  Elec       q    Type
REMARK                         _______ _______ _______ _____ _____    ______ ____
ROOT
ATOM      1  N   UNL     1      -6.774   0.348   3.779  0.00  0.00    -0.354 N 
ATOM      2  N   UNL     1      -4.562  -0.329   3.675  0.00  0.00    -0.372 N 
ATOM      3  N   UNL     1      -5.161   1.658   2.696  0.00  0.00    -0.372 N 
ATOM      4  C   UNL     1      -5.513   0.566   3.382  0.00  0.00    +0.166 C 
ATOM      5  H   UNL     1      -6.982  -0.514   4.270  0.00  0.00    +0.163 HD
ATOM      6  H   UNL     1      -3.601  -0.190   3.392  0.00  0.00    +0.159 HD
ATOM      7  H   UNL     1      -4.764  -1.167   4.205  0.00  0.00    +0.159 HD
ATOM      8  H   UNL     1      -5.833   2.369   2.438  0.00  0.00    +0.159 HD
ATOM      9  H   UNL     1      -4.207   1.809   2.394  0.00  0.00    +0.159 HD
ENDROOT
BRANCH   1  10
ATOM     10  C   UNL     1      -7.874   1.285   3.558  0.00  0.00    +0.151 C 
BRANCH  10  11
ATOM     11  C   UNL     1      -8.156   2.022   4.838  0.00  0.00    -0.028 A 
ATOM     12  C   UNL     1      -9.077   3.080   4.862  0.00  0.00    +0.005 A 
ATOM     13  C   UNL     1      -7.511   1.663   6.031  0.00  0.00    +0.005 A 
ATOM     14  C   UNL     1      -9.361   3.745   6.057  0.00  0.00    +0.000 A 
ATOM     15  C   UNL     1      -7.797   2.330   7.222  0.00  0.00    +0.000 A 
ATOM     16  C   UNL     1      -8.724   3.370   7.235  0.00  0.00    +0.000 A 
ENDBRANCH  10  11
ENDBRANCH   1  10
TORSDOF 2
ENDMDL
MODEL 4
REMARK VINA RESULT:    -5.055     30.417     31.424
REMARK INTER + INTRA:          -5.788
REMARK INTER:                  -5.660
REMARK INTRA:                  -0.127
REMARK UNBOUND:                -0.141
REMARK  Name = 1550473
REMARK  2 active torsions:
REMARK  status: ('A' for Active; 'I' for Inactive)
REMARK    1  A    between atoms: N_1  and  C_4
REMARK    2  A    between atoms: C_4  and  C_5
REMARK                            x       y       z     vdW  Elec       q    Type
REMARK                         _______ _______ _______ _____ _____    ______ ____
ROOT
ATOM      1  N   UNL     1      -7.417   1.118   4.892  0.00  0.00    -0.354 N 
ATOM      2  N   UNL     1      -7.818   1.493   7.142  0.00  0.00    -0.372 N 
ATOM      3  N   UNL     1      -8.333   3.144   5.634  0.00  0.00    -0.372 N 
ATOM      4  C   UNL     1      -7.854   1.918   5.873  0.00  0.00    +0.166 C 
ATOM      5  H   UNL     1      -7.037   0.212   5.142  0.00  0.00    +0.163 HD
ATOM      6  H   UNL     1      -8.144   2.073   7.903  0.00  0.00    +0.159 HD
ATOM      7  H   UNL     1      -7.480   0.569   7.385  0.00  0.00    +0.159 HD
ATOM      8  H   UNL     1      -8.381   3.526   4.699  0.00  0.00    +0.159 HD
ATOM      9  H   UNL     1      -8.653   3.744   6.383  0.00  0.00    +0.159 HD
ENDROOT
BRANCH   1  10
ATOM     10  C   UNL     1      -7.463   1.465   3.472  0.00  0.00    +0.151 C 
BRANCH  10  11
ATOM     11  C   UNL     1      -6.090   1.300   2.882  0.00  0.00    -0.028 A 
ATOM     12  C   UNL     1      -5.582   0.022   2.606  0.00  0.00    +0.005 A 
ATOM     13  C   UNL     1      -5.293   2.419   2.590  0.00  0.00    +0.005 A 
ATOM     14  C   UNL     1      -4.319  -0.130   2.029  0.00  0.00    +0.000 A 
ATOM     15  C   UNL     1      -4.032   2.262   2.015  0.00  0.00    +0.000 A 
ATOM     16  C   UNL     1      -3.546   0.988   1.733  0.00  0.00    +0.000 A 
ENDBRANCH  10  11
ENDBRANCH   1  10
TORSDOF 2
ENDMDL
MODEL 5
REMARK VINA RESULT:    -4.803     32.723     33.638
REMARK INTER + INTRA:          -5.506
REMARK INTER:                  -5.343
REMARK INTRA:                  -0.163
REMARK UNBOUND:                -0.141
REMARK  Name = 1550473
REMARK  2 active torsions:
REMARK  status: ('A' for Active; 'I' for Inactive)
REMARK    1  A    between atoms: N_1  and  C_4
REMARK    2  A    between atoms: C_4  and  C_5
REMARK                            x       y       z     vdW  Elec       q    Type
REMARK                         _______ _______ _______ _____ _____    ______ ____
ROOT
ATOM      1  N   UNL     1      -6.869   1.159   4.944  0.00  0.00    -0.354 N 
ATOM      2  N   UNL     1      -5.160   0.199   3.710  0.00  0.00    -0.372 N 
ATOM      3  N   UNL     1      -5.630   2.425   3.410  0.00  0.00    -0.372 N 
ATOM      4  C   UNL     1      -5.897   1.270   4.028  0.00  0.00    +0.166 C 
ATOM      5  H   UNL     1      -7.042   0.249   5.355  0.00  0.00    +0.163 HD
ATOM      6  H   UNL     1      -4.418   0.253   3.026  0.00  0.00    +0.159 HD
ATOM      7  H   UNL     1      -5.305  -0.699   4.156  0.00  0.00    +0.159 HD
ATOM      8  H   UNL     1      -6.153   3.268   3.600  0.00  0.00    +0.159 HD
ATOM      9  H   UNL     1      -4.899   2.496   2.713  0.00  0.00    +0.159 HD
ENDROOT
BRANCH   1  10
ATOM     10  C   UNL     1      -7.693   2.277   5.401  0.00  0.00    +0.151 C 
BRANCH  10  11
ATOM     11  C   UNL     1      -9.055   2.171   4.773  0.00  0.00    -0.028 A 
ATOM     12  C   UNL     1      -9.631   0.916   4.527  0.00  0.00    +0.005 A 
ATOM     13  C   UNL     1      -9.779   3.323   4.426  0.00  0.00    +0.005 A 
ATOM     14  C   UNL     1     -10.909   0.817   3.971  0.00  0.00    +0.000 A 
ATOM     15  C   UNL     1     -11.054   3.220   3.871  0.00  0.00    +0.000 A 
ATOM     16  C   UNL     1     -11.620   1.967   3.646  0.00  0.00    +0.000 A 
ENDBRANCH  10  11
ENDBRANCH   1  10
TORSDOF 2
ENDMDL
MODEL 6
REMARK VINA RESULT:    -4.783     32.400     33.338
REMARK INTER + INTRA:          -5.484
REMARK INTER:                  -5.354
REMARK INTRA:                  -0.130
REMARK UNBOUND:                -0.141
REMARK  Name = 1550473
REMARK  2 active torsions:
REMARK  status: ('A' for Active; 'I' for Inactive)
REMARK    1  A    between atoms: N_1  and  C_4
REMARK    2  A    between atoms: C_4  and  C_5
REMARK                            x       y       z     vdW  Elec       q    Type
REMARK                         _______ _______ _______ _____ _____    ______ ____
ROOT
ATOM      1  N   UNL     1      -7.851   0.844   3.110  0.00  0.00    -0.354 N 
ATOM      2  N   UNL     1      -8.408   0.821   0.862  0.00  0.00    -0.372 N 
ATOM      3  N   UNL     1      -6.504   1.919   1.521  0.00  0.00    -0.372 N 
ATOM      4  C   UNL     1      -7.582   1.197   1.845  0.00  0.00    +0.166 C 
ATOM      5  H   UNL     1      -8.700   0.322   3.293  0.00  0.00    +0.163 HD
ATOM      6  H   UNL     1      -8.229   1.069  -0.102  0.00  0.00    +0.159 HD
ATOM      7  H   UNL     1      -9.231   0.259   1.043  0.00  0.00    +0.159 HD
ATOM      8  H   UNL     1      -5.845   2.240   2.218  0.00  0.00    +0.159 HD
ATOM      9  H   UNL     1      -6.314   2.187   0.564  0.00  0.00    +0.159 HD
ENDROOT
BRANCH   1  10
ATOM     10  C   UNL     1      -6.987   1.157   4.247  0.00  0.00    +0.151 C 
BRANCH  10  11
ATOM     11  C   UNL     1      -7.751   2.008   5.224  0.00  0.00    -0.028 A 
ATOM     12  C   UNL     1      -7.642   1.779   6.604  0.00  0.00    +0.005 A 
ATOM     13  C   UNL     1      -8.581   3.047   4.777  0.00  0.00    +0.005 A 
ATOM     14  C   UNL     1      -8.328   2.588   7.513  0.00  0.00    +0.000 A 
ATOM     15  C   UNL     1      -9.265   3.852   5.688  0.00  0.00    +0.000 A 
ATOM     16  C   UNL     1      -9.136   3.624   7.056  0.00  0.00    +0.000 A 
ENDBRANCH  10  11
ENDBRANCH   1  10
TORSDOF 2
ENDMDL
MODEL 7
REMARK VINA RESULT:    -4.729     36.507     37.461
REMARK INTER + INTRA:          -5.423
REMARK INTER:                  -5.322
REMARK INTRA:                  -0.101
REMARK UNBOUND:                -0.141
REMARK  Name = 1550473
REMARK  2 active torsions:
REMARK  status: ('A' for Active; 'I' for Inactive)
REMARK    1  A    between atoms: N_1  and  C_4
REMARK    2  A    between atoms: C_4  and  C_5
REMARK                            x       y       z     vdW  Elec       q    Type
REMARK                         _______ _______ _______ _____ _____    ______ ____
ROOT
ATOM      1  N   UNL     1     -10.393   7.316  -8.148  0.00  0.00    -0.354 N 
ATOM      2  N   UNL     1     -10.450   7.083  -5.844  0.00  0.00    -0.372 N 
ATOM      3  N   UNL     1     -12.426   7.327  -6.984  0.00  0.00    -0.372 N 
ATOM      4  C   UNL     1     -11.092   7.244  -7.008  0.00  0.00    +0.166 C 
ATOM      5  H   UNL     1      -9.381   7.277  -8.096  0.00  0.00    +0.163 HD
ATOM      6  H   UNL     1     -10.951   7.021  -4.968  0.00  0.00    +0.159 HD
ATOM      7  H   UNL     1      -9.441   6.998  -5.800  0.00  0.00    +0.159 HD
ATOM      8  H   UNL     1     -12.970   7.454  -7.826  0.00  0.00    +0.159 HD
ATOM      9  H   UNL     1     -12.945   7.279  -6.115  0.00  0.00    +0.159 HD
ENDROOT
BRANCH   1  10
ATOM     10  C   UNL     1     -10.999   7.437  -9.473  0.00  0.00    +0.151 C 
BRANCH  10  11
ATOM     11  C   UNL     1      -9.913   7.422 -10.513  0.00  0.00    -0.028 A 
ATOM     12  C   UNL     1      -9.050   6.322 -10.625  0.00  0.00    +0.005 A 
ATOM     13  C   UNL     1      -9.747   8.501 -11.394  0.00  0.00    +0.005 A 
ATOM     14  C   UNL     1      -8.060   6.295 -11.611  0.00  0.00    +0.000 A 
ATOM     15  C   UNL     1      -8.757   8.470 -12.376  0.00  0.00    +0.000 A 
ATOM     16  C   UNL     1      -7.916   7.366 -12.486  0.00  0.00    +0.000 A 
ENDBRANCH  10  11
ENDBRANCH   1  10
TORSDOF 2
ENDMDL
MODEL 8
REMARK VINA RESULT:    -4.681      1.142      2.218
REMARK INTER + INTRA:          -5.370
REMARK INTER:                  -5.238
REMARK INTRA:                  -0.132
REMARK UNBOUND:                -0.141
REMARK  Name = 1550473
REMARK  2 active torsions:
REMARK  status: ('A' for Active; 'I' for Inactive)
REMARK    1  A    between atoms: N_1  and  C_4
REMARK    2  A    between atoms: C_4  and  C_5
REMARK                            x       y       z     vdW  Elec       q    Type
REMARK                         _______ _______ _______ _____ _____    ______ ____
ROOT
ATOM      1  N   UNL     1      25.066   5.579   4.663  0.00  0.00    -0.354 N 
ATOM      2  N   UNL     1      26.379   5.958   6.533  0.00  0.00    -0.372 N 
ATOM      3  N   UNL     1      26.715   4.045   5.312  0.00  0.00    -0.372 N 
ATOM      4  C   UNL     1      26.046   5.189   5.490  0.00  0.00    +0.166 C 
ATOM      5  H   UNL     1      24.577   6.442   4.870  0.00  0.00    +0.163 HD
ATOM      6  H   UNL     1      27.117   5.692   7.172  0.00  0.00    +0.159 HD
ATOM      7  H   UNL     1      25.920   6.843   6.711  0.00  0.00    +0.159 HD
ATOM      8  H   UNL     1      26.508   3.417   4.547  0.00  0.00    +0.159 HD
ATOM      9  H   UNL     1      27.448   3.755   5.947  0.00  0.00    +0.159 HD
ENDROOT
BRANCH   1  10
ATOM     10  C   UNL     1      24.662   4.840   3.468  0.00  0.00    +0.151 C 
BRANCH  10  11
ATOM     11  C   UNL     1      24.191   5.815   2.424  0.00  0.00    -0.028 A 
ATOM     12  C   UNL     1      24.204   7.193   2.680  0.00  0.00    +0.005 A 
ATOM     13  C   UNL     1      23.737   5.366   1.175  0.00  0.00    +0.005 A 
ATOM     14  C   UNL     1      23.795   8.101   1.700  0.00  0.00    +0.000 A 
ATOM     15  C   UNL     1      23.329   6.275   0.199  0.00  0.00    +0.000 A 
ATOM     16  C   UNL     1      23.360   7.642   0.461  0.00  0.00    +0.000 A 
ENDBRANCH  10  11
ENDBRANCH   1  10
TORSDOF 2
ENDMDL
MODEL 9
REMARK VINA RESULT:    -4.635     33.715     34.370
REMARK INTER + INTRA:          -5.318
REMARK INTER:                  -5.197
REMARK INTRA:                  -0.121
REMARK UNBOUND:                -0.141
REMARK  Name = 1550473
REMARK  2 active torsions:
REMARK  status: ('A' for Active; 'I' for Inactive)
REMARK    1  A    between atoms: N_1  and  C_4
REMARK    2  A    between atoms: C_4  and  C_5
REMARK                            x       y       z     vdW  Elec       q    Type
REMARK                         _______ _______ _______ _____ _____    ______ ____
ROOT
ATOM      1  N   UNL     1      -3.841 -12.170  13.317  0.00  0.00    -0.354 N 
ATOM      2  N   UNL     1      -3.964 -12.114  15.629  0.00  0.00    -0.372 N 
ATOM      3  N   UNL     1      -5.855 -11.672  14.407  0.00  0.00    -0.372 N 
ATOM      4  C   UNL     1      -4.555 -11.985  14.436  0.00  0.00    +0.166 C 
ATOM      5  H   UNL     1      -2.853 -12.376  13.406  0.00  0.00    +0.163 HD
ATOM      6  H   UNL     1      -4.478 -11.983  16.490  0.00  0.00    +0.159 HD
ATOM      7  H   UNL     1      -2.986 -12.364  15.715  0.00  0.00    +0.159 HD
ATOM      8  H   UNL     1      -6.359 -11.555  13.538  0.00  0.00    +0.159 HD
ATOM      9  H   UNL     1      -6.384 -11.526  15.258  0.00  0.00    +0.159 HD
ENDROOT
BRANCH   1  10
ATOM     10  C   UNL     1      -4.402 -12.106  11.969  0.00  0.00    +0.151 C 
BRANCH  10  11
ATOM     11  C   UNL     1      -3.339 -12.488  10.976  0.00  0.00    -0.028 A 
ATOM     12  C   UNL     1      -1.984 -12.457  11.336  0.00  0.00    +0.005 A 
ATOM     13  C   UNL     1      -3.681 -12.886   9.674  0.00  0.00    +0.005 A 
ATOM     14  C   UNL     1      -0.998 -12.840  10.424  0.00  0.00    +0.000 A 
ATOM     15  C   UNL     1      -2.694 -13.267   8.766  0.00  0.00    +0.000 A 
ATOM     16  C   UNL     1      -1.353 -13.246   9.142  0.00  0.00    +0.000 A 
ENDBRANCH  10  11
ENDBRANCH   1  10
TORSDOF 2
ENDMDL
