MODEL 1
REMARK VINA RESULT:    -4.948      0.000      0.000
REMARK INTER + INTRA:          -5.650
REMARK INTER:                  -5.527
REMARK INTRA:                  -0.123
REMARK UNBOUND:                -0.123
REMARK  Name = 1550473
REMARK  2 active torsions:
REMARK  status: ('A' for Active; 'I' for Inactive)
REMARK    1  A    between atoms: N_1  and  C_4
REMARK    2  A    between atoms: C_4  and  C_5
REMARK                            x       y       z     vdW  Elec       q    Type
REMARK                         _______ _______ _______ _____ _____    ______ ____
ROOT
ATOM      1  N   UNL     1      20.469   0.122  -1.633  0.00  0.00    -0.354 N 
ATOM      2  N   UNL     1      20.096   2.193  -2.600  0.00  0.00    -0.372 N 
ATOM      3  N   UNL     1      19.217   1.764  -0.525  0.00  0.00    -0.372 N 
ATOM      4  C   UNL     1      19.928   1.346  -1.577  0.00  0.00    +0.166 C 
ATOM      5  H   UNL     1      20.971  -0.145  -2.472  0.00  0.00    +0.163 HD
ATOM      6  H   UNL     1      19.703   3.125  -2.585  0.00  0.00    +0.159 HD
ATOM      7  H   UNL     1      20.637   1.940  -3.418  0.00  0.00    +0.159 HD
ATOM      8  H   UNL     1      19.048   1.170   0.277  0.00  0.00    +0.159 HD
ATOM      9  H   UNL     1      18.805   2.688  -0.496  0.00  0.00    +0.159 HD
ENDROOT
BRANCH   1  10
ATOM     10  C   UNL     1      20.390  -0.857  -0.551  0.00  0.00    +0.151 C 
BRANCH  10  11
ATOM     11  C   UNL     1      20.591  -2.235  -1.118  0.00  0.00    -0.028 A 
ATOM     12  C   UNL     1      21.190  -2.407  -2.375  0.00  0.00    +0.005 A 
ATOM     13  C   UNL     1      20.190  -3.373  -0.402  0.00  0.00    +0.005 A 
ATOM     14  C   UNL     1      21.405  -3.688  -2.889  0.00  0.00    +0.000 A 
ATOM     15  C   UNL     1      20.405  -4.650  -0.920  0.00  0.00    +0.000 A 
ATOM     16  C   UNL     1      21.014  -4.807  -2.162  0.00  0.00    +0.000 A 
ENDBRANCH  10  11
ENDBRANCH   1  10
TORSDOF 2
ENDMDL
MODEL 2
REMARK VINA RESULT:    -4.860     32.243     33.178
REMARK INTER + INTRA:          -5.552
REMARK INTER:                  -5.414
REMARK INTRA:                  -0.138
REMARK UNBOUND:                -0.123
REMARK  Name = 1550473
REMARK  2 active torsions:
REMARK  status: ('A' for Active; 'I' for Inactive)
REMARK    1  A    between atoms: N_1  and  C_4
REMARK    2  A    between atoms: C_4  and  C_5
REMARK                            x       y       z     vdW  Elec       q    Type
REMARK                         _______ _______ _______ _____ _____    ______ ____
ROOT
ATOM      1  N   UNL     1      -9.378   5.862 -13.607  0.00  0.00    -0.354 N 
ATOM      2  N   UNL     1      -9.864   7.842 -14.706  0.00  0.00    -0.372 N 
ATOM      3  N   UNL     1      -8.125   6.551 -15.463  0.00  0.00    -0.372 N 
ATOM      4  C   UNL     1      -9.117   6.738 -14.586  0.00  0.00    +0.166 C 
ATOM      5  H   UNL     1     -10.125   6.077 -12.956  0.00  0.00    +0.163 HD
ATOM      6  H   UNL     1      -9.693   8.519 -15.437  0.00  0.00    +0.159 HD
ATOM      7  H   UNL     1     -10.639   8.031 -14.082  0.00  0.00    +0.159 HD
ATOM      8  H   UNL     1      -7.521   5.741 -15.423  0.00  0.00    +0.159 HD
ATOM      9  H   UNL     1      -7.930   7.223 -16.195  0.00  0.00    +0.159 HD
ENDROOT
BRANCH   1  10
ATOM     10  C   UNL     1      -8.659   4.603 -13.422  0.00  0.00    +0.151 C 
BRANCH  10  11
ATOM     11  C   UNL     1      -9.649   3.511 -13.122  0.00  0.00    -0.028 A 
ATOM     12  C   UNL     1     -10.975   3.610 -13.568  0.00  0.00    +0.005 A 
ATOM     13  C   UNL     1      -9.265   2.373 -12.397  0.00  0.00    +0.005 A 
ATOM     14  C   UNL     1     -11.887   2.582 -13.316  0.00  0.00    +0.000 A 
ATOM     15  C   UNL     1     -10.179   1.349 -12.146  0.00  0.00    +0.000 A 
ATOM     16  C   UNL     1     -11.489   1.453 -12.608  0.00  0.00    +0.000 A 
ENDBRANCH  10  11
ENDBRANCH   1  10
TORSDOF 2
ENDMDL
MODEL 3
REMARK VINA RESULT:    -4.674      1.239      2.158
REMARK INTER + INTRA:          -5.343
REMARK INTER:                  -5.190
REMARK INTRA:                  -0.153
REMARK UNBOUND:                -0.123
REMARK  Name = 1550473
REMARK  2 active torsions:
REMARK  status: ('A' for Active; 'I' for Inactive)
REMARK    1  A    between atoms: N_1  and  C_4
REMARK    2  A    between atoms: C_4  and  C_5
REMARK                            x       y       z     vdW  Elec       q    Type
REMARK                         _______ _______ _______ _____ _____    ______ ____
ROOT
ATOM      1  N   UNL     1      20.787   0.800  -0.651  0.00  0.00    -0.354 N 
ATOM      2  N   UNL     1      19.601   2.588   0.219  0.00  0.00    -0.372 N 
ATOM      3  N   UNL     1      18.856   1.599  -1.713  0.00  0.00    -0.372 N 
ATOM      4  C   UNL     1      19.754   1.650  -0.723  0.00  0.00    +0.166 C 
ATOM      5  H   UNL     1      21.450   0.910   0.107  0.00  0.00    +0.163 HD
ATOM      6  H   UNL     1      18.830   3.242   0.194  0.00  0.00    +0.159 HD
ATOM      7  H   UNL     1      20.239   2.667   1.002  0.00  0.00    +0.159 HD
ATOM      8  H   UNL     1      18.919   0.918  -2.458  0.00  0.00    +0.159 HD
ATOM      9  H   UNL     1      18.084   2.252  -1.762  0.00  0.00    +0.159 HD
ENDROOT
BRANCH   1  10
ATOM     10  C   UNL     1      21.014  -0.292  -1.597  0.00  0.00    +0.151 C 
BRANCH  10  11
ATOM     11  C   UNL     1      20.719  -1.600  -0.917  0.00  0.00    -0.028 A 
ATOM     12  C   UNL     1      20.799  -1.711   0.479  0.00  0.00    +0.005 A 
ATOM     13  C   UNL     1      20.352  -2.731  -1.662  0.00  0.00    +0.005 A 
ATOM     14  C   UNL     1      20.496  -2.918   1.114  0.00  0.00    +0.000 A 
ATOM     15  C   UNL     1      20.050  -3.935  -1.025  0.00  0.00    +0.000 A 
ATOM     16  C   UNL     1      20.120  -4.027   0.363  0.00  0.00    +0.000 A 
ENDBRANCH  10  11
ENDBRANCH   1  10
TORSDOF 2
ENDMDL
MODEL 4
REMARK VINA RESULT:    -4.613     12.780     15.926
REMARK INTER + INTRA:          -5.275
REMARK INTER:                  -5.166
REMARK INTRA:                  -0.110
REMARK UNBOUND:                -0.123
REMARK  Name = 1550473
REMARK  2 active torsions:
REMARK  status: ('A' for Active; 'I' for Inactive)
REMARK    1  A    between atoms: N_1  and  C_4
REMARK    2  A    between atoms: C_4  and  C_5
REMARK                            x       y       z     vdW  Elec       q    Type
REMARK                         _______ _______ _______ _____ _____    ______ ____
ROOT
ATOM      1  N   UNL     1      14.023   8.729  -7.774  0.00  0.00    -0.354 N 
ATOM      2  N   UNL     1      15.888   7.497  -7.170  0.00  0.00    -0.372 N 
ATOM      3  N   UNL     1      15.186   7.448  -9.354  0.00  0.00    -0.372 N 
ATOM      4  C   UNL     1      15.020   7.898  -8.106  0.00  0.00    +0.166 C 
ATOM      5  H   UNL     1      13.933   9.010  -6.804  0.00  0.00    +0.163 HD
ATOM      6  H   UNL     1      16.653   6.873  -7.391  0.00  0.00    +0.159 HD
ATOM      7  H   UNL     1      15.824   7.816  -6.211  0.00  0.00    +0.159 HD
ATOM      8  H   UNL     1      14.562   7.708 -10.105  0.00  0.00    +0.159 HD
ATOM      9  H   UNL     1      15.939   6.813  -9.592  0.00  0.00    +0.159 HD
ENDROOT
BRANCH   1  10
ATOM     10  C   UNL     1      13.056   9.268  -8.729  0.00  0.00    +0.151 C 
BRANCH  10  11
ATOM     11  C   UNL     1      12.393  10.476  -8.127  0.00  0.00    -0.028 A 
ATOM     12  C   UNL     1      10.997  10.537  -8.007  0.00  0.00    +0.005 A 
ATOM     13  C   UNL     1      13.156  11.562  -7.670  0.00  0.00    +0.005 A 
ATOM     14  C   UNL     1      10.382  11.646  -7.420  0.00  0.00    +0.000 A 
ATOM     15  C   UNL     1      12.538  12.668  -7.086  0.00  0.00    +0.000 A 
ATOM     16  C   UNL     1      11.152  12.709  -6.959  0.00  0.00    +0.000 A 
ENDBRANCH  10  11
ENDBRANCH   1  10
TORSDOF 2
ENDMDL
MODEL 5
REMARK VINA RESULT:    -4.597     32.954     33.863
REMARK INTER + INTRA:          -5.257
REMARK INTER:                  -5.116
REMARK INTRA:                  -0.141
REMARK UNBOUND:                -0.123
REMARK  Name = 1550473
REMARK  2 active torsions:
REMARK  status: ('A' for Active; 'I' for Inactive)
REMARK    1  A    between atoms: N_1  and  C_4
REMARK    2  A    between atoms: C_4  and  C_5
REMARK                            x       y       z     vdW  Elec       q    Type
REMARK                         _______ _______ _______ _____ _____    ______ ____
ROOT
ATOM      1  N   UNL     1     -10.254   5.400 -14.644  0.00  0.00    -0.354 N 
ATOM      2  N   UNL     1      -8.907   7.283 -14.671  0.00  0.00    -0.372 N 
ATOM      3  N   UNL     1     -11.095   7.494 -14.012  0.00  0.00    -0.372 N 
ATOM      4  C   UNL     1     -10.097   6.715 -14.442  0.00  0.00    +0.166 C 
ATOM      5  H   UNL     1      -9.467   4.870 -15.000  0.00  0.00    +0.163 HD
ATOM      6  H   UNL     1      -8.757   8.273 -14.524  0.00  0.00    +0.159 HD
ATOM      7  H   UNL     1      -8.109   6.743 -14.983  0.00  0.00    +0.159 HD
ATOM      8  H   UNL     1     -12.018   7.127 -13.825  0.00  0.00    +0.159 HD
ATOM      9  H   UNL     1     -10.967   8.488 -13.869  0.00  0.00    +0.159 HD
ENDROOT
BRANCH   1  10
ATOM     10  C   UNL     1     -11.493   4.673 -14.373  0.00  0.00    +0.151 C 
BRANCH  10  11
ATOM     11  C   UNL     1     -11.178   3.452 -13.554  0.00  0.00    -0.028 A 
ATOM     12  C   UNL     1     -12.151   2.464 -13.345  0.00  0.00    +0.005 A 
ATOM     13  C   UNL     1      -9.906   3.276 -12.988  0.00  0.00    +0.005 A 
ATOM     14  C   UNL     1     -11.849   1.315 -12.610  0.00  0.00    +0.000 A 
ATOM     15  C   UNL     1      -9.609   2.128 -12.253  0.00  0.00    +0.000 A 
ATOM     16  C   UNL     1     -10.580   1.147 -12.066  0.00  0.00    +0.000 A 
ENDBRANCH  10  11
ENDBRANCH   1  10
TORSDOF 2
ENDMDL
MODEL 6
REMARK VINA RESULT:    -4.583     33.796     34.676
REMARK INTER + INTRA:          -5.242
REMARK INTER:                  -5.139
REMARK INTRA:                  -0.103
REMARK UNBOUND:                -0.123
REMARK  Name = 1550473
REMARK  2 active torsions:
REMARK  status: ('A' for Active; 'I' for Inactive)
REMARK    1  A    between atoms: N_1  and  C_4
REMARK    2  A    between atoms: C_4  and  C_5
REMARK                            x       y       z     vdW  Elec       q    Type
REMARK                         _______ _______ _______ _____ _____    ______ ____
ROOT
ATOM      1  N   UNL     1     -13.244  -0.466 -11.363  0.00  0.00    -0.354 N 
ATOM      2  N   UNL     1     -14.879  -1.305  -9.953  0.00  0.00    -0.372 N 
ATOM      3  N   UNL     1     -13.226  -2.713 -10.696  0.00  0.00    -0.372 N 
ATOM      4  C   UNL     1     -13.771  -1.492 -10.681  0.00  0.00    +0.166 C 
ATOM      5  H   UNL     1     -13.722   0.427 -11.334  0.00  0.00    +0.163 HD
ATOM      6  H   UNL     1     -15.297  -2.059  -9.425  0.00  0.00    +0.159 HD
ATOM      7  H   UNL     1     -15.329  -0.400  -9.890  0.00  0.00    +0.159 HD
ATOM      8  H   UNL     1     -12.393  -2.920 -11.230  0.00  0.00    +0.159 HD
ATOM      9  H   UNL     1     -13.637  -3.483 -10.184  0.00  0.00    +0.159 HD
ENDROOT
BRANCH   1  10
ATOM     10  C   UNL     1     -12.010  -0.550 -12.142  0.00  0.00    +0.151 C 
BRANCH  10  11
ATOM     11  C   UNL     1     -11.579   0.837 -12.530  0.00  0.00    -0.028 A 
ATOM     12  C   UNL     1     -12.473   1.710 -13.167  0.00  0.00    +0.005 A 
ATOM     13  C   UNL     1     -10.278   1.288 -12.257  0.00  0.00    +0.005 A 
ATOM     14  C   UNL     1     -12.082   3.009 -13.500  0.00  0.00    +0.000 A 
ATOM     15  C   UNL     1      -9.891   2.586 -12.592  0.00  0.00    +0.000 A 
ATOM     16  C   UNL     1     -10.794   3.446 -13.211  0.00  0.00    +0.000 A 
ENDBRANCH  10  11
ENDBRANCH   1  10
TORSDOF 2
ENDMDL
MODEL 7
REMARK VINA RESULT:    -4.533     19.625     22.178
REMARK INTER + INTRA:          -5.187
REMARK INTER:                  -5.021
REMARK INTRA:                  -0.166
REMARK UNBOUND:                -0.123
REMARK  Name = 1550473
REMARK  2 active torsions:
REMARK  status: ('A' for Active; 'I' for Inactive)
REMARK    1  A    between atoms: N_1  and  C_4
REMARK    2  A    between atoms: C_4  and  C_5
REMARK                            x       y       z     vdW  Elec       q    Type
REMARK                         _______ _______ _______ _____ _____    ______ ____
ROOT
ATOM      1  N   UNL     1       9.721  10.272  10.681  0.00  0.00    -0.354 N 
ATOM      2  N   UNL     1       9.501   8.612   9.082  0.00  0.00    -0.372 N 
ATOM      3  N   UNL     1       9.937  10.759   8.399  0.00  0.00    -0.372 N 
ATOM      4  C   UNL     1       9.721   9.894   9.396  0.00  0.00    +0.166 C 
ATOM      5  H   UNL     1       9.521   9.574  11.388  0.00  0.00    +0.163 HD
ATOM      6  H   UNL     1       9.499   8.296   8.121  0.00  0.00    +0.159 HD
ATOM      7  H   UNL     1       9.347   7.907   9.793  0.00  0.00    +0.159 HD
ATOM      8  H   UNL     1      10.103  11.741   8.570  0.00  0.00    +0.159 HD
ATOM      9  H   UNL     1       9.927  10.464   7.431  0.00  0.00    +0.159 HD
ENDROOT
BRANCH   1  10
ATOM     10  C   UNL     1      10.003  11.633  11.133  0.00  0.00    +0.151 C 
BRANCH  10  11
ATOM     11  C   UNL     1       8.703  12.348  11.382  0.00  0.00    -0.028 A 
ATOM     12  C   UNL     1       8.030  12.196  12.604  0.00  0.00    +0.005 A 
ATOM     13  C   UNL     1       8.142  13.182  10.403  0.00  0.00    +0.005 A 
ATOM     14  C   UNL     1       6.838  12.883  12.847  0.00  0.00    +0.000 A 
ATOM     15  C   UNL     1       6.952  13.865  10.649  0.00  0.00    +0.000 A 
ATOM     16  C   UNL     1       6.301  13.718  11.872  0.00  0.00    +0.000 A 
ENDBRANCH  10  11
ENDBRANCH   1  10
TORSDOF 2
ENDMDL
MODEL 8
REMARK VINA RESULT:    -4.456     23.894     24.724
REMARK INTER + INTRA:          -5.100
REMARK INTER:                  -4.960
REMARK INTRA:                  -0.141
REMARK UNBOUND:                -0.123
REMARK  Name = 1550473
REMARK  2 active torsions:
REMARK  status: ('A' for Active; 'I' for Inactive)
REMARK    1  A    between atoms: N_1  and  C_4
REMARK    2  A    between atoms: C_4  and  C_5
REMARK                            x       y       z     vdW  Elec       q    Type
REMARK                         _______ _______ _______ _____ _____    ______ ____
ROOT
ATOM      1  N   UNL     1      -3.017  -1.484 -10.421  0.00  0.00    -0.354 N 
ATOM      2  N   UNL     1      -4.969  -2.148 -11.475  0.00  0.00    -0.372 N 
ATOM      3  N   UNL     1      -5.113  -1.020  -9.483  0.00  0.00    -0.372 N 
ATOM      4  C   UNL     1      -4.355  -1.545 -10.450  0.00  0.00    +0.166 C 
ATOM      5  H   UNL     1      -2.498  -1.928 -11.170  0.00  0.00    +0.163 HD
ATOM      6  H   UNL     1      -5.977  -2.207 -11.527  0.00  0.00    +0.159 HD
ATOM      7  H   UNL     1      -4.449  -2.551 -12.246  0.00  0.00    +0.159 HD
ATOM      8  H   UNL     1      -4.711  -0.556  -8.679  0.00  0.00    +0.159 HD
ATOM      9  H   UNL     1      -6.124  -1.078  -9.510  0.00  0.00    +0.159 HD
ENDROOT
BRANCH   1  10
ATOM     10  C   UNL     1      -2.252  -0.804  -9.377  0.00  0.00    +0.151 C 
BRANCH  10  11
ATOM     11  C   UNL     1      -1.442   0.299 -10.001  0.00  0.00    -0.028 A 
ATOM     12  C   UNL     1      -0.690   1.171  -9.201  0.00  0.00    +0.005 A 
ATOM     13  C   UNL     1      -1.418   0.474 -11.394  0.00  0.00    +0.005 A 
ATOM     14  C   UNL     1       0.087   2.176  -9.782  0.00  0.00    +0.000 A 
ATOM     15  C   UNL     1      -0.643   1.479 -11.970  0.00  0.00    +0.000 A 
ATOM     16  C   UNL     1       0.112   2.329 -11.164  0.00  0.00    +0.000 A 
ENDBRANCH  10  11
ENDBRANCH   1  10
TORSDOF 2
ENDMDL
MODEL 9
REMARK VINA RESULT:    -4.388     24.024     24.591
REMARK INTER + INTRA:          -5.024
REMARK INTER:                  -4.892
REMARK INTRA:                  -0.132
REMARK UNBOUND:                -0.123
REMARK  Name = 1550473
REMARK  2 active torsions:
REMARK  status: ('A' for Active; 'I' for Inactive)
REMARK    1  A    between atoms: N_1  and  C_4
REMARK    2  A    between atoms: C_4  and  C_5
REMARK                            x       y       z     vdW  Elec       q    Type
REMARK                         _______ _______ _______ _____ _____    ______ ____
ROOT
ATOM      1  N   UNL     1      -0.753   0.408  -9.948  0.00  0.00    -0.354 N 
ATOM      2  N   UNL     1       0.702   2.206 -10.080  0.00  0.00    -0.372 N 
ATOM      3  N   UNL     1      -0.931   2.216  -8.468  0.00  0.00    -0.372 N 
ATOM      4  C   UNL     1      -0.339   1.599  -9.496  0.00  0.00    +0.166 C 
ATOM      5  H   UNL     1      -0.280   0.007 -10.750  0.00  0.00    +0.163 HD
ATOM      6  H   UNL     1       1.039   3.103  -9.758  0.00  0.00    +0.159 HD
ATOM      7  H   UNL     1       1.201   1.782 -10.852  0.00  0.00    +0.159 HD
ATOM      8  H   UNL     1      -1.725   1.814  -7.988  0.00  0.00    +0.159 HD
ATOM      9  H   UNL     1      -0.616   3.120  -8.139  0.00  0.00    +0.159 HD
ENDROOT
BRANCH   1  10
ATOM     10  C   UNL     1      -1.842  -0.361  -9.349  0.00  0.00    +0.151 C 
BRANCH  10  11
ATOM     11  C   UNL     1      -2.710  -0.918 -10.443  0.00  0.00    -0.028 A 
ATOM     12  C   UNL     1      -4.055  -1.231 -10.194  0.00  0.00    +0.005 A 
ATOM     13  C   UNL     1      -2.197  -1.129 -11.731  0.00  0.00    +0.005 A 
ATOM     14  C   UNL     1      -4.870  -1.720 -11.218  0.00  0.00    +0.000 A 
ATOM     15  C   UNL     1      -3.014  -1.618 -12.750  0.00  0.00    +0.000 A 
ATOM     16  C   UNL     1      -4.351  -1.911 -12.494  0.00  0.00    +0.000 A 
ENDBRANCH  10  11
ENDBRANCH   1  10
TORSDOF 2
ENDMDL
