MODEL 1
REMARK VINA RESULT:    -4.992      0.000      0.000
REMARK INTER + INTRA:          -5.751
REMARK INTER:                  -5.576
REMARK INTRA:                  -0.175
REMARK UNBOUND:                -0.175
REMARK  Name = 1550473
REMARK  2 active torsions:
REMARK  status: ('A' for Active; 'I' for Inactive)
REMARK    1  A    between atoms: N_1  and  C_4
REMARK    2  A    between atoms: C_4  and  C_5
REMARK                            x       y       z     vdW  Elec       q    Type
REMARK                         _______ _______ _______ _____ _____    ______ ____
ROOT
ATOM      1  N   UNL     1      -0.769  -4.056   9.490  0.00  0.00    -0.354 N 
ATOM      2  N   UNL     1       0.951  -2.892  10.516  0.00  0.00    -0.372 N 
ATOM      3  N   UNL     1      -1.124  -1.921  10.388  0.00  0.00    -0.372 N 
ATOM      4  C   UNL     1      -0.327  -2.962  10.125  0.00  0.00    +0.166 C 
ATOM      5  H   UNL     1      -0.107  -4.798   9.293  0.00  0.00    +0.163 HD
ATOM      6  H   UNL     1       1.312  -2.081  11.001  0.00  0.00    +0.159 HD
ATOM      7  H   UNL     1       1.599  -3.655  10.359  0.00  0.00    +0.159 HD
ATOM      8  H   UNL     1      -2.097  -1.908  10.114  0.00  0.00    +0.159 HD
ATOM      9  H   UNL     1      -0.778  -1.095  10.862  0.00  0.00    +0.159 HD
ENDROOT
BRANCH   1  10
ATOM     10  C   UNL     1      -2.155  -4.253   9.070  0.00  0.00    +0.151 C 
BRANCH  10  11
ATOM     11  C   UNL     1      -2.810  -5.246   9.990  0.00  0.00    -0.028 A 
ATOM     12  C   UNL     1      -2.482  -6.608   9.918  0.00  0.00    +0.005 A 
ATOM     13  C   UNL     1      -3.755  -4.830  10.940  0.00  0.00    +0.005 A 
ATOM     14  C   UNL     1      -3.069  -7.526  10.793  0.00  0.00    +0.000 A 
ATOM     15  C   UNL     1      -4.339  -5.750  11.811  0.00  0.00    +0.000 A 
ATOM     16  C   UNL     1      -3.994  -7.097  11.739  0.00  0.00    +0.000 A 
ENDBRANCH  10  11
ENDBRANCH   1  10
TORSDOF 2
ENDMDL
MODEL 2
REMARK VINA RESULT:    -4.937     33.258     34.254
REMARK INTER + INTRA:          -5.689
REMARK INTER:                  -5.594
REMARK INTRA:                  -0.094
REMARK UNBOUND:                -0.175
REMARK  Name = 1550473
REMARK  2 active torsions:
REMARK  status: ('A' for Active; 'I' for Inactive)
REMARK    1  A    between atoms: N_1  and  C_4
REMARK    2  A    between atoms: C_4  and  C_5
REMARK                            x       y       z     vdW  Elec       q    Type
REMARK                         _______ _______ _______ _____ _____    ______ ____
ROOT
ATOM      1  N   UNL     1      -5.457 -13.590 -23.315  0.00  0.00    -0.354 N 
ATOM      2  N   UNL     1      -7.141 -12.182 -24.056  0.00  0.00    -0.372 N 
ATOM      3  N   UNL     1      -5.048 -11.990 -24.977  0.00  0.00    -0.372 N 
ATOM      4  C   UNL     1      -5.869 -12.595 -24.113  0.00  0.00    +0.166 C 
ATOM      5  H   UNL     1      -6.121 -13.988 -22.660  0.00  0.00    +0.163 HD
ATOM      6  H   UNL     1      -7.481 -11.436 -24.647  0.00  0.00    +0.159 HD
ATOM      7  H   UNL     1      -7.813 -12.612 -23.432  0.00  0.00    +0.159 HD
ATOM      8  H   UNL     1      -4.075 -12.251 -25.065  0.00  0.00    +0.159 HD
ATOM      9  H   UNL     1      -5.367 -11.233 -25.570  0.00  0.00    +0.159 HD
ENDROOT
BRANCH   1  10
ATOM     10  C   UNL     1      -4.108 -14.151 -23.337  0.00  0.00    +0.151 C 
BRANCH  10  11
ATOM     11  C   UNL     1      -3.846 -14.854 -22.034  0.00  0.00    -0.028 A 
ATOM     12  C   UNL     1      -4.213 -16.197 -21.863  0.00  0.00    +0.005 A 
ATOM     13  C   UNL     1      -3.227 -14.184 -20.968  0.00  0.00    +0.005 A 
ATOM     14  C   UNL     1      -3.943 -16.859 -20.663  0.00  0.00    +0.000 A 
ATOM     15  C   UNL     1      -2.960 -14.848 -19.771  0.00  0.00    +0.000 A 
ATOM     16  C   UNL     1      -3.316 -16.186 -19.619  0.00  0.00    +0.000 A 
ENDBRANCH  10  11
ENDBRANCH   1  10
TORSDOF 2
ENDMDL
MODEL 3
REMARK VINA RESULT:    -4.894     15.287     16.390
REMARK INTER + INTRA:          -5.642
REMARK INTER:                  -5.491
REMARK INTRA:                  -0.151
REMARK UNBOUND:                -0.175
REMARK  Name = 1550473
REMARK  2 active torsions:
REMARK  status: ('A' for Active; 'I' for Inactive)
REMARK    1  A    between atoms: N_1  and  C_4
REMARK    2  A    between atoms: C_4  and  C_5
REMARK                            x       y       z     vdW  Elec       q    Type
REMARK                         _______ _______ _______ _____ _____    ______ ____
ROOT
ATOM      1  N   UNL     1     -11.692  -0.383  -3.741  0.00  0.00    -0.354 N 
ATOM      2  N   UNL     1     -13.865  -0.771  -4.443  0.00  0.00    -0.372 N 
ATOM      3  N   UNL     1     -12.476  -2.564  -4.090  0.00  0.00    -0.372 N 
ATOM      4  C   UNL     1     -12.662  -1.240  -4.087  0.00  0.00    +0.166 C 
ATOM      5  H   UNL     1     -11.887   0.610  -3.789  0.00  0.00    +0.163 HD
ATOM      6  H   UNL     1     -14.618  -1.394  -4.705  0.00  0.00    +0.159 HD
ATOM      7  H   UNL     1     -14.071   0.220  -4.445  0.00  0.00    +0.159 HD
ATOM      8  H   UNL     1     -11.590  -2.981  -3.837  0.00  0.00    +0.159 HD
ATOM      9  H   UNL     1     -13.214  -3.202  -4.361  0.00  0.00    +0.159 HD
ENDROOT
BRANCH   1  10
ATOM     10  C   UNL     1     -10.364  -0.792  -3.286  0.00  0.00    +0.151 C 
BRANCH  10  11
ATOM     11  C   UNL     1     -10.201  -0.412  -1.841  0.00  0.00    -0.028 A 
ATOM     12  C   UNL     1      -9.541  -1.269  -0.949  0.00  0.00    +0.005 A 
ATOM     13  C   UNL     1     -10.700   0.808  -1.358  0.00  0.00    +0.005 A 
ATOM     14  C   UNL     1      -9.363  -0.902   0.387  0.00  0.00    +0.000 A 
ATOM     15  C   UNL     1     -10.521   1.170  -0.023  0.00  0.00    +0.000 A 
ATOM     16  C   UNL     1      -9.850   0.316   0.849  0.00  0.00    +0.000 A 
ENDBRANCH  10  11
ENDBRANCH   1  10
TORSDOF 2
ENDMDL
MODEL 4
REMARK VINA RESULT:    -4.730     14.524     15.458
REMARK INTER + INTRA:          -5.458
REMARK INTER:                  -5.318
REMARK INTRA:                  -0.140
REMARK UNBOUND:                -0.175
REMARK  Name = 1550473
REMARK  2 active torsions:
REMARK  status: ('A' for Active; 'I' for Inactive)
REMARK    1  A    between atoms: N_1  and  C_4
REMARK    2  A    between atoms: C_4  and  C_5
REMARK                            x       y       z     vdW  Elec       q    Type
REMARK                         _______ _______ _______ _____ _____    ______ ____
ROOT
ATOM      1  N   UNL     1       0.073  -7.499  -4.888  0.00  0.00    -0.354 N 
ATOM      2  N   UNL     1       0.575  -5.337  -4.228  0.00  0.00    -0.372 N 
ATOM      3  N   UNL     1       2.294  -6.815  -4.580  0.00  0.00    -0.372 N 
ATOM      4  C   UNL     1       0.980  -6.566  -4.569  0.00  0.00    +0.166 C 
ATOM      5  H   UNL     1      -0.909  -7.256  -4.831  0.00  0.00    +0.163 HD
ATOM      6  H   UNL     1       1.236  -4.610  -3.986  0.00  0.00    +0.159 HD
ATOM      7  H   UNL     1      -0.406  -5.083  -4.216  0.00  0.00    +0.159 HD
ATOM      8  H   UNL     1       2.664  -7.724  -4.823  0.00  0.00    +0.159 HD
ATOM      9  H   UNL     1       2.970  -6.105  -4.330  0.00  0.00    +0.159 HD
ENDROOT
BRANCH   1  10
ATOM     10  C   UNL     1       0.412  -8.852  -5.325  0.00  0.00    +0.151 C 
BRANCH  10  11
ATOM     11  C   UNL     1      -0.443  -9.839  -4.578  0.00  0.00    -0.028 A 
ATOM     12  C   UNL     1      -0.723 -11.098  -5.129  0.00  0.00    +0.005 A 
ATOM     13  C   UNL     1      -0.971  -9.522  -3.317  0.00  0.00    +0.005 A 
ATOM     14  C   UNL     1      -1.492 -12.026  -4.422  0.00  0.00    +0.000 A 
ATOM     15  C   UNL     1      -1.739 -10.451  -2.616  0.00  0.00    +0.000 A 
ATOM     16  C   UNL     1      -1.997 -11.704  -3.167  0.00  0.00    +0.000 A 
ENDBRANCH  10  11
ENDBRANCH   1  10
TORSDOF 2
ENDMDL
MODEL 5
REMARK VINA RESULT:    -4.691     18.835     21.104
REMARK INTER + INTRA:          -5.414
REMARK INTER:                  -5.236
REMARK INTRA:                  -0.178
REMARK UNBOUND:                -0.175
REMARK  Name = 1550473
REMARK  2 active torsions:
REMARK  status: ('A' for Active; 'I' for Inactive)
REMARK    1  A    between atoms: N_1  and  C_4
REMARK    2  A    between atoms: C_4  and  C_5
REMARK                            x       y       z     vdW  Elec       q    Type
REMARK                         _______ _______ _______ _____ _____    ______ ____
ROOT
ATOM      1  N   UNL     1      -3.224  13.806  12.600  0.00  0.00    -0.354 N 
ATOM      2  N   UNL     1      -4.970  12.872  13.800  0.00  0.00    -0.372 N 
ATOM      3  N   UNL     1      -3.243  13.860  14.943  0.00  0.00    -0.372 N 
ATOM      4  C   UNL     1      -3.799  13.520  13.776  0.00  0.00    +0.166 C 
ATOM      5  H   UNL     1      -3.681  13.494  11.751  0.00  0.00    +0.163 HD
ATOM      6  H   UNL     1      -5.430  12.645  14.672  0.00  0.00    +0.159 HD
ATOM      7  H   UNL     1      -5.448  12.601  12.949  0.00  0.00    +0.159 HD
ATOM      8  H   UNL     1      -2.358  14.346  14.993  0.00  0.00    +0.159 HD
ATOM      9  H   UNL     1      -3.683  13.632  15.826  0.00  0.00    +0.159 HD
ENDROOT
BRANCH   1  10
ATOM     10  C   UNL     1      -1.976  14.556  12.462  0.00  0.00    +0.151 C 
BRANCH  10  11
ATOM     11  C   UNL     1      -2.293  15.961  12.031  0.00  0.00    -0.028 A 
ATOM     12  C   UNL     1      -2.832  16.212  10.760  0.00  0.00    +0.005 A 
ATOM     13  C   UNL     1      -2.061  17.046  12.890  0.00  0.00    +0.005 A 
ATOM     14  C   UNL     1      -3.154  17.514  10.370  0.00  0.00    +0.000 A 
ATOM     15  C   UNL     1      -2.383  18.345  12.496  0.00  0.00    +0.000 A 
ATOM     16  C   UNL     1      -2.932  18.578  11.238  0.00  0.00    +0.000 A 
ENDBRANCH  10  11
ENDBRANCH   1  10
TORSDOF 2
ENDMDL
MODEL 6
REMARK VINA RESULT:    -4.666      6.602      7.858
REMARK INTER + INTRA:          -5.386
REMARK INTER:                  -5.243
REMARK INTRA:                  -0.143
REMARK UNBOUND:                -0.175
REMARK  Name = 1550473
REMARK  2 active torsions:
REMARK  status: ('A' for Active; 'I' for Inactive)
REMARK    1  A    between atoms: N_1  and  C_4
REMARK    2  A    between atoms: C_4  and  C_5
REMARK                            x       y       z     vdW  Elec       q    Type
REMARK                         _______ _______ _______ _____ _____    ______ ____
ROOT
ATOM      1  N   UNL     1       2.360   0.713   5.765  0.00  0.00    -0.354 N 
ATOM      2  N   UNL     1       3.530   2.381   4.664  0.00  0.00    -0.372 N 
ATOM      3  N   UNL     1       3.898   0.194   4.075  0.00  0.00    -0.372 N 
ATOM      4  C   UNL     1       3.256   1.083   4.840  0.00  0.00    +0.166 C 
ATOM      5  H   UNL     1       1.930   1.434   6.334  0.00  0.00    +0.163 HD
ATOM      6  H   UNL     1       4.199   2.690   3.971  0.00  0.00    +0.159 HD
ATOM      7  H   UNL     1       3.065   3.102   5.202  0.00  0.00    +0.159 HD
ATOM      8  H   UNL     1       3.740  -0.801   4.163  0.00  0.00    +0.159 HD
ATOM      9  H   UNL     1       4.579   0.483   3.384  0.00  0.00    +0.159 HD
ENDROOT
BRANCH   1  10
ATOM     10  C   UNL     1       1.950  -0.670   5.999  0.00  0.00    +0.151 C 
BRANCH  10  11
ATOM     11  C   UNL     1       2.235  -1.031   7.431  0.00  0.00    -0.028 A 
ATOM     12  C   UNL     1       1.315  -0.716   8.442  0.00  0.00    +0.005 A 
ATOM     13  C   UNL     1       3.422  -1.693   7.783  0.00  0.00    +0.005 A 
ATOM     14  C   UNL     1       1.566  -1.077   9.768  0.00  0.00    +0.000 A 
ATOM     15  C   UNL     1       3.669  -2.052   9.108  0.00  0.00    +0.000 A 
ATOM     16  C   UNL     1       2.740  -1.746  10.100  0.00  0.00    +0.000 A 
ENDBRANCH  10  11
ENDBRANCH   1  10
TORSDOF 2
ENDMDL
MODEL 7
REMARK VINA RESULT:    -4.654      2.597      3.312
REMARK INTER + INTRA:          -5.373
REMARK INTER:                  -5.235
REMARK INTRA:                  -0.138
REMARK UNBOUND:                -0.175
REMARK  Name = 1550473
REMARK  2 active torsions:
REMARK  status: ('A' for Active; 'I' for Inactive)
REMARK    1  A    between atoms: N_1  and  C_4
REMARK    2  A    between atoms: C_4  and  C_5
REMARK                            x       y       z     vdW  Elec       q    Type
REMARK                         _______ _______ _______ _____ _____    ______ ____
ROOT
ATOM      1  N   UNL     1      -3.254  -4.780   7.394  0.00  0.00    -0.354 N 
ATOM      2  N   UNL     1      -4.510  -4.497   5.469  0.00  0.00    -0.372 N 
ATOM      3  N   UNL     1      -4.519  -2.837   7.053  0.00  0.00    -0.372 N 
ATOM      4  C   UNL     1      -4.087  -4.037   6.653  0.00  0.00    +0.166 C 
ATOM      5  H   UNL     1      -2.987  -5.694   7.048  0.00  0.00    +0.163 HD
ATOM      6  H   UNL     1      -5.136  -3.958   4.886  0.00  0.00    +0.159 HD
ATOM      7  H   UNL     1      -4.206  -5.392   5.105  0.00  0.00    +0.159 HD
ATOM      8  H   UNL     1      -4.242  -2.436   7.939  0.00  0.00    +0.159 HD
ATOM      9  H   UNL     1      -5.155  -2.287   6.489  0.00  0.00    +0.159 HD
ENDROOT
BRANCH   1  10
ATOM     10  C   UNL     1      -2.692  -4.348   8.673  0.00  0.00    +0.151 C 
BRANCH  10  11
ATOM     11  C   UNL     1      -3.111  -5.315   9.745  0.00  0.00    -0.028 A 
ATOM     12  C   UNL     1      -2.730  -6.663   9.677  0.00  0.00    +0.005 A 
ATOM     13  C   UNL     1      -3.885  -4.888  10.835  0.00  0.00    +0.005 A 
ATOM     14  C   UNL     1      -3.094  -7.555  10.689  0.00  0.00    +0.000 A 
ATOM     15  C   UNL     1      -4.247  -5.783  11.842  0.00  0.00    +0.000 A 
ATOM     16  C   UNL     1      -3.849  -7.115  11.770  0.00  0.00    +0.000 A 
ENDBRANCH  10  11
ENDBRANCH   1  10
TORSDOF 2
ENDMDL
MODEL 8
REMARK VINA RESULT:    -4.577      5.077      6.767
REMARK INTER + INTRA:          -5.288
REMARK INTER:                  -5.166
REMARK INTRA:                  -0.122
REMARK UNBOUND:                -0.175
REMARK  Name = 1550473
REMARK  2 active torsions:
REMARK  status: ('A' for Active; 'I' for Inactive)
REMARK    1  A    between atoms: N_1  and  C_4
REMARK    2  A    between atoms: C_4  and  C_5
REMARK                            x       y       z     vdW  Elec       q    Type
REMARK                         _______ _______ _______ _____ _____    ______ ____
ROOT
ATOM      1  N   UNL     1       3.273  -0.806   6.806  0.00  0.00    -0.354 N 
ATOM      2  N   UNL     1       3.631   0.603   5.003  0.00  0.00    -0.372 N 
ATOM      3  N   UNL     1       5.438  -0.138   6.207  0.00  0.00    -0.372 N 
ATOM      4  C   UNL     1       4.114  -0.123   6.018  0.00  0.00    +0.166 C 
ATOM      5  H   UNL     1       2.278  -0.730   6.629  0.00  0.00    +0.163 HD
ATOM      6  H   UNL     1       4.241   1.126   4.389  0.00  0.00    +0.159 HD
ATOM      7  H   UNL     1       2.639   0.641   4.800  0.00  0.00    +0.159 HD
ATOM      8  H   UNL     1       5.866  -0.661   6.959  0.00  0.00    +0.159 HD
ATOM      9  H   UNL     1       6.064   0.389   5.610  0.00  0.00    +0.159 HD
ENDROOT
BRANCH   1  10
ATOM     10  C   UNL     1       3.702  -1.670   7.905  0.00  0.00    +0.151 C 
BRANCH  10  11
ATOM     11  C   UNL     1       2.535  -1.915   8.821  0.00  0.00    -0.028 A 
ATOM     12  C   UNL     1       1.552  -0.931   9.001  0.00  0.00    +0.005 A 
ATOM     13  C   UNL     1       2.403  -3.132   9.507  0.00  0.00    +0.005 A 
ATOM     14  C   UNL     1       0.452  -1.169   9.828  0.00  0.00    +0.000 A 
ATOM     15  C   UNL     1       1.303  -3.366  10.333  0.00  0.00    +0.000 A 
ATOM     16  C   UNL     1       0.327  -2.386  10.491  0.00  0.00    +0.000 A 
ENDBRANCH  10  11
ENDBRANCH   1  10
TORSDOF 2
ENDMDL
MODEL 9
REMARK VINA RESULT:    -4.511      6.756      7.768
REMARK INTER + INTRA:          -5.214
REMARK INTER:                  -5.102
REMARK INTRA:                  -0.111
REMARK UNBOUND:                -0.175
REMARK  Name = 1550473
REMARK  2 active torsions:
REMARK  status: ('A' for Active; 'I' for Inactive)
REMARK    1  A    between atoms: N_1  and  C_4
REMARK    2  A    between atoms: C_4  and  C_5
REMARK                            x       y       z     vdW  Elec       q    Type
REMARK                         _______ _______ _______ _____ _____    ______ ____
ROOT
ATOM      1  N   UNL     1       3.124   0.429   5.529  0.00  0.00    -0.354 N 
ATOM      2  N   UNL     1       3.567   2.493   4.577  0.00  0.00    -0.372 N 
ATOM      3  N   UNL     1       1.567   1.466   4.117  0.00  0.00    -0.372 N 
ATOM      4  C   UNL     1       2.747   1.448   4.746  0.00  0.00    +0.166 C 
ATOM      5  H   UNL     1       4.044   0.462   5.953  0.00  0.00    +0.163 HD
ATOM      6  H   UNL     1       3.308   3.279   3.995  0.00  0.00    +0.159 HD
ATOM      7  H   UNL     1       4.466   2.545   5.039  0.00  0.00    +0.159 HD
ATOM      8  H   UNL     1       0.906   0.705   4.198  0.00  0.00    +0.159 HD
ATOM      9  H   UNL     1       1.296   2.238   3.521  0.00  0.00    +0.159 HD
ENDROOT
BRANCH   1  10
ATOM     10  C   UNL     1       2.284  -0.731   5.821  0.00  0.00    +0.151 C 
BRANCH  10  11
ATOM     11  C   UNL     1       2.382  -1.052   7.287  0.00  0.00    -0.028 A 
ATOM     12  C   UNL     1       3.488  -1.752   7.790  0.00  0.00    +0.005 A 
ATOM     13  C   UNL     1       1.375  -0.653   8.179  0.00  0.00    +0.005 A 
ATOM     14  C   UNL     1       3.595  -2.024   9.157  0.00  0.00    +0.000 A 
ATOM     15  C   UNL     1       1.484  -0.927   9.542  0.00  0.00    +0.000 A 
ATOM     16  C   UNL     1       2.595  -1.610  10.031  0.00  0.00    +0.000 A 
ENDBRANCH  10  11
ENDBRANCH   1  10
TORSDOF 2
ENDMDL
