MODEL 1
REMARK VINA RESULT:    -5.186      0.000      0.000
REMARK INTER + INTRA:          -5.908
REMARK INTER:                  -5.792
REMARK INTRA:                  -0.116
REMARK UNBOUND:                -0.116
REMARK  Name = 1550473
REMARK  2 active torsions:
REMARK  status: ('A' for Active; 'I' for Inactive)
REMARK    1  A    between atoms: N_1  and  C_4
REMARK    2  A    between atoms: C_4  and  C_5
REMARK                            x       y       z     vdW  Elec       q    Type
REMARK                         _______ _______ _______ _____ _____    ______ ____
ROOT
ATOM      1  N   UNL     1     -17.277   6.527   4.800  0.00  0.00    -0.354 N 
ATOM      2  N   UNL     1     -18.563   4.610   4.984  0.00  0.00    -0.372 N 
ATOM      3  N   UNL     1     -18.224   5.522   2.906  0.00  0.00    -0.372 N 
ATOM      4  C   UNL     1     -18.013   5.566   4.226  0.00  0.00    +0.166 C 
ATOM      5  H   UNL     1     -17.181   6.522   5.809  0.00  0.00    +0.163 HD
ATOM      6  H   UNL     1     -19.121   3.870   4.579  0.00  0.00    +0.159 HD
ATOM      7  H   UNL     1     -18.427   4.581   5.987  0.00  0.00    +0.159 HD
ATOM      8  H   UNL     1     -17.841   6.218   2.280  0.00  0.00    +0.159 HD
ATOM      9  H   UNL     1     -18.788   4.796   2.483  0.00  0.00    +0.159 HD
ENDROOT
BRANCH   1  10
ATOM     10  C   UNL     1     -16.590   7.584   4.059  0.00  0.00    +0.151 C 
BRANCH  10  11
ATOM     11  C   UNL     1     -15.739   8.378   5.011  0.00  0.00    -0.028 A 
ATOM     12  C   UNL     1     -15.553   9.755   4.820  0.00  0.00    +0.005 A 
ATOM     13  C   UNL     1     -15.120   7.760   6.108  0.00  0.00    +0.005 A 
ATOM     14  C   UNL     1     -14.786  10.498   5.721  0.00  0.00    +0.000 A 
ATOM     15  C   UNL     1     -14.355   8.505   7.005  0.00  0.00    +0.000 A 
ATOM     16  C   UNL     1     -14.190   9.875   6.812  0.00  0.00    +0.000 A 
ENDBRANCH  10  11
ENDBRANCH   1  10
TORSDOF 2
ENDMDL
MODEL 2
REMARK VINA RESULT:    -4.994      2.506      3.729
REMARK INTER + INTRA:          -5.693
REMARK INTER:                  -5.532
REMARK INTRA:                  -0.162
REMARK UNBOUND:                -0.116
REMARK  Name = 1550473
REMARK  2 active torsions:
REMARK  status: ('A' for Active; 'I' for Inactive)
REMARK    1  A    between atoms: N_1  and  C_4
REMARK    2  A    between atoms: C_4  and  C_5
REMARK                            x       y       z     vdW  Elec       q    Type
REMARK                         _______ _______ _______ _____ _____    ______ ____
ROOT
ATOM      1  N   UNL     1     -17.784   4.545   4.652  0.00  0.00    -0.354 N 
ATOM      2  N   UNL     1     -17.072   2.474   3.897  0.00  0.00    -0.372 N 
ATOM      3  N   UNL     1     -19.140   3.235   3.260  0.00  0.00    -0.372 N 
ATOM      4  C   UNL     1     -18.006   3.432   3.940  0.00  0.00    +0.166 C 
ATOM      5  H   UNL     1     -16.917   4.620   5.170  0.00  0.00    +0.163 HD
ATOM      6  H   UNL     1     -17.209   1.625   3.366  0.00  0.00    +0.159 HD
ATOM      7  H   UNL     1     -16.186   2.572   4.379  0.00  0.00    +0.159 HD
ATOM      8  H   UNL     1     -19.888   3.917   3.256  0.00  0.00    +0.159 HD
ATOM      9  H   UNL     1     -19.302   2.387   2.731  0.00  0.00    +0.159 HD
ENDROOT
BRANCH   1  10
ATOM     10  C   UNL     1     -18.715   5.670   4.721  0.00  0.00    +0.151 C 
BRANCH  10  11
ATOM     11  C   UNL     1     -18.149   6.824   3.940  0.00  0.00    -0.028 A 
ATOM     12  C   UNL     1     -16.870   7.321   4.230  0.00  0.00    +0.005 A 
ATOM     13  C   UNL     1     -18.884   7.420   2.904  0.00  0.00    +0.005 A 
ATOM     14  C   UNL     1     -16.331   8.373   3.485  0.00  0.00    +0.000 A 
ATOM     15  C   UNL     1     -18.343   8.471   2.163  0.00  0.00    +0.000 A 
ATOM     16  C   UNL     1     -17.066   8.945   2.452  0.00  0.00    +0.000 A 
ENDBRANCH  10  11
ENDBRANCH   1  10
TORSDOF 2
ENDMDL
MODEL 3
REMARK VINA RESULT:    -4.986      7.778      9.052
REMARK INTER + INTRA:          -5.685
REMARK INTER:                  -5.505
REMARK INTRA:                  -0.179
REMARK UNBOUND:                -0.116
REMARK  Name = 1550473
REMARK  2 active torsions:
REMARK  status: ('A' for Active; 'I' for Inactive)
REMARK    1  A    between atoms: N_1  and  C_4
REMARK    2  A    between atoms: C_4  and  C_5
REMARK                            x       y       z     vdW  Elec       q    Type
REMARK                         _______ _______ _______ _____ _____    ______ ____
ROOT
ATOM      1  N   UNL     1     -10.921  12.690   7.531  0.00  0.00    -0.354 N 
ATOM      2  N   UNL     1      -8.743  13.268   6.997  0.00  0.00    -0.372 N 
ATOM      3  N   UNL     1     -10.370  14.883   6.914  0.00  0.00    -0.372 N 
ATOM      4  C   UNL     1     -10.027  13.612   7.150  0.00  0.00    +0.166 C 
ATOM      5  H   UNL     1     -10.603  11.738   7.666  0.00  0.00    +0.163 HD
ATOM      6  H   UNL     1      -8.045  13.942   6.714  0.00  0.00    +0.159 HD
ATOM      7  H   UNL     1      -8.419  12.325   7.177  0.00  0.00    +0.159 HD
ATOM      8  H   UNL     1     -11.324  15.206   7.006  0.00  0.00    +0.159 HD
ATOM      9  H   UNL     1      -9.688  15.570   6.618  0.00  0.00    +0.159 HD
ENDROOT
BRANCH   1  10
ATOM     10  C   UNL     1     -12.334  12.974   7.779  0.00  0.00    +0.151 C 
BRANCH  10  11
ATOM     11  C   UNL     1     -12.543  13.179   9.254  0.00  0.00    -0.028 A 
ATOM     12  C   UNL     1     -12.659  14.472   9.784  0.00  0.00    +0.005 A 
ATOM     13  C   UNL     1     -12.631  12.083  10.126  0.00  0.00    +0.005 A 
ATOM     14  C   UNL     1     -12.884  14.662  11.150  0.00  0.00    +0.000 A 
ATOM     15  C   UNL     1     -12.854  12.276  11.489  0.00  0.00    +0.000 A 
ATOM     16  C   UNL     1     -12.983  13.566  12.000  0.00  0.00    +0.000 A 
ENDBRANCH  10  11
ENDBRANCH   1  10
TORSDOF 2
ENDMDL
MODEL 4
REMARK VINA RESULT:    -4.775      8.254      9.331
REMARK INTER + INTRA:          -5.449
REMARK INTER:                  -5.289
REMARK INTRA:                  -0.161
REMARK UNBOUND:                -0.116
REMARK  Name = 1550473
REMARK  2 active torsions:
REMARK  status: ('A' for Active; 'I' for Inactive)
REMARK    1  A    between atoms: N_1  and  C_4
REMARK    2  A    between atoms: C_4  and  C_5
REMARK                            x       y       z     vdW  Elec       q    Type
REMARK                         _______ _______ _______ _____ _____    ______ ____
ROOT
ATOM      1  N   UNL     1     -16.049  10.976  -4.654  0.00  0.00    -0.354 N 
ATOM      2  N   UNL     1     -15.431   9.376  -6.209  0.00  0.00    -0.372 N 
ATOM      3  N   UNL     1     -14.101  11.225  -5.933  0.00  0.00    -0.372 N 
ATOM      4  C   UNL     1     -15.196  10.538  -5.589  0.00  0.00    +0.166 C 
ATOM      5  H   UNL     1     -16.877  10.424  -4.461  0.00  0.00    +0.163 HD
ATOM      6  H   UNL     1     -14.803   9.018  -6.917  0.00  0.00    +0.159 HD
ATOM      7  H   UNL     1     -16.234   8.803  -5.982  0.00  0.00    +0.159 HD
ATOM      8  H   UNL     1     -13.870  12.112  -5.506  0.00  0.00    +0.159 HD
ATOM      9  H   UNL     1     -13.467  10.889  -6.646  0.00  0.00    +0.159 HD
ENDROOT
BRANCH   1  10
ATOM     10  C   UNL     1     -15.857  12.202  -3.881  0.00  0.00    +0.151 C 
BRANCH  10  11
ATOM     11  C   UNL     1     -15.668  11.845  -2.433  0.00  0.00    -0.028 A 
ATOM     12  C   UNL     1     -14.395  11.527  -1.938  0.00  0.00    +0.005 A 
ATOM     13  C   UNL     1     -16.758  11.830  -1.549  0.00  0.00    +0.005 A 
ATOM     14  C   UNL     1     -14.215  11.225  -0.586  0.00  0.00    +0.000 A 
ATOM     15  C   UNL     1     -16.574  11.527  -0.200  0.00  0.00    +0.000 A 
ATOM     16  C   UNL     1     -15.302  11.227   0.282  0.00  0.00    +0.000 A 
ENDBRANCH  10  11
ENDBRANCH   1  10
TORSDOF 2
ENDMDL
MODEL 5
REMARK VINA RESULT:    -4.704      6.390      7.575
REMARK INTER + INTRA:          -5.370
REMARK INTER:                  -5.270
REMARK INTRA:                  -0.100
REMARK UNBOUND:                -0.116
REMARK  Name = 1550473
REMARK  2 active torsions:
REMARK  status: ('A' for Active; 'I' for Inactive)
REMARK    1  A    between atoms: N_1  and  C_4
REMARK    2  A    between atoms: C_4  and  C_5
REMARK                            x       y       z     vdW  Elec       q    Type
REMARK                         _______ _______ _______ _____ _____    ______ ____
ROOT
ATOM      1  N   UNL     1     -15.882   9.458   0.084  0.00  0.00    -0.354 N 
ATOM      2  N   UNL     1     -16.981   7.619   0.965  0.00  0.00    -0.372 N 
ATOM      3  N   UNL     1     -16.204   9.237   2.395  0.00  0.00    -0.372 N 
ATOM      4  C   UNL     1     -16.348   8.785   1.145  0.00  0.00    +0.166 C 
ATOM      5  H   UNL     1     -15.996   9.046  -0.835  0.00  0.00    +0.163 HD
ATOM      6  H   UNL     1     -17.346   7.091   1.746  0.00  0.00    +0.159 HD
ATOM      7  H   UNL     1     -17.135   7.233   0.042  0.00  0.00    +0.159 HD
ATOM      8  H   UNL     1     -15.730  10.107   2.598  0.00  0.00    +0.159 HD
ATOM      9  H   UNL     1     -16.552   8.717   3.190  0.00  0.00    +0.159 HD
ENDROOT
BRANCH   1  10
ATOM     10  C   UNL     1     -15.225  10.761   0.167  0.00  0.00    +0.151 C 
BRANCH  10  11
ATOM     11  C   UNL     1     -15.131  11.352  -1.213  0.00  0.00    -0.028 A 
ATOM     12  C   UNL     1     -13.887  11.484  -1.847  0.00  0.00    +0.005 A 
ATOM     13  C   UNL     1     -16.282  11.776  -1.894  0.00  0.00    +0.005 A 
ATOM     14  C   UNL     1     -13.801  12.005  -3.141  0.00  0.00    +0.000 A 
ATOM     15  C   UNL     1     -16.192  12.296  -3.185  0.00  0.00    +0.000 A 
ATOM     16  C   UNL     1     -14.952  12.408  -3.809  0.00  0.00    +0.000 A 
ENDBRANCH  10  11
ENDBRANCH   1  10
TORSDOF 2
ENDMDL
MODEL 6
REMARK VINA RESULT:    -4.621      4.047      5.728
REMARK INTER + INTRA:          -5.277
REMARK INTER:                  -5.149
REMARK INTRA:                  -0.128
REMARK UNBOUND:                -0.116
REMARK  Name = 1550473
REMARK  2 active torsions:
REMARK  status: ('A' for Active; 'I' for Inactive)
REMARK    1  A    between atoms: N_1  and  C_4
REMARK    2  A    between atoms: C_4  and  C_5
REMARK                            x       y       z     vdW  Elec       q    Type
REMARK                         _______ _______ _______ _____ _____    ______ ____
ROOT
ATOM      1  N   UNL     1     -17.627   9.534   0.292  0.00  0.00    -0.354 N 
ATOM      2  N   UNL     1     -18.424  10.597  -1.605  0.00  0.00    -0.372 N 
ATOM      3  N   UNL     1     -17.082  11.768  -0.159  0.00  0.00    -0.372 N 
ATOM      4  C   UNL     1     -17.704  10.628  -0.477  0.00  0.00    +0.166 C 
ATOM      5  H   UNL     1     -18.147   8.711   0.012  0.00  0.00    +0.163 HD
ATOM      6  H   UNL     1     -18.498  11.405  -2.208  0.00  0.00    +0.159 HD
ATOM      7  H   UNL     1     -18.905   9.758  -1.907  0.00  0.00    +0.159 HD
ATOM      8  H   UNL     1     -16.528  11.859   0.682  0.00  0.00    +0.159 HD
ATOM      9  H   UNL     1     -17.153  12.592  -0.743  0.00  0.00    +0.159 HD
ENDROOT
BRANCH   1  10
ATOM     10  C   UNL     1     -16.827   9.448   1.513  0.00  0.00    +0.151 C 
BRANCH  10  11
ATOM     11  C   UNL     1     -17.428   8.411   2.422  0.00  0.00    -0.028 A 
ATOM     12  C   UNL     1     -16.665   7.838   3.450  0.00  0.00    +0.005 A 
ATOM     13  C   UNL     1     -18.761   8.002   2.263  0.00  0.00    +0.005 A 
ATOM     14  C   UNL     1     -17.232   6.897   4.313  0.00  0.00    +0.000 A 
ATOM     15  C   UNL     1     -19.322   7.062   3.127  0.00  0.00    +0.000 A 
ATOM     16  C   UNL     1     -18.558   6.512   4.153  0.00  0.00    +0.000 A 
ENDBRANCH  10  11
ENDBRANCH   1  10
TORSDOF 2
ENDMDL
MODEL 7
REMARK VINA RESULT:    -4.568     27.681     28.397
REMARK INTER + INTRA:          -5.218
REMARK INTER:                  -5.088
REMARK INTRA:                  -0.130
REMARK UNBOUND:                -0.116
REMARK  Name = 1550473
REMARK  2 active torsions:
REMARK  status: ('A' for Active; 'I' for Inactive)
REMARK    1  A    between atoms: N_1  and  C_4
REMARK    2  A    between atoms: C_4  and  C_5
REMARK                            x       y       z     vdW  Elec       q    Type
REMARK                         _______ _______ _______ _____ _____    ______ ____
ROOT
ATOM      1  N   UNL     1       1.004  -4.560 -10.763  0.00  0.00    -0.354 N 
ATOM      2  N   UNL     1      -0.964  -5.014  -9.631  0.00  0.00    -0.372 N 
ATOM      3  N   UNL     1       0.596  -6.681  -9.855  0.00  0.00    -0.372 N 
ATOM      4  C   UNL     1       0.226  -5.418 -10.090  0.00  0.00    +0.166 C 
ATOM      5  H   UNL     1       0.653  -3.625 -10.934  0.00  0.00    +0.163 HD
ATOM      6  H   UNL     1      -1.572  -5.639  -9.117  0.00  0.00    +0.159 HD
ATOM      7  H   UNL     1      -1.293  -4.066  -9.763  0.00  0.00    +0.159 HD
ATOM      8  H   UNL     1       1.480  -7.050 -10.181  0.00  0.00    +0.159 HD
ATOM      9  H   UNL     1      -0.003  -7.325  -9.353  0.00  0.00    +0.159 HD
ENDROOT
BRANCH   1  10
ATOM     10  C   UNL     1       2.341  -4.884 -11.259  0.00  0.00    +0.151 C 
BRANCH  10  11
ATOM     11  C   UNL     1       2.249  -5.251 -12.714  0.00  0.00    -0.028 A 
ATOM     12  C   UNL     1       1.200  -4.762 -13.507  0.00  0.00    +0.005 A 
ATOM     13  C   UNL     1       3.211  -6.082 -13.308  0.00  0.00    +0.005 A 
ATOM     14  C   UNL     1       1.131  -5.079 -14.866  0.00  0.00    +0.000 A 
ATOM     15  C   UNL     1       3.138  -6.397 -14.665  0.00  0.00    +0.000 A 
ATOM     16  C   UNL     1       2.099  -5.893 -15.444  0.00  0.00    +0.000 A 
ENDBRANCH  10  11
ENDBRANCH   1  10
TORSDOF 2
ENDMDL
MODEL 8
REMARK VINA RESULT:    -4.505     28.716     29.360
REMARK INTER + INTRA:          -5.148
REMARK INTER:                  -5.021
REMARK INTRA:                  -0.126
REMARK UNBOUND:                -0.116
REMARK  Name = 1550473
REMARK  2 active torsions:
REMARK  status: ('A' for Active; 'I' for Inactive)
REMARK    1  A    between atoms: N_1  and  C_4
REMARK    2  A    between atoms: C_4  and  C_5
REMARK                            x       y       z     vdW  Elec       q    Type
REMARK                         _______ _______ _______ _____ _____    ______ ____
ROOT
ATOM      1  N   UNL     1       2.118  -4.735 -11.227  0.00  0.00    -0.354 N 
ATOM      2  N   UNL     1       0.500  -5.237  -9.648  0.00  0.00    -0.372 N 
ATOM      3  N   UNL     1       2.095  -3.667  -9.141  0.00  0.00    -0.372 N 
ATOM      4  C   UNL     1       1.583  -4.541 -10.014  0.00  0.00    +0.166 C 
ATOM      5  H   UNL     1       1.701  -5.434 -11.831  0.00  0.00    +0.163 HD
ATOM      6  H   UNL     1       0.072  -5.110  -8.740  0.00  0.00    +0.159 HD
ATOM      7  H   UNL     1       0.058  -5.902 -10.271  0.00  0.00    +0.159 HD
ATOM      8  H   UNL     1       2.915  -3.116  -9.354  0.00  0.00    +0.159 HD
ATOM      9  H   UNL     1       1.688  -3.535  -8.223  0.00  0.00    +0.159 HD
ENDROOT
BRANCH   1  10
ATOM     10  C   UNL     1       3.265  -3.990 -11.743  0.00  0.00    +0.151 C 
BRANCH  10  11
ATOM     11  C   UNL     1       3.866  -4.748 -12.894  0.00  0.00    -0.028 A 
ATOM     12  C   UNL     1       3.292  -5.951 -13.331  0.00  0.00    +0.005 A 
ATOM     13  C   UNL     1       5.006  -4.267 -13.555  0.00  0.00    +0.005 A 
ATOM     14  C   UNL     1       3.832  -6.641 -14.419  0.00  0.00    +0.000 A 
ATOM     15  C   UNL     1       5.543  -4.959 -14.640  0.00  0.00    +0.000 A 
ATOM     16  C   UNL     1       4.954  -6.145 -15.074  0.00  0.00    +0.000 A 
ENDBRANCH  10  11
ENDBRANCH   1  10
TORSDOF 2
ENDMDL
MODEL 9
REMARK VINA RESULT:    -4.474     17.506     19.242
REMARK INTER + INTRA:          -5.113
REMARK INTER:                  -4.946
REMARK INTRA:                  -0.168
REMARK UNBOUND:                -0.116
REMARK  Name = 1550473
REMARK  2 active torsions:
REMARK  status: ('A' for Active; 'I' for Inactive)
REMARK    1  A    between atoms: N_1  and  C_4
REMARK    2  A    between atoms: C_4  and  C_5
REMARK                            x       y       z     vdW  Elec       q    Type
REMARK                         _______ _______ _______ _____ _____    ______ ____
ROOT
ATOM      1  N   UNL     1      -4.148  17.894  17.983  0.00  0.00    -0.354 N 
ATOM      2  N   UNL     1      -1.899  17.920  17.432  0.00  0.00    -0.372 N 
ATOM      3  N   UNL     1      -3.292  19.475  16.480  0.00  0.00    -0.372 N 
ATOM      4  C   UNL     1      -3.129  18.432  17.300  0.00  0.00    +0.166 C 
ATOM      5  H   UNL     1      -3.964  17.085  18.565  0.00  0.00    +0.163 HD
ATOM      6  H   UNL     1      -1.110  18.307  16.932  0.00  0.00    +0.159 HD
ATOM      7  H   UNL     1      -1.709  17.140  18.050  0.00  0.00    +0.159 HD
ATOM      8  H   UNL     1      -4.196  19.904  16.332  0.00  0.00    +0.159 HD
ATOM      9  H   UNL     1      -2.517  19.869  15.962  0.00  0.00    +0.159 HD
ENDROOT
BRANCH   1  10
ATOM     10  C   UNL     1      -5.516  18.409  17.951  0.00  0.00    +0.151 C 
BRANCH  10  11
ATOM     11  C   UNL     1      -6.400  17.415  17.250  0.00  0.00    -0.028 A 
ATOM     12  C   UNL     1      -6.378  17.305  15.852  0.00  0.00    +0.005 A 
ATOM     13  C   UNL     1      -7.257  16.576  17.979  0.00  0.00    +0.005 A 
ATOM     14  C   UNL     1      -7.177  16.360  15.203  0.00  0.00    +0.000 A 
ATOM     15  C   UNL     1      -8.053  15.635  17.327  0.00  0.00    +0.000 A 
ATOM     16  C   UNL     1      -8.011  15.526  15.939  0.00  0.00    +0.000 A 
ENDBRANCH  10  11
ENDBRANCH   1  10
TORSDOF 2
ENDMDL
