MODEL 1
REMARK VINA RESULT:    -6.128      0.000      0.000
REMARK INTER + INTRA:          -6.984
REMARK INTER:                  -6.845
REMARK INTRA:                  -0.139
REMARK UNBOUND:                -0.139
REMARK  Name = 1550473
REMARK  2 active torsions:
REMARK  status: ('A' for Active; 'I' for Inactive)
REMARK    1  A    between atoms: N_1  and  C_4
REMARK    2  A    between atoms: C_4  and  C_5
REMARK                            x       y       z     vdW  Elec       q    Type
REMARK                         _______ _______ _______ _____ _____    ______ ____
ROOT
ATOM      1  N   UNL     1       7.146  -4.603  -0.174  0.00  0.00    -0.354 N 
ATOM      2  N   UNL     1       6.517  -2.582   0.767  0.00  0.00    -0.372 N 
ATOM      3  N   UNL     1       7.792  -4.034   2.005  0.00  0.00    -0.372 N 
ATOM      4  C   UNL     1       7.157  -3.754   0.862  0.00  0.00    +0.166 C 
ATOM      5  H   UNL     1       6.621  -4.345  -1.002  0.00  0.00    +0.163 HD
ATOM      6  H   UNL     1       6.511  -1.920   1.531  0.00  0.00    +0.159 HD
ATOM      7  H   UNL     1       6.031  -2.307  -0.078  0.00  0.00    +0.159 HD
ATOM      8  H   UNL     1       8.289  -4.904   2.143  0.00  0.00    +0.159 HD
ATOM      9  H   UNL     1       7.788  -3.389   2.785  0.00  0.00    +0.159 HD
ENDROOT
BRANCH   1  10
ATOM     10  C   UNL     1       7.856  -5.880  -0.193  0.00  0.00    +0.151 C 
BRANCH  10  11
ATOM     11  C   UNL     1       8.671  -5.971  -1.453  0.00  0.00    -0.028 A 
ATOM     12  C   UNL     1       9.159  -7.209  -1.898  0.00  0.00    +0.005 A 
ATOM     13  C   UNL     1       8.954  -4.824  -2.211  0.00  0.00    +0.005 A 
ATOM     14  C   UNL     1       9.890  -7.298  -3.085  0.00  0.00    +0.000 A 
ATOM     15  C   UNL     1       9.685  -4.918  -3.395  0.00  0.00    +0.000 A 
ATOM     16  C   UNL     1      10.151  -6.155  -3.833  0.00  0.00    +0.000 A 
ENDBRANCH  10  11
ENDBRANCH   1  10
TORSDOF 2
ENDMDL
MODEL 2
REMARK VINA RESULT:    -5.733     20.502     21.589
REMARK INTER + INTRA:          -6.542
REMARK INTER:                  -6.401
REMARK INTRA:                  -0.141
REMARK UNBOUND:                -0.139
REMARK  Name = 1550473
REMARK  2 active torsions:
REMARK  status: ('A' for Active; 'I' for Inactive)
REMARK    1  A    between atoms: N_1  and  C_4
REMARK    2  A    between atoms: C_4  and  C_5
REMARK                            x       y       z     vdW  Elec       q    Type
REMARK                         _______ _______ _______ _____ _____    ______ ____
ROOT
ATOM      1  N   UNL     1       1.922  12.061 -12.044  0.00  0.00    -0.354 N 
ATOM      2  N   UNL     1       3.428  13.051 -10.589  0.00  0.00    -0.372 N 
ATOM      3  N   UNL     1       3.588  10.796 -10.988  0.00  0.00    -0.372 N 
ATOM      4  C   UNL     1       2.970  11.960 -11.216  0.00  0.00    +0.166 C 
ATOM      5  H   UNL     1       1.479  12.967 -12.151  0.00  0.00    +0.163 HD
ATOM      6  H   UNL     1       4.220  13.006  -9.962  0.00  0.00    +0.159 HD
ATOM      7  H   UNL     1       3.012  13.963 -10.734  0.00  0.00    +0.159 HD
ATOM      8  H   UNL     1       3.287   9.936 -11.425  0.00  0.00    +0.159 HD
ATOM      9  H   UNL     1       4.374  10.729 -10.354  0.00  0.00    +0.159 HD
ENDROOT
BRANCH   1  10
ATOM     10  C   UNL     1       1.379  10.945 -12.817  0.00  0.00    +0.151 C 
BRANCH  10  11
ATOM     11  C   UNL     1      -0.091  10.817 -12.527  0.00  0.00    -0.028 A 
ATOM     12  C   UNL     1      -0.848  11.942 -12.171  0.00  0.00    +0.005 A 
ATOM     13  C   UNL     1      -0.735   9.572 -12.614  0.00  0.00    +0.005 A 
ATOM     14  C   UNL     1      -2.220  11.828 -11.931  0.00  0.00    +0.000 A 
ATOM     15  C   UNL     1      -2.104   9.463 -12.373  0.00  0.00    +0.000 A 
ATOM     16  C   UNL     1      -2.847  10.591 -12.034  0.00  0.00    +0.000 A 
ENDBRANCH  10  11
ENDBRANCH   1  10
TORSDOF 2
ENDMDL
MODEL 3
REMARK VINA RESULT:    -5.704      8.230      9.254
REMARK INTER + INTRA:          -6.510
REMARK INTER:                  -6.384
REMARK INTRA:                  -0.126
REMARK UNBOUND:                -0.139
REMARK  Name = 1550473
REMARK  2 active torsions:
REMARK  status: ('A' for Active; 'I' for Inactive)
REMARK    1  A    between atoms: N_1  and  C_4
REMARK    2  A    between atoms: C_4  and  C_5
REMARK                            x       y       z     vdW  Elec       q    Type
REMARK                         _______ _______ _______ _____ _____    ______ ____
ROOT
ATOM      1  N   UNL     1      12.079  -8.243  -7.145  0.00  0.00    -0.354 N 
ATOM      2  N   UNL     1      11.698 -10.452  -6.564  0.00  0.00    -0.372 N 
ATOM      3  N   UNL     1      11.377  -9.807  -8.742  0.00  0.00    -0.372 N 
ATOM      4  C   UNL     1      11.720  -9.487  -7.490  0.00  0.00    +0.166 C 
ATOM      5  H   UNL     1      12.299  -8.058  -6.173  0.00  0.00    +0.163 HD
ATOM      6  H   UNL     1      11.434 -11.401  -6.796  0.00  0.00    +0.159 HD
ATOM      7  H   UNL     1      11.962 -10.275  -5.603  0.00  0.00    +0.159 HD
ATOM      8  H   UNL     1      11.367  -9.123  -9.487  0.00  0.00    +0.159 HD
ATOM      9  H   UNL     1      11.099 -10.748  -8.991  0.00  0.00    +0.159 HD
ENDROOT
BRANCH   1  10
ATOM     10  C   UNL     1      12.188  -7.132  -8.088  0.00  0.00    +0.151 C 
BRANCH  10  11
ATOM     11  C   UNL     1      13.520  -6.459  -7.904  0.00  0.00    -0.028 A 
ATOM     12  C   UNL     1      14.002  -6.173  -6.618  0.00  0.00    +0.005 A 
ATOM     13  C   UNL     1      14.309  -6.111  -9.011  0.00  0.00    +0.005 A 
ATOM     14  C   UNL     1      15.253  -5.576  -6.445  0.00  0.00    +0.000 A 
ATOM     15  C   UNL     1      15.557  -5.514  -8.835  0.00  0.00    +0.000 A 
ATOM     16  C   UNL     1      16.030  -5.249  -7.552  0.00  0.00    +0.000 A 
ENDBRANCH  10  11
ENDBRANCH   1  10
TORSDOF 2
ENDMDL
MODEL 4
REMARK VINA RESULT:    -5.673      8.413     10.267
REMARK INTER + INTRA:          -6.475
REMARK INTER:                  -6.374
REMARK INTRA:                  -0.101
REMARK UNBOUND:                -0.139
REMARK  Name = 1550473
REMARK  2 active torsions:
REMARK  status: ('A' for Active; 'I' for Inactive)
REMARK    1  A    between atoms: N_1  and  C_4
REMARK    2  A    between atoms: C_4  and  C_5
REMARK                            x       y       z     vdW  Elec       q    Type
REMARK                         _______ _______ _______ _____ _____    ______ ____
ROOT
ATOM      1  N   UNL     1      13.112 -11.192  -8.091  0.00  0.00    -0.354 N 
ATOM      2  N   UNL     1      14.326 -13.164  -8.091  0.00  0.00    -0.372 N 
ATOM      3  N   UNL     1      13.063 -12.639  -9.933  0.00  0.00    -0.372 N 
ATOM      4  C   UNL     1      13.491 -12.319  -8.708  0.00  0.00    +0.166 C 
ATOM      5  H   UNL     1      13.448 -11.022  -7.149  0.00  0.00    +0.163 HD
ATOM      6  H   UNL     1      14.632 -14.021  -8.534  0.00  0.00    +0.159 HD
ATOM      7  H   UNL     1      14.697 -12.970  -7.169  0.00  0.00    +0.159 HD
ATOM      8  H   UNL     1      12.427 -12.046 -10.450  0.00  0.00    +0.159 HD
ATOM      9  H   UNL     1      13.349 -13.497 -10.388  0.00  0.00    +0.159 HD
ENDROOT
BRANCH   1  10
ATOM     10  C   UNL     1      12.249 -10.179  -8.695  0.00  0.00    +0.151 C 
BRANCH  10  11
ATOM     11  C   UNL     1      12.279  -8.938  -7.847  0.00  0.00    -0.028 A 
ATOM     12  C   UNL     1      11.923  -8.993  -6.491  0.00  0.00    +0.005 A 
ATOM     13  C   UNL     1      12.668  -7.704  -8.391  0.00  0.00    +0.005 A 
ATOM     14  C   UNL     1      11.980  -7.846  -5.696  0.00  0.00    +0.000 A 
ATOM     15  C   UNL     1      12.723  -6.561  -7.594  0.00  0.00    +0.000 A 
ATOM     16  C   UNL     1      12.381  -6.633  -6.245  0.00  0.00    +0.000 A 
ENDBRANCH  10  11
ENDBRANCH   1  10
TORSDOF 2
ENDMDL
MODEL 5
REMARK VINA RESULT:    -5.346      7.131      8.432
REMARK INTER + INTRA:          -6.110
REMARK INTER:                  -5.952
REMARK INTRA:                  -0.158
REMARK UNBOUND:                -0.139
REMARK  Name = 1550473
REMARK  2 active torsions:
REMARK  status: ('A' for Active; 'I' for Inactive)
REMARK    1  A    between atoms: N_1  and  C_4
REMARK    2  A    between atoms: C_4  and  C_5
REMARK                            x       y       z     vdW  Elec       q    Type
REMARK                         _______ _______ _______ _____ _____    ______ ____
ROOT
ATOM      1  N   UNL     1      12.358  -8.278  -5.329  0.00  0.00    -0.354 N 
ATOM      2  N   UNL     1      12.811 -10.308  -4.311  0.00  0.00    -0.372 N 
ATOM      3  N   UNL     1      11.951 -10.301  -6.439  0.00  0.00    -0.372 N 
ATOM      4  C   UNL     1      12.369  -9.617  -5.369  0.00  0.00    +0.166 C 
ATOM      5  H   UNL     1      12.659  -7.819  -4.477  0.00  0.00    +0.163 HD
ATOM      6  H   UNL     1      12.835 -11.319  -4.313  0.00  0.00    +0.159 HD
ATOM      7  H   UNL     1      13.155  -9.846  -3.478  0.00  0.00    +0.159 HD
ATOM      8  H   UNL     1      11.601  -9.839  -7.267  0.00  0.00    +0.159 HD
ATOM      9  H   UNL     1      11.956 -11.313  -6.456  0.00  0.00    +0.159 HD
ENDROOT
BRANCH   1  10
ATOM     10  C   UNL     1      11.947  -7.430  -6.446  0.00  0.00    +0.151 C 
BRANCH  10  11
ATOM     11  C   UNL     1      13.162  -6.764  -7.031  0.00  0.00    -0.028 A 
ATOM     12  C   UNL     1      13.318  -6.661  -8.421  0.00  0.00    +0.005 A 
ATOM     13  C   UNL     1      14.159  -6.230  -6.200  0.00  0.00    +0.005 A 
ATOM     14  C   UNL     1      14.432  -6.017  -8.964  0.00  0.00    +0.000 A 
ATOM     15  C   UNL     1      15.270  -5.587  -6.746  0.00  0.00    +0.000 A 
ATOM     16  C   UNL     1      15.405  -5.479  -8.128  0.00  0.00    +0.000 A 
ENDBRANCH  10  11
ENDBRANCH   1  10
TORSDOF 2
ENDMDL
MODEL 6
REMARK VINA RESULT:    -5.241      2.231      3.125
REMARK INTER + INTRA:          -5.993
REMARK INTER:                  -5.929
REMARK INTRA:                  -0.063
REMARK UNBOUND:                -0.139
REMARK  Name = 1550473
REMARK  2 active torsions:
REMARK  status: ('A' for Active; 'I' for Inactive)
REMARK    1  A    between atoms: N_1  and  C_4
REMARK    2  A    between atoms: C_4  and  C_5
REMARK                            x       y       z     vdW  Elec       q    Type
REMARK                         _______ _______ _______ _____ _____    ______ ____
ROOT
ATOM      1  N   UNL     1       9.343  -2.277  -2.128  0.00  0.00    -0.354 N 
ATOM      2  N   UNL     1       8.112  -0.925  -0.708  0.00  0.00    -0.372 N 
ATOM      3  N   UNL     1       7.181  -1.578  -2.701  0.00  0.00    -0.372 N 
ATOM      4  C   UNL     1       8.218  -1.602  -1.857  0.00  0.00    +0.166 C 
ATOM      5  H   UNL     1      10.105  -2.231  -1.461  0.00  0.00    +0.163 HD
ATOM      6  H   UNL     1       7.274  -0.409  -0.475  0.00  0.00    +0.159 HD
ATOM      7  H   UNL     1       8.857  -0.918  -0.022  0.00  0.00    +0.159 HD
ATOM      8  H   UNL     1       7.201  -2.065  -3.587  0.00  0.00    +0.159 HD
ATOM      9  H   UNL     1       6.338  -1.058  -2.490  0.00  0.00    +0.159 HD
ENDROOT
BRANCH   1  10
ATOM     10  C   UNL     1       9.540  -3.091  -3.327  0.00  0.00    +0.151 C 
BRANCH  10  11
ATOM     11  C   UNL     1       9.457  -4.545  -2.953  0.00  0.00    -0.028 A 
ATOM     12  C   UNL     1       9.790  -5.540  -3.883  0.00  0.00    +0.005 A 
ATOM     13  C   UNL     1       9.050  -4.934  -1.667  0.00  0.00    +0.005 A 
ATOM     14  C   UNL     1       9.742  -6.890  -3.527  0.00  0.00    +0.000 A 
ATOM     15  C   UNL     1       9.001  -6.283  -1.316  0.00  0.00    +0.000 A 
ATOM     16  C   UNL     1       9.350  -7.260  -2.245  0.00  0.00    +0.000 A 
ENDBRANCH  10  11
ENDBRANCH   1  10
TORSDOF 2
ENDMDL
MODEL 7
REMARK VINA RESULT:    -5.194     20.087     21.177
REMARK INTER + INTRA:          -5.940
REMARK INTER:                  -5.808
REMARK INTRA:                  -0.132
REMARK UNBOUND:                -0.139
REMARK  Name = 1550473
REMARK  2 active torsions:
REMARK  status: ('A' for Active; 'I' for Inactive)
REMARK    1  A    between atoms: N_1  and  C_4
REMARK    2  A    between atoms: C_4  and  C_5
REMARK                            x       y       z     vdW  Elec       q    Type
REMARK                         _______ _______ _______ _____ _____    ______ ____
ROOT
ATOM      1  N   UNL     1      -0.903  11.747 -12.430  0.00  0.00    -0.354 N 
ATOM      2  N   UNL     1      -2.813  12.642 -11.472  0.00  0.00    -0.372 N 
ATOM      3  N   UNL     1      -2.838  10.453 -12.160  0.00  0.00    -0.372 N 
ATOM      4  C   UNL     1      -2.173  11.606 -12.028  0.00  0.00    +0.166 C 
ATOM      5  H   UNL     1      -0.465  12.656 -12.329  0.00  0.00    +0.163 HD
ATOM      6  H   UNL     1      -3.770  12.564 -11.156  0.00  0.00    +0.159 HD
ATOM      7  H   UNL     1      -2.358  13.535 -11.331  0.00  0.00    +0.159 HD
ATOM      8  H   UNL     1      -2.414   9.635 -12.577  0.00  0.00    +0.159 HD
ATOM      9  H   UNL     1      -3.800  10.359 -11.860  0.00  0.00    +0.159 HD
ENDROOT
BRANCH   1  10
ATOM     10  C   UNL     1      -0.100  10.666 -12.998  0.00  0.00    +0.151 C 
BRANCH  10  11
ATOM     11  C   UNL     1       1.251  10.659 -12.338  0.00  0.00    -0.028 A 
ATOM     12  C   UNL     1       1.995   9.474 -12.250  0.00  0.00    +0.005 A 
ATOM     13  C   UNL     1       1.796  11.837 -11.803  0.00  0.00    +0.005 A 
ATOM     14  C   UNL     1       3.263   9.473 -11.664  0.00  0.00    +0.000 A 
ATOM     15  C   UNL     1       3.062  11.832 -11.218  0.00  0.00    +0.000 A 
ATOM     16  C   UNL     1       3.796  10.651 -11.151  0.00  0.00    +0.000 A 
ENDBRANCH  10  11
ENDBRANCH   1  10
TORSDOF 2
ENDMDL
MODEL 8
REMARK VINA RESULT:    -5.160     32.722     33.461
REMARK INTER + INTRA:          -5.902
REMARK INTER:                  -5.724
REMARK INTRA:                  -0.179
REMARK UNBOUND:                -0.139
REMARK  Name = 1550473
REMARK  2 active torsions:
REMARK  status: ('A' for Active; 'I' for Inactive)
REMARK    1  A    between atoms: N_1  and  C_4
REMARK    2  A    between atoms: C_4  and  C_5
REMARK                            x       y       z     vdW  Elec       q    Type
REMARK                         _______ _______ _______ _____ _____    ______ ____
ROOT
ATOM      1  N   UNL     1     -20.260   6.243 -15.299  0.00  0.00    -0.354 N 
ATOM      2  N   UNL     1     -19.406   8.395 -15.297  0.00  0.00    -0.372 N 
ATOM      3  N   UNL     1     -20.316   7.565 -17.233  0.00  0.00    -0.372 N 
ATOM      4  C   UNL     1     -20.000   7.387 -15.946  0.00  0.00    +0.166 C 
ATOM      5  H   UNL     1     -19.968   6.159 -14.332  0.00  0.00    +0.163 HD
ATOM      6  H   UNL     1     -19.200   9.272 -15.757  0.00  0.00    +0.159 HD
ATOM      7  H   UNL     1     -19.157   8.326 -14.317  0.00  0.00    +0.159 HD
ATOM      8  H   UNL     1     -20.761   6.841 -17.781  0.00  0.00    +0.159 HD
ATOM      9  H   UNL     1     -20.108   8.431 -17.714  0.00  0.00    +0.159 HD
ENDROOT
BRANCH   1  10
ATOM     10  C   UNL     1     -20.952   5.103 -15.899  0.00  0.00    +0.151 C 
BRANCH  10  11
ATOM     11  C   UNL     1     -19.940   4.057 -16.277  0.00  0.00    -0.028 A 
ATOM     12  C   UNL     1     -19.490   3.127 -15.330  0.00  0.00    +0.005 A 
ATOM     13  C   UNL     1     -19.431   3.988 -17.583  0.00  0.00    +0.005 A 
ATOM     14  C   UNL     1     -18.572   2.136 -15.688  0.00  0.00    +0.000 A 
ATOM     15  C   UNL     1     -18.514   2.998 -17.937  0.00  0.00    +0.000 A 
ATOM     16  C   UNL     1     -18.087   2.071 -16.990  0.00  0.00    +0.000 A 
ENDBRANCH  10  11
ENDBRANCH   1  10
TORSDOF 2
ENDMDL
MODEL 9
REMARK VINA RESULT:    -5.057      2.954      4.451
REMARK INTER + INTRA:          -5.787
REMARK INTER:                  -5.623
REMARK INTRA:                  -0.164
REMARK UNBOUND:                -0.139
REMARK  Name = 1550473
REMARK  2 active torsions:
REMARK  status: ('A' for Active; 'I' for Inactive)
REMARK    1  A    between atoms: N_1  and  C_4
REMARK    2  A    between atoms: C_4  and  C_5
REMARK                            x       y       z     vdW  Elec       q    Type
REMARK                         _______ _______ _______ _____ _____    ______ ____
ROOT
ATOM      1  N   UNL     1       8.752  -2.115  -2.836  0.00  0.00    -0.354 N 
ATOM      2  N   UNL     1       7.923  -1.704  -4.959  0.00  0.00    -0.372 N 
ATOM      3  N   UNL     1       6.763  -0.915  -3.143  0.00  0.00    -0.372 N 
ATOM      4  C   UNL     1       7.816  -1.579  -3.631  0.00  0.00    +0.166 C 
ATOM      5  H   UNL     1       9.510  -2.633  -3.267  0.00  0.00    +0.163 HD
ATOM      6  H   UNL     1       7.233  -1.307  -5.584  0.00  0.00    +0.159 HD
ATOM      7  H   UNL     1       8.705  -2.182  -5.388  0.00  0.00    +0.159 HD
ATOM      8  H   UNL     1       6.621  -0.791  -2.149  0.00  0.00    +0.159 HD
ATOM      9  H   UNL     1       6.057  -0.521  -3.752  0.00  0.00    +0.159 HD
ENDROOT
BRANCH   1  10
ATOM     10  C   UNL     1       8.758  -1.990  -1.380  0.00  0.00    +0.151 C 
BRANCH  10  11
ATOM     11  C   UNL     1       8.332  -3.299  -0.773  0.00  0.00    -0.028 A 
ATOM     12  C   UNL     1       8.820  -4.512  -1.281  0.00  0.00    +0.005 A 
ATOM     13  C   UNL     1       7.445  -3.332   0.314  0.00  0.00    +0.005 A 
ATOM     14  C   UNL     1       8.448  -5.726  -0.699  0.00  0.00    +0.000 A 
ATOM     15  C   UNL     1       7.075  -4.546   0.892  0.00  0.00    +0.000 A 
ATOM     16  C   UNL     1       7.579  -5.743   0.387  0.00  0.00    +0.000 A 
ENDBRANCH  10  11
ENDBRANCH   1  10
TORSDOF 2
ENDMDL
