MODEL 1
REMARK VINA RESULT:    -5.589      0.000      0.000
REMARK INTER + INTRA:          -6.373
REMARK INTER:                  -6.243
REMARK INTRA:                  -0.130
REMARK UNBOUND:                -0.130
REMARK  Name = 1550473
REMARK  2 active torsions:
REMARK  status: ('A' for Active; 'I' for Inactive)
REMARK    1  A    between atoms: N_1  and  C_4
REMARK    2  A    between atoms: C_4  and  C_5
REMARK                            x       y       z     vdW  Elec       q    Type
REMARK                         _______ _______ _______ _____ _____    ______ ____
ROOT
ATOM      1  N   UNL     1       6.663  -0.558  -0.143  0.00  0.00    -0.354 N 
ATOM      2  N   UNL     1       6.143   0.661  -2.043  0.00  0.00    -0.372 N 
ATOM      3  N   UNL     1       5.634   1.542   0.014  0.00  0.00    -0.372 N 
ATOM      4  C   UNL     1       6.149   0.542  -0.709  0.00  0.00    +0.166 C 
ATOM      5  H   UNL     1       7.010  -1.293  -0.748  0.00  0.00    +0.163 HD
ATOM      6  H   UNL     1       5.765   1.481  -2.498  0.00  0.00    +0.159 HD
ATOM      7  H   UNL     1       6.532  -0.055  -2.643  0.00  0.00    +0.159 HD
ATOM      8  H   UNL     1       5.604   1.511   1.024  0.00  0.00    +0.159 HD
ATOM      9  H   UNL     1       5.241   2.365  -0.424  0.00  0.00    +0.159 HD
ENDROOT
BRANCH   1  10
ATOM     10  C   UNL     1       6.767  -0.762   1.301  0.00  0.00    +0.151 C 
BRANCH  10  11
ATOM     11  C   UNL     1       6.019  -2.012   1.675  0.00  0.00    -0.028 A 
ATOM     12  C   UNL     1       6.491  -2.843   2.702  0.00  0.00    +0.005 A 
ATOM     13  C   UNL     1       4.836  -2.368   1.010  0.00  0.00    +0.005 A 
ATOM     14  C   UNL     1       5.781  -3.988   3.070  0.00  0.00    +0.000 A 
ATOM     15  C   UNL     1       4.130  -3.513   1.381  0.00  0.00    +0.000 A 
ATOM     16  C   UNL     1       4.602  -4.321   2.412  0.00  0.00    +0.000 A 
ENDBRANCH  10  11
ENDBRANCH   1  10
TORSDOF 2
ENDMDL
MODEL 2
REMARK VINA RESULT:    -5.299      1.369      2.053
REMARK INTER + INTRA:          -6.049
REMARK INTER:                  -5.907
REMARK INTRA:                  -0.142
REMARK UNBOUND:                -0.130
REMARK  Name = 1550473
REMARK  2 active torsions:
REMARK  status: ('A' for Active; 'I' for Inactive)
REMARK    1  A    between atoms: N_1  and  C_4
REMARK    2  A    between atoms: C_4  and  C_5
REMARK                            x       y       z     vdW  Elec       q    Type
REMARK                         _______ _______ _______ _____ _____    ______ ____
ROOT
ATOM      1  N   UNL     1       5.644  -1.967  -0.553  0.00  0.00    -0.354 N 
ATOM      2  N   UNL     1       4.675  -1.101  -2.470  0.00  0.00    -0.372 N 
ATOM      3  N   UNL     1       4.839   0.233  -0.610  0.00  0.00    -0.372 N 
ATOM      4  C   UNL     1       5.059  -0.949  -1.197  0.00  0.00    +0.166 C 
ATOM      5  H   UNL     1       5.755  -2.847  -1.044  0.00  0.00    +0.163 HD
ATOM      6  H   UNL     1       4.234  -0.350  -2.982  0.00  0.00    +0.159 HD
ATOM      7  H   UNL     1       4.828  -1.967  -2.972  0.00  0.00    +0.159 HD
ATOM      8  H   UNL     1       5.100   0.411   0.350  0.00  0.00    +0.159 HD
ATOM      9  H   UNL     1       4.388   0.994  -1.103  0.00  0.00    +0.159 HD
ENDROOT
BRANCH   1  10
ATOM     10  C   UNL     1       6.148  -1.887   0.817  0.00  0.00    +0.151 C 
BRANCH  10  11
ATOM     11  C   UNL     1       5.600  -3.042   1.610  0.00  0.00    -0.028 A 
ATOM     12  C   UNL     1       4.264  -3.441   1.457  0.00  0.00    +0.005 A 
ATOM     13  C   UNL     1       6.414  -3.745   2.512  0.00  0.00    +0.005 A 
ATOM     14  C   UNL     1       3.764  -4.532   2.171  0.00  0.00    +0.000 A 
ATOM     15  C   UNL     1       5.910  -4.834   3.223  0.00  0.00    +0.000 A 
ATOM     16  C   UNL     1       4.585  -5.228   3.050  0.00  0.00    +0.000 A 
ENDBRANCH  10  11
ENDBRANCH   1  10
TORSDOF 2
ENDMDL
MODEL 3
REMARK VINA RESULT:    -5.295      3.968      5.046
REMARK INTER + INTRA:          -6.045
REMARK INTER:                  -5.936
REMARK INTRA:                  -0.109
REMARK UNBOUND:                -0.130
REMARK  Name = 1550473
REMARK  2 active torsions:
REMARK  status: ('A' for Active; 'I' for Inactive)
REMARK    1  A    between atoms: N_1  and  C_4
REMARK    2  A    between atoms: C_4  and  C_5
REMARK                            x       y       z     vdW  Elec       q    Type
REMARK                         _______ _______ _______ _____ _____    ______ ____
ROOT
ATOM      1  N   UNL     1       8.029  -3.600   4.360  0.00  0.00    -0.354 N 
ATOM      2  N   UNL     1       9.469  -4.931   5.592  0.00  0.00    -0.372 N 
ATOM      3  N   UNL     1       9.864  -4.651   3.349  0.00  0.00    -0.372 N 
ATOM      4  C   UNL     1       9.112  -4.385   4.423  0.00  0.00    +0.166 C 
ATOM      5  H   UNL     1       7.484  -3.462   5.203  0.00  0.00    +0.163 HD
ATOM      6  H   UNL     1      10.283  -5.525   5.671  0.00  0.00    +0.159 HD
ATOM      7  H   UNL     1       8.949  -4.755   6.443  0.00  0.00    +0.159 HD
ATOM      8  H   UNL     1       9.645  -4.274   2.436  0.00  0.00    +0.159 HD
ATOM      9  H   UNL     1      10.676  -5.252   3.406  0.00  0.00    +0.159 HD
ENDROOT
BRANCH   1  10
ATOM     10  C   UNL     1       7.586  -2.914   3.147  0.00  0.00    +0.151 C 
BRANCH  10  11
ATOM     11  C   UNL     1       6.256  -3.474   2.724  0.00  0.00    -0.028 A 
ATOM     12  C   UNL     1       5.750  -4.637   3.323  0.00  0.00    +0.005 A 
ATOM     13  C   UNL     1       5.493  -2.842   1.730  0.00  0.00    +0.005 A 
ATOM     14  C   UNL     1       4.501  -5.141   2.952  0.00  0.00    +0.000 A 
ATOM     15  C   UNL     1       4.247  -3.349   1.362  0.00  0.00    +0.000 A 
ATOM     16  C   UNL     1       3.750  -4.496   1.974  0.00  0.00    +0.000 A 
ENDBRANCH  10  11
ENDBRANCH   1  10
TORSDOF 2
ENDMDL
MODEL 4
REMARK VINA RESULT:    -5.242     12.920     14.118
REMARK INTER + INTRA:          -5.985
REMARK INTER:                  -5.844
REMARK INTRA:                  -0.141
REMARK UNBOUND:                -0.130
REMARK  Name = 1550473
REMARK  2 active torsions:
REMARK  status: ('A' for Active; 'I' for Inactive)
REMARK    1  A    between atoms: N_1  and  C_4
REMARK    2  A    between atoms: C_4  and  C_5
REMARK                            x       y       z     vdW  Elec       q    Type
REMARK                         _______ _______ _______ _____ _____    ______ ____
ROOT
ATOM      1  N   UNL     1       9.793  -1.514 -12.094  0.00  0.00    -0.354 N 
ATOM      2  N   UNL     1       7.996  -0.397 -13.035  0.00  0.00    -0.372 N 
ATOM      3  N   UNL     1       8.317  -0.268 -10.767  0.00  0.00    -0.372 N 
ATOM      4  C   UNL     1       8.713  -0.734 -11.956  0.00  0.00    +0.166 C 
ATOM      5  H   UNL     1      10.023  -1.859 -13.019  0.00  0.00    +0.163 HD
ATOM      6  H   UNL     1       7.178   0.193 -12.963  0.00  0.00    +0.159 HD
ATOM      7  H   UNL     1       8.255  -0.706 -13.965  0.00  0.00    +0.159 HD
ATOM      8  H   UNL     1       8.812  -0.490  -9.913  0.00  0.00    +0.159 HD
ATOM      9  H   UNL     1       7.494   0.314 -10.673  0.00  0.00    +0.159 HD
ENDROOT
BRANCH   1  10
ATOM     10  C   UNL     1      10.673  -1.894 -10.990  0.00  0.00    +0.151 C 
BRANCH  10  11
ATOM     11  C   UNL     1      11.922  -1.058 -11.047  0.00  0.00    -0.028 A 
ATOM     12  C   UNL     1      13.117  -1.597 -11.544  0.00  0.00    +0.005 A 
ATOM     13  C   UNL     1      11.914   0.276 -10.612  0.00  0.00    +0.005 A 
ATOM     14  C   UNL     1      14.270  -0.812 -11.625  0.00  0.00    +0.000 A 
ATOM     15  C   UNL     1      13.067   1.057 -10.694  0.00  0.00    +0.000 A 
ATOM     16  C   UNL     1      14.244   0.513 -11.202  0.00  0.00    +0.000 A 
ENDBRANCH  10  11
ENDBRANCH   1  10
TORSDOF 2
ENDMDL
MODEL 5
REMARK VINA RESULT:    -5.207     17.454     18.524
REMARK INTER + INTRA:          -5.946
REMARK INTER:                  -5.794
REMARK INTRA:                  -0.153
REMARK UNBOUND:                -0.130
REMARK  Name = 1550473
REMARK  2 active torsions:
REMARK  status: ('A' for Active; 'I' for Inactive)
REMARK    1  A    between atoms: N_1  and  C_4
REMARK    2  A    between atoms: C_4  and  C_5
REMARK                            x       y       z     vdW  Elec       q    Type
REMARK                         _______ _______ _______ _____ _____    ______ ____
ROOT
ATOM      1  N   UNL     1      17.351   8.069  10.194  0.00  0.00    -0.354 N 
ATOM      2  N   UNL     1      17.353   7.297   8.011  0.00  0.00    -0.372 N 
ATOM      3  N   UNL     1      19.344   7.911   8.971  0.00  0.00    -0.372 N 
ATOM      4  C   UNL     1      18.019   7.765   9.073  0.00  0.00    +0.166 C 
ATOM      5  H   UNL     1      16.343   7.964  10.198  0.00  0.00    +0.163 HD
ATOM      6  H   UNL     1      17.830   7.056   7.152  0.00  0.00    +0.159 HD
ATOM      7  H   UNL     1      16.351   7.150   8.032  0.00  0.00    +0.159 HD
ATOM      8  H   UNL     1      19.904   8.265   9.735  0.00  0.00    +0.159 HD
ATOM      9  H   UNL     1      19.838   7.686   8.116  0.00  0.00    +0.159 HD
ENDROOT
BRANCH   1  10
ATOM     10  C   UNL     1      17.989   8.534  11.425  0.00  0.00    +0.151 C 
BRANCH  10  11
ATOM     11  C   UNL     1      17.973   7.422  12.437  0.00  0.00    -0.028 A 
ATOM     12  C   UNL     1      18.859   6.341  12.321  0.00  0.00    +0.005 A 
ATOM     13  C   UNL     1      17.078   7.447  13.518  0.00  0.00    +0.005 A 
ATOM     14  C   UNL     1      18.865   5.323  13.278  0.00  0.00    +0.000 A 
ATOM     15  C   UNL     1      17.086   6.428  14.470  0.00  0.00    +0.000 A 
ATOM     16  C   UNL     1      17.981   5.368  14.352  0.00  0.00    +0.000 A 
ENDBRANCH  10  11
ENDBRANCH   1  10
TORSDOF 2
ENDMDL
MODEL 6
REMARK VINA RESULT:    -5.168     11.508     12.708
REMARK INTER + INTRA:          -5.903
REMARK INTER:                  -5.739
REMARK INTRA:                  -0.164
REMARK UNBOUND:                -0.130
REMARK  Name = 1550473
REMARK  2 active torsions:
REMARK  status: ('A' for Active; 'I' for Inactive)
REMARK    1  A    between atoms: N_1  and  C_4
REMARK    2  A    between atoms: C_4  and  C_5
REMARK                            x       y       z     vdW  Elec       q    Type
REMARK                         _______ _______ _______ _____ _____    ______ ____
ROOT
ATOM      1  N   UNL     1      12.562  -0.288  -9.288  0.00  0.00    -0.354 N 
ATOM      2  N   UNL     1      13.293   1.835  -8.719  0.00  0.00    -0.372 N 
ATOM      3  N   UNL     1      13.052   1.302 -10.938  0.00  0.00    -0.372 N 
ATOM      4  C   UNL     1      12.964   0.936  -9.655  0.00  0.00    +0.166 C 
ATOM      5  H   UNL     1      12.546  -0.514  -8.300  0.00  0.00    +0.163 HD
ATOM      6  H   UNL     1      13.596   2.767  -8.965  0.00  0.00    +0.159 HD
ATOM      7  H   UNL     1      13.232   1.621  -7.731  0.00  0.00    +0.159 HD
ATOM      8  H   UNL     1      12.824   0.669 -11.692  0.00  0.00    +0.159 HD
ATOM      9  H   UNL     1      13.365   2.228 -11.205  0.00  0.00    +0.159 HD
ENDROOT
BRANCH   1  10
ATOM     10  C   UNL     1      12.131  -1.323 -10.226  0.00  0.00    +0.151 C 
BRANCH  10  11
ATOM     11  C   UNL     1      10.648  -1.200 -10.445  0.00  0.00    -0.028 A 
ATOM     12  C   UNL     1       9.753  -1.404  -9.385  0.00  0.00    +0.005 A 
ATOM     13  C   UNL     1      10.132  -0.876 -11.709  0.00  0.00    +0.005 A 
ATOM     14  C   UNL     1       8.377  -1.261  -9.580  0.00  0.00    +0.000 A 
ATOM     15  C   UNL     1       8.758  -0.735 -11.900  0.00  0.00    +0.000 A 
ATOM     16  C   UNL     1       7.881  -0.925 -10.835  0.00  0.00    +0.000 A 
ENDBRANCH  10  11
ENDBRANCH   1  10
TORSDOF 2
ENDMDL
MODEL 7
REMARK VINA RESULT:    -5.010      9.408     10.801
REMARK INTER + INTRA:          -5.727
REMARK INTER:                  -5.620
REMARK INTRA:                  -0.107
REMARK UNBOUND:                -0.130
REMARK  Name = 1550473
REMARK  2 active torsions:
REMARK  status: ('A' for Active; 'I' for Inactive)
REMARK    1  A    between atoms: N_1  and  C_4
REMARK    2  A    between atoms: C_4  and  C_5
REMARK                            x       y       z     vdW  Elec       q    Type
REMARK                         _______ _______ _______ _____ _____    ______ ____
ROOT
ATOM      1  N   UNL     1       8.832  -0.220 -10.481  0.00  0.00    -0.354 N 
ATOM      2  N   UNL     1       8.305  -0.308 -12.735  0.00  0.00    -0.372 N 
ATOM      3  N   UNL     1      10.136  -1.466 -11.978  0.00  0.00    -0.372 N 
ATOM      4  C   UNL     1       9.097  -0.666 -11.717  0.00  0.00    +0.166 C 
ATOM      5  H   UNL     1       8.047   0.409 -10.354  0.00  0.00    +0.163 HD
ATOM      6  H   UNL     1       8.477  -0.632 -13.677  0.00  0.00    +0.159 HD
ATOM      7  H   UNL     1       7.494   0.283 -12.597  0.00  0.00    +0.159 HD
ATOM      8  H   UNL     1      10.775  -1.767 -11.254  0.00  0.00    +0.159 HD
ATOM      9  H   UNL     1      10.332  -1.791 -12.916  0.00  0.00    +0.159 HD
ENDROOT
BRANCH   1  10
ATOM     10  C   UNL     1       9.601  -0.593  -9.295  0.00  0.00    +0.151 C 
BRANCH  10  11
ATOM     11  C   UNL     1       8.831  -1.621  -8.514  0.00  0.00    -0.028 A 
ATOM     12  C   UNL     1       9.438  -2.313  -7.456  0.00  0.00    +0.005 A 
ATOM     13  C   UNL     1       7.491  -1.903  -8.822  0.00  0.00    +0.005 A 
ATOM     14  C   UNL     1       8.714  -3.247  -6.710  0.00  0.00    +0.000 A 
ATOM     15  C   UNL     1       6.772  -2.837  -8.076  0.00  0.00    +0.000 A 
ATOM     16  C   UNL     1       7.383  -3.506  -7.019  0.00  0.00    +0.000 A 
ENDBRANCH  10  11
ENDBRANCH   1  10
TORSDOF 2
ENDMDL
MODEL 8
REMARK VINA RESULT:    -4.980     18.859     20.023
REMARK INTER + INTRA:          -5.693
REMARK INTER:                  -5.579
REMARK INTRA:                  -0.114
REMARK UNBOUND:                -0.130
REMARK  Name = 1550473
REMARK  2 active torsions:
REMARK  status: ('A' for Active; 'I' for Inactive)
REMARK    1  A    between atoms: N_1  and  C_4
REMARK    2  A    between atoms: C_4  and  C_5
REMARK                            x       y       z     vdW  Elec       q    Type
REMARK                         _______ _______ _______ _____ _____    ______ ____
ROOT
ATOM      1  N   UNL     1      -8.453  -6.404  13.744  0.00  0.00    -0.354 N 
ATOM      2  N   UNL     1      -7.845  -8.026  15.282  0.00  0.00    -0.372 N 
ATOM      3  N   UNL     1      -8.264  -8.653  13.114  0.00  0.00    -0.372 N 
ATOM      4  C   UNL     1      -8.192  -7.685  14.034  0.00  0.00    +0.166 C 
ATOM      5  H   UNL     1      -8.410  -5.722  14.493  0.00  0.00    +0.163 HD
ATOM      6  H   UNL     1      -7.639  -8.984  15.530  0.00  0.00    +0.159 HD
ATOM      7  H   UNL     1      -7.758  -7.336  16.018  0.00  0.00    +0.159 HD
ATOM      8  H   UNL     1      -8.526  -8.463  12.156  0.00  0.00    +0.159 HD
ATOM      9  H   UNL     1      -8.072  -9.620  13.346  0.00  0.00    +0.159 HD
ENDROOT
BRANCH   1  10
ATOM     10  C   UNL     1      -8.787  -5.920  12.406  0.00  0.00    +0.151 C 
BRANCH  10  11
ATOM     11  C   UNL     1      -9.221  -4.483  12.497  0.00  0.00    -0.028 A 
ATOM     12  C   UNL     1     -10.047  -4.054  13.546  0.00  0.00    +0.005 A 
ATOM     13  C   UNL     1      -8.805  -3.544  11.540  0.00  0.00    +0.005 A 
ATOM     14  C   UNL     1     -10.426  -2.713  13.647  0.00  0.00    +0.000 A 
ATOM     15  C   UNL     1      -9.187  -2.207  11.645  0.00  0.00    +0.000 A 
ATOM     16  C   UNL     1      -9.995  -1.791  12.700  0.00  0.00    +0.000 A 
ENDBRANCH  10  11
ENDBRANCH   1  10
TORSDOF 2
ENDMDL
MODEL 9
REMARK VINA RESULT:    -4.975      0.904      1.792
REMARK INTER + INTRA:          -5.687
REMARK INTER:                  -5.540
REMARK INTRA:                  -0.147
REMARK UNBOUND:                -0.130
REMARK  Name = 1550473
REMARK  2 active torsions:
REMARK  status: ('A' for Active; 'I' for Inactive)
REMARK    1  A    between atoms: N_1  and  C_4
REMARK    2  A    between atoms: C_4  and  C_5
REMARK                            x       y       z     vdW  Elec       q    Type
REMARK                         _______ _______ _______ _____ _____    ______ ____
ROOT
ATOM      1  N   UNL     1       7.171  -0.338  -0.404  0.00  0.00    -0.354 N 
ATOM      2  N   UNL     1       7.788  -0.005  -2.611  0.00  0.00    -0.372 N 
ATOM      3  N   UNL     1       5.883   1.005  -1.828  0.00  0.00    -0.372 N 
ATOM      4  C   UNL     1       6.941   0.220  -1.600  0.00  0.00    +0.166 C 
ATOM      5  H   UNL     1       7.975  -0.948  -0.304  0.00  0.00    +0.163 HD
ATOM      6  H   UNL     1       7.642   0.405  -3.524  0.00  0.00    +0.159 HD
ATOM      7  H   UNL     1       8.616  -0.578  -2.496  0.00  0.00    +0.159 HD
ATOM      8  H   UNL     1       5.202   1.209  -1.108  0.00  0.00    +0.159 HD
ATOM      9  H   UNL     1       5.713   1.415  -2.738  0.00  0.00    +0.159 HD
ENDROOT
BRANCH   1  10
ATOM     10  C   UNL     1       6.339  -0.114   0.777  0.00  0.00    +0.151 C 
BRANCH  10  11
ATOM     11  C   UNL     1       5.830  -1.437   1.278  0.00  0.00    -0.028 A 
ATOM     12  C   UNL     1       4.642  -1.981   0.768  0.00  0.00    +0.005 A 
ATOM     13  C   UNL     1       6.533  -2.154   2.258  0.00  0.00    +0.005 A 
ATOM     14  C   UNL     1       4.184  -3.225   1.211  0.00  0.00    +0.000 A 
ATOM     15  C   UNL     1       6.072  -3.395   2.698  0.00  0.00    +0.000 A 
ATOM     16  C   UNL     1       4.899  -3.931   2.173  0.00  0.00    +0.000 A 
ENDBRANCH  10  11
ENDBRANCH   1  10
TORSDOF 2
ENDMDL
