MODEL 1
REMARK VINA RESULT:    -5.717      0.000      0.000
REMARK INTER + INTRA:          -6.514
REMARK INTER:                  -6.386
REMARK INTRA:                  -0.128
REMARK UNBOUND:                -0.128
REMARK  Name = 1550473
REMARK  2 active torsions:
REMARK  status: ('A' for Active; 'I' for Inactive)
REMARK    1  A    between atoms: N_1  and  C_4
REMARK    2  A    between atoms: C_4  and  C_5
REMARK                            x       y       z     vdW  Elec       q    Type
REMARK                         _______ _______ _______ _____ _____    ______ ____
ROOT
ATOM      1  N   UNL     1     -13.009  -6.001  -6.557  0.00  0.00    -0.354 N 
ATOM      2  N   UNL     1     -15.303  -5.722  -6.398  0.00  0.00    -0.372 N 
ATOM      3  N   UNL     1     -14.483  -7.599  -7.433  0.00  0.00    -0.372 N 
ATOM      4  C   UNL     1     -14.250  -6.445  -6.799  0.00  0.00    +0.166 C 
ATOM      5  H   UNL     1     -12.900  -5.104  -6.099  0.00  0.00    +0.163 HD
ATOM      6  H   UNL     1     -16.251  -6.033  -6.563  0.00  0.00    +0.159 HD
ATOM      7  H   UNL     1     -15.190  -4.848  -5.899  0.00  0.00    +0.159 HD
ATOM      8  H   UNL     1     -13.732  -8.188  -7.766  0.00  0.00    +0.159 HD
ATOM      9  H   UNL     1     -15.425  -7.921  -7.618  0.00  0.00    +0.159 HD
ENDROOT
BRANCH   1  10
ATOM     10  C   UNL     1     -11.795  -6.738  -6.904  0.00  0.00    +0.151 C 
BRANCH  10  11
ATOM     11  C   UNL     1     -10.712  -5.759  -7.262  0.00  0.00    -0.028 A 
ATOM     12  C   UNL     1     -11.004  -4.622  -8.030  0.00  0.00    +0.005 A 
ATOM     13  C   UNL     1      -9.391  -5.960  -6.832  0.00  0.00    +0.005 A 
ATOM     14  C   UNL     1     -10.004  -3.697  -8.337  0.00  0.00    +0.000 A 
ATOM     15  C   UNL     1      -8.395  -5.034  -7.142  0.00  0.00    +0.000 A 
ATOM     16  C   UNL     1      -8.702  -3.901  -7.892  0.00  0.00    +0.000 A 
ENDBRANCH  10  11
ENDBRANCH   1  10
TORSDOF 2
ENDMDL
MODEL 2
REMARK VINA RESULT:    -5.353     28.704     29.755
REMARK INTER + INTRA:          -6.107
REMARK INTER:                  -5.941
REMARK INTRA:                  -0.166
REMARK UNBOUND:                -0.128
REMARK  Name = 1550473
REMARK  2 active torsions:
REMARK  status: ('A' for Active; 'I' for Inactive)
REMARK    1  A    between atoms: N_1  and  C_4
REMARK    2  A    between atoms: C_4  and  C_5
REMARK                            x       y       z     vdW  Elec       q    Type
REMARK                         _______ _______ _______ _____ _____    ______ ____
ROOT
ATOM      1  N   UNL     1       4.012   9.695  12.729  0.00  0.00    -0.354 N 
ATOM      2  N   UNL     1       3.547   9.896  10.469  0.00  0.00    -0.372 N 
ATOM      3  N   UNL     1       5.564   9.011  11.112  0.00  0.00    -0.372 N 
ATOM      4  C   UNL     1       4.380   9.532  11.451  0.00  0.00    +0.166 C 
ATOM      5  H   UNL     1       3.113  10.124  12.920  0.00  0.00    +0.163 HD
ATOM      6  H   UNL     1       3.796   9.782   9.495  0.00  0.00    +0.159 HD
ATOM      7  H   UNL     1       2.631  10.282  10.663  0.00  0.00    +0.159 HD
ATOM      8  H   UNL     1       6.240   8.721  11.806  0.00  0.00    +0.159 HD
ATOM      9  H   UNL     1       5.836   8.899  10.143  0.00  0.00    +0.159 HD
ENDROOT
BRANCH   1  10
ATOM     10  C   UNL     1       4.823   9.282  13.873  0.00  0.00    +0.151 C 
BRANCH  10  11
ATOM     11  C   UNL     1       4.204   8.062  14.498  0.00  0.00    -0.028 A 
ATOM     12  C   UNL     1       4.909   6.850  14.545  0.00  0.00    +0.005 A 
ATOM     13  C   UNL     1       2.915   8.112  15.050  0.00  0.00    +0.005 A 
ATOM     14  C   UNL     1       4.347   5.725  15.152  0.00  0.00    +0.000 A 
ATOM     15  C   UNL     1       2.357   6.986  15.655  0.00  0.00    +0.000 A 
ATOM     16  C   UNL     1       3.074   5.793  15.708  0.00  0.00    +0.000 A 
ENDBRANCH  10  11
ENDBRANCH   1  10
TORSDOF 2
ENDMDL
MODEL 3
REMARK VINA RESULT:    -5.330     27.870     29.099
REMARK INTER + INTRA:          -6.081
REMARK INTER:                  -5.932
REMARK INTRA:                  -0.149
REMARK UNBOUND:                -0.128
REMARK  Name = 1550473
REMARK  2 active torsions:
REMARK  status: ('A' for Active; 'I' for Inactive)
REMARK    1  A    between atoms: N_1  and  C_4
REMARK    2  A    between atoms: C_4  and  C_5
REMARK                            x       y       z     vdW  Elec       q    Type
REMARK                         _______ _______ _______ _____ _____    ______ ____
ROOT
ATOM      1  N   UNL     1       3.971   3.760  15.086  0.00  0.00    -0.354 N 
ATOM      2  N   UNL     1       4.394   2.379  13.276  0.00  0.00    -0.372 N 
ATOM      3  N   UNL     1       2.238   3.057  13.674  0.00  0.00    -0.372 N 
ATOM      4  C   UNL     1       3.529   3.074  14.024  0.00  0.00    +0.166 C 
ATOM      5  H   UNL     1       4.957   3.708  15.316  0.00  0.00    +0.163 HD
ATOM      6  H   UNL     1       4.090   1.855  12.466  0.00  0.00    +0.159 HD
ATOM      7  H   UNL     1       5.385   2.366  13.481  0.00  0.00    +0.159 HD
ATOM      8  H   UNL     1       1.534   3.556  14.200  0.00  0.00    +0.159 HD
ATOM      9  H   UNL     1       1.913   2.528  12.874  0.00  0.00    +0.159 HD
ENDROOT
BRANCH   1  10
ATOM     10  C   UNL     1       3.120   4.593  15.934  0.00  0.00    +0.151 C 
BRANCH  10  11
ATOM     11  C   UNL     1       3.312   6.036  15.558  0.00  0.00    -0.028 A 
ATOM     12  C   UNL     1       2.297   6.974  15.791  0.00  0.00    +0.005 A 
ATOM     13  C   UNL     1       4.511   6.472  14.972  0.00  0.00    +0.005 A 
ATOM     14  C   UNL     1       2.487   8.320  15.469  0.00  0.00    +0.000 A 
ATOM     15  C   UNL     1       4.696   7.816  14.651  0.00  0.00    +0.000 A 
ATOM     16  C   UNL     1       3.685   8.741  14.902  0.00  0.00    +0.000 A 
ENDBRANCH  10  11
ENDBRANCH   1  10
TORSDOF 2
ENDMDL
MODEL 4
REMARK VINA RESULT:    -5.261      9.717     12.973
REMARK INTER + INTRA:          -6.004
REMARK INTER:                  -5.857
REMARK INTRA:                  -0.147
REMARK UNBOUND:                -0.128
REMARK  Name = 1550473
REMARK  2 active torsions:
REMARK  status: ('A' for Active; 'I' for Inactive)
REMARK    1  A    between atoms: N_1  and  C_4
REMARK    2  A    between atoms: C_4  and  C_5
REMARK                            x       y       z     vdW  Elec       q    Type
REMARK                         _______ _______ _______ _____ _____    ______ ____
ROOT
ATOM      1  N   UNL     1     -20.391  -5.442  -1.613  0.00  0.00    -0.354 N 
ATOM      2  N   UNL     1     -18.240  -4.767  -1.084  0.00  0.00    -0.372 N 
ATOM      3  N   UNL     1     -18.582  -6.920  -1.800  0.00  0.00    -0.372 N 
ATOM      4  C   UNL     1     -19.085  -5.717  -1.503  0.00  0.00    +0.166 C 
ATOM      5  H   UNL     1     -20.714  -4.520  -1.344  0.00  0.00    +0.163 HD
ATOM      6  H   UNL     1     -17.249  -4.943  -0.994  0.00  0.00    +0.159 HD
ATOM      7  H   UNL     1     -18.559  -3.832  -0.859  0.00  0.00    +0.159 HD
ATOM      8  H   UNL     1     -19.167  -7.682  -2.116  0.00  0.00    +0.159 HD
ATOM      9  H   UNL     1     -17.594  -7.119  -1.705  0.00  0.00    +0.159 HD
ENDROOT
BRANCH   1  10
ATOM     10  C   UNL     1     -21.387  -6.390  -2.111  0.00  0.00    +0.151 C 
BRANCH  10  11
ATOM     11  C   UNL     1     -22.358  -6.707  -1.008  0.00  0.00    -0.028 A 
ATOM     12  C   UNL     1     -22.600  -8.036  -0.633  0.00  0.00    +0.005 A 
ATOM     13  C   UNL     1     -23.036  -5.682  -0.331  0.00  0.00    +0.005 A 
ATOM     14  C   UNL     1     -23.480  -8.330   0.412  0.00  0.00    +0.000 A 
ATOM     15  C   UNL     1     -23.914  -5.979   0.711  0.00  0.00    +0.000 A 
ATOM     16  C   UNL     1     -24.134  -7.303   1.084  0.00  0.00    +0.000 A 
ENDBRANCH  10  11
ENDBRANCH   1  10
TORSDOF 2
ENDMDL
MODEL 5
REMARK VINA RESULT:    -5.199     25.885     27.170
REMARK INTER + INTRA:          -5.935
REMARK INTER:                  -5.774
REMARK INTRA:                  -0.162
REMARK UNBOUND:                -0.128
REMARK  Name = 1550473
REMARK  2 active torsions:
REMARK  status: ('A' for Active; 'I' for Inactive)
REMARK    1  A    between atoms: N_1  and  C_4
REMARK    2  A    between atoms: C_4  and  C_5
REMARK                            x       y       z     vdW  Elec       q    Type
REMARK                         _______ _______ _______ _____ _____    ______ ____
ROOT
ATOM      1  N   UNL     1       3.328   2.679  12.007  0.00  0.00    -0.354 N 
ATOM      2  N   UNL     1       1.960   2.532  10.144  0.00  0.00    -0.372 N 
ATOM      3  N   UNL     1       1.400   1.347  12.028  0.00  0.00    -0.372 N 
ATOM      4  C   UNL     1       2.237   2.185  11.407  0.00  0.00    +0.166 C 
ATOM      5  H   UNL     1       3.939   3.285  11.472  0.00  0.00    +0.163 HD
ATOM      6  H   UNL     1       1.143   2.178   9.666  0.00  0.00    +0.159 HD
ATOM      7  H   UNL     1       2.548   3.174   9.627  0.00  0.00    +0.159 HD
ATOM      8  H   UNL     1       1.555   1.042  12.979  0.00  0.00    +0.159 HD
ATOM      9  H   UNL     1       0.582   0.973  11.562  0.00  0.00    +0.159 HD
ENDROOT
BRANCH   1  10
ATOM     10  C   UNL     1       3.691   2.406  13.397  0.00  0.00    +0.151 C 
BRANCH  10  11
ATOM     11  C   UNL     1       3.586   3.679  14.191  0.00  0.00    -0.028 A 
ATOM     12  C   UNL     1       4.656   4.585  14.228  0.00  0.00    +0.005 A 
ATOM     13  C   UNL     1       2.417   3.988  14.903  0.00  0.00    +0.005 A 
ATOM     14  C   UNL     1       4.548   5.782  14.941  0.00  0.00    +0.000 A 
ATOM     15  C   UNL     1       2.314   5.184  15.614  0.00  0.00    +0.000 A 
ATOM     16  C   UNL     1       3.378   6.081  15.631  0.00  0.00    +0.000 A 
ENDBRANCH  10  11
ENDBRANCH   1  10
TORSDOF 2
ENDMDL
MODEL 6
REMARK VINA RESULT:    -5.170     28.168     29.406
REMARK INTER + INTRA:          -5.902
REMARK INTER:                  -5.754
REMARK INTRA:                  -0.148
REMARK UNBOUND:                -0.128
REMARK  Name = 1550473
REMARK  2 active torsions:
REMARK  status: ('A' for Active; 'I' for Inactive)
REMARK    1  A    between atoms: N_1  and  C_4
REMARK    2  A    between atoms: C_4  and  C_5
REMARK                            x       y       z     vdW  Elec       q    Type
REMARK                         _______ _______ _______ _____ _____    ______ ____
ROOT
ATOM      1  N   UNL     1       3.581   4.963  13.997  0.00  0.00    -0.354 N 
ATOM      2  N   UNL     1       2.229   3.132  13.565  0.00  0.00    -0.372 N 
ATOM      3  N   UNL     1       3.406   3.202  15.534  0.00  0.00    -0.372 N 
ATOM      4  C   UNL     1       3.082   3.777  14.371  0.00  0.00    +0.166 C 
ATOM      5  H   UNL     1       3.320   5.331  13.090  0.00  0.00    +0.163 HD
ATOM      6  H   UNL     1       1.834   2.238  13.822  0.00  0.00    +0.159 HD
ATOM      7  H   UNL     1       1.934   3.524  12.679  0.00  0.00    +0.159 HD
ATOM      8  H   UNL     1       4.048   3.634  16.184  0.00  0.00    +0.159 HD
ATOM      9  H   UNL     1       3.029   2.302  15.803  0.00  0.00    +0.159 HD
ENDROOT
BRANCH   1  10
ATOM     10  C   UNL     1       4.475   5.771  14.825  0.00  0.00    +0.151 C 
BRANCH  10  11
ATOM     11  C   UNL     1       3.856   7.125  15.038  0.00  0.00    -0.028 A 
ATOM     12  C   UNL     1       4.523   8.286  14.619  0.00  0.00    +0.005 A 
ATOM     13  C   UNL     1       2.601   7.253  15.653  0.00  0.00    +0.005 A 
ATOM     14  C   UNL     1       3.935   9.542  14.790  0.00  0.00    +0.000 A 
ATOM     15  C   UNL     1       2.019   8.509  15.822  0.00  0.00    +0.000 A 
ATOM     16  C   UNL     1       2.684   9.653  15.389  0.00  0.00    +0.000 A 
ENDBRANCH  10  11
ENDBRANCH   1  10
TORSDOF 2
ENDMDL
MODEL 7
REMARK VINA RESULT:    -5.039     26.385     27.734
REMARK INTER + INTRA:          -5.756
REMARK INTER:                  -5.626
REMARK INTRA:                  -0.130
REMARK UNBOUND:                -0.128
REMARK  Name = 1550473
REMARK  2 active torsions:
REMARK  status: ('A' for Active; 'I' for Inactive)
REMARK    1  A    between atoms: N_1  and  C_4
REMARK    2  A    between atoms: C_4  and  C_5
REMARK                            x       y       z     vdW  Elec       q    Type
REMARK                         _______ _______ _______ _____ _____    ______ ____
ROOT
ATOM      1  N   UNL     1       4.021   5.275  13.963  0.00  0.00    -0.354 N 
ATOM      2  N   UNL     1       4.201   7.523  13.435  0.00  0.00    -0.372 N 
ATOM      3  N   UNL     1       3.543   6.930  15.552  0.00  0.00    -0.372 N 
ATOM      4  C   UNL     1       3.919   6.561  14.323  0.00  0.00    +0.166 C 
ATOM      5  H   UNL     1       4.282   5.061  13.007  0.00  0.00    +0.163 HD
ATOM      6  H   UNL     1       4.136   8.502  13.678  0.00  0.00    +0.159 HD
ATOM      7  H   UNL     1       4.506   7.306  12.494  0.00  0.00    +0.159 HD
ATOM      8  H   UNL     1       3.311   6.253  16.266  0.00  0.00    +0.159 HD
ATOM      9  H   UNL     1       3.461   7.905  15.811  0.00  0.00    +0.159 HD
ENDROOT
BRANCH   1  10
ATOM     10  C   UNL     1       3.789   4.152  14.870  0.00  0.00    +0.151 C 
BRANCH  10  11
ATOM     11  C   UNL     1       3.079   3.056  14.123  0.00  0.00    -0.028 A 
ATOM     12  C   UNL     1       1.926   3.336  13.376  0.00  0.00    +0.005 A 
ATOM     13  C   UNL     1       3.558   1.737  14.155  0.00  0.00    +0.005 A 
ATOM     14  C   UNL     1       1.283   2.325  12.658  0.00  0.00    +0.000 A 
ATOM     15  C   UNL     1       2.912   0.730  13.437  0.00  0.00    +0.000 A 
ATOM     16  C   UNL     1       1.777   1.025  12.687  0.00  0.00    +0.000 A 
ENDBRANCH  10  11
ENDBRANCH   1  10
TORSDOF 2
ENDMDL
MODEL 8
REMARK VINA RESULT:    -5.003     17.498     18.354
REMARK INTER + INTRA:          -5.716
REMARK INTER:                  -5.556
REMARK INTRA:                  -0.161
REMARK UNBOUND:                -0.128
REMARK  Name = 1550473
REMARK  2 active torsions:
REMARK  status: ('A' for Active; 'I' for Inactive)
REMARK    1  A    between atoms: N_1  and  C_4
REMARK    2  A    between atoms: C_4  and  C_5
REMARK                            x       y       z     vdW  Elec       q    Type
REMARK                         _______ _______ _______ _____ _____    ______ ____
ROOT
ATOM      1  N   UNL     1      -6.102   0.291   7.293  0.00  0.00    -0.354 N 
ATOM      2  N   UNL     1      -6.723  -0.878   5.392  0.00  0.00    -0.372 N 
ATOM      3  N   UNL     1      -4.929  -1.622   6.615  0.00  0.00    -0.372 N 
ATOM      4  C   UNL     1      -5.912  -0.730   6.446  0.00  0.00    +0.166 C 
ATOM      5  H   UNL     1      -6.846   0.950   7.093  0.00  0.00    +0.163 HD
ATOM      6  H   UNL     1      -6.606  -1.640   4.738  0.00  0.00    +0.159 HD
ATOM      7  H   UNL     1      -7.494  -0.244   5.220  0.00  0.00    +0.159 HD
ATOM      8  H   UNL     1      -4.279  -1.563   7.387  0.00  0.00    +0.159 HD
ATOM      9  H   UNL     1      -4.789  -2.385   5.965  0.00  0.00    +0.159 HD
ENDROOT
BRANCH   1  10
ATOM     10  C   UNL     1      -5.308   0.511   8.500  0.00  0.00    +0.151 C 
BRANCH  10  11
ATOM     11  C   UNL     1      -6.202   0.392   9.704  0.00  0.00    -0.028 A 
ATOM     12  C   UNL     1      -6.627   1.538  10.391  0.00  0.00    +0.005 A 
ATOM     13  C   UNL     1      -6.631  -0.864  10.159  0.00  0.00    +0.005 A 
ATOM     14  C   UNL     1      -7.481   1.431  11.491  0.00  0.00    +0.000 A 
ATOM     15  C   UNL     1      -7.483  -0.968  11.259  0.00  0.00    +0.000 A 
ATOM     16  C   UNL     1      -7.910   0.180  11.922  0.00  0.00    +0.000 A 
ENDBRANCH  10  11
ENDBRANCH   1  10
TORSDOF 2
ENDMDL
MODEL 9
REMARK VINA RESULT:    -5.000     18.067     19.150
REMARK INTER + INTRA:          -5.713
REMARK INTER:                  -5.590
REMARK INTRA:                  -0.123
REMARK UNBOUND:                -0.128
REMARK  Name = 1550473
REMARK  2 active torsions:
REMARK  status: ('A' for Active; 'I' for Inactive)
REMARK    1  A    between atoms: N_1  and  C_4
REMARK    2  A    between atoms: C_4  and  C_5
REMARK                            x       y       z     vdW  Elec       q    Type
REMARK                         _______ _______ _______ _____ _____    ______ ____
ROOT
ATOM      1  N   UNL     1      -4.818   4.834   7.631  0.00  0.00    -0.354 N 
ATOM      2  N   UNL     1      -7.074   5.151   8.049  0.00  0.00    -0.372 N 
ATOM      3  N   UNL     1      -5.642   4.894   9.824  0.00  0.00    -0.372 N 
ATOM      4  C   UNL     1      -5.829   4.957   8.501  0.00  0.00    +0.166 C 
ATOM      5  H   UNL     1      -5.030   4.861   6.640  0.00  0.00    +0.163 HD
ATOM      6  H   UNL     1      -7.856   5.251   8.682  0.00  0.00    +0.159 HD
ATOM      7  H   UNL     1      -7.276   5.224   7.060  0.00  0.00    +0.159 HD
ATOM      8  H   UNL     1      -4.728   4.743  10.229  0.00  0.00    +0.159 HD
ATOM      9  H   UNL     1      -6.415   4.980  10.473  0.00  0.00    +0.159 HD
ENDROOT
BRANCH   1  10
ATOM     10  C   UNL     1      -3.418   4.674   8.021  0.00  0.00    +0.151 C 
BRANCH  10  11
ATOM     11  C   UNL     1      -2.697   3.895   6.955  0.00  0.00    -0.028 A 
ATOM     12  C   UNL     1      -1.423   4.292   6.523  0.00  0.00    +0.005 A 
ATOM     13  C   UNL     1      -3.281   2.757   6.378  0.00  0.00    +0.005 A 
ATOM     14  C   UNL     1      -0.741   3.552   5.554  0.00  0.00    +0.000 A 
ATOM     15  C   UNL     1      -2.596   2.022   5.410  0.00  0.00    +0.000 A 
ATOM     16  C   UNL     1      -1.325   2.418   5.001  0.00  0.00    +0.000 A 
ENDBRANCH  10  11
ENDBRANCH   1  10
TORSDOF 2
ENDMDL
