MODEL 1
REMARK VINA RESULT:    -5.410      0.000      0.000
REMARK INTER + INTRA:          -6.175
REMARK INTER:                  -6.043
REMARK INTRA:                  -0.132
REMARK UNBOUND:                -0.132
REMARK  Name = 1550473
REMARK  2 active torsions:
REMARK  status: ('A' for Active; 'I' for Inactive)
REMARK    1  A    between atoms: N_1  and  C_4
REMARK    2  A    between atoms: C_4  and  C_5
REMARK                            x       y       z     vdW  Elec       q    Type
REMARK                         _______ _______ _______ _____ _____    ______ ____
ROOT
ATOM      1  N   UNL     1     -13.245  -4.312  -1.518  0.00  0.00    -0.354 N 
ATOM      2  N   UNL     1     -11.764  -5.988  -0.916  0.00  0.00    -0.372 N 
ATOM      3  N   UNL     1     -13.296  -5.255   0.627  0.00  0.00    -0.372 N 
ATOM      4  C   UNL     1     -12.779  -5.174  -0.603  0.00  0.00    +0.166 C 
ATOM      5  H   UNL     1     -12.790  -4.278  -2.423  0.00  0.00    +0.163 HD
ATOM      6  H   UNL     1     -11.394  -6.651  -0.248  0.00  0.00    +0.159 HD
ATOM      7  H   UNL     1     -11.342  -5.985  -1.836  0.00  0.00    +0.159 HD
ATOM      8  H   UNL     1     -14.059  -4.663   0.928  0.00  0.00    +0.159 HD
ATOM      9  H   UNL     1     -12.931  -5.904   1.314  0.00  0.00    +0.159 HD
ENDROOT
BRANCH   1  10
ATOM     10  C   UNL     1     -14.381  -3.419  -1.296  0.00  0.00    +0.151 C 
BRANCH  10  11
ATOM     11  C   UNL     1     -15.140  -3.261  -2.584  0.00  0.00    -0.028 A 
ATOM     12  C   UNL     1     -15.907  -2.111  -2.822  0.00  0.00    +0.005 A 
ATOM     13  C   UNL     1     -15.091  -4.254  -3.574  0.00  0.00    +0.005 A 
ATOM     14  C   UNL     1     -16.588  -1.950  -4.031  0.00  0.00    +0.000 A 
ATOM     15  C   UNL     1     -15.774  -4.090  -4.780  0.00  0.00    +0.000 A 
ATOM     16  C   UNL     1     -16.520  -2.937  -5.009  0.00  0.00    +0.000 A 
ENDBRANCH  10  11
ENDBRANCH   1  10
TORSDOF 2
ENDMDL
MODEL 2
REMARK VINA RESULT:    -5.321     17.397     18.135
REMARK INTER + INTRA:          -6.075
REMARK INTER:                  -5.957
REMARK INTRA:                  -0.117
REMARK UNBOUND:                -0.132
REMARK  Name = 1550473
REMARK  2 active torsions:
REMARK  status: ('A' for Active; 'I' for Inactive)
REMARK    1  A    between atoms: N_1  and  C_4
REMARK    2  A    between atoms: C_4  and  C_5
REMARK                            x       y       z     vdW  Elec       q    Type
REMARK                         _______ _______ _______ _____ _____    ______ ____
ROOT
ATOM      1  N   UNL     1      -7.032   9.804  -8.028  0.00  0.00    -0.354 N 
ATOM      2  N   UNL     1      -8.529   8.588  -6.745  0.00  0.00    -0.372 N 
ATOM      3  N   UNL     1      -6.452   9.050  -5.886  0.00  0.00    -0.372 N 
ATOM      4  C   UNL     1      -7.326   9.155  -6.893  0.00  0.00    +0.166 C 
ATOM      5  H   UNL     1      -7.727   9.822  -8.766  0.00  0.00    +0.163 HD
ATOM      6  H   UNL     1      -8.780   8.095  -5.899  0.00  0.00    +0.159 HD
ATOM      7  H   UNL     1      -9.238   8.647  -7.466  0.00  0.00    +0.159 HD
ATOM      8  H   UNL     1      -5.525   9.451  -5.938  0.00  0.00    +0.159 HD
ATOM      9  H   UNL     1      -6.681   8.550  -5.036  0.00  0.00    +0.159 HD
ENDROOT
BRANCH   1  10
ATOM     10  C   UNL     1      -5.770  10.502  -8.268  0.00  0.00    +0.151 C 
BRANCH  10  11
ATOM     11  C   UNL     1      -5.700  10.904  -9.715  0.00  0.00    -0.028 A 
ATOM     12  C   UNL     1      -6.873  11.113 -10.455  0.00  0.00    +0.005 A 
ATOM     13  C   UNL     1      -4.462  11.085 -10.351  0.00  0.00    +0.005 A 
ATOM     14  C   UNL     1      -6.808  11.516 -11.791  0.00  0.00    +0.000 A 
ATOM     15  C   UNL     1      -4.401  11.487 -11.686  0.00  0.00    +0.000 A 
ATOM     16  C   UNL     1      -5.574  11.705 -12.404  0.00  0.00    +0.000 A 
ENDBRANCH  10  11
ENDBRANCH   1  10
TORSDOF 2
ENDMDL
MODEL 3
REMARK VINA RESULT:    -5.221      1.223      1.936
REMARK INTER + INTRA:          -5.964
REMARK INTER:                  -5.841
REMARK INTRA:                  -0.123
REMARK UNBOUND:                -0.132
REMARK  Name = 1550473
REMARK  2 active torsions:
REMARK  status: ('A' for Active; 'I' for Inactive)
REMARK    1  A    between atoms: N_1  and  C_4
REMARK    2  A    between atoms: C_4  and  C_5
REMARK                            x       y       z     vdW  Elec       q    Type
REMARK                         _______ _______ _______ _____ _____    ______ ____
ROOT
ATOM      1  N   UNL     1     -13.932  -4.818  -1.238  0.00  0.00    -0.354 N 
ATOM      2  N   UNL     1     -13.078  -5.171   0.887  0.00  0.00    -0.372 N 
ATOM      3  N   UNL     1     -11.925  -5.987  -0.921  0.00  0.00    -0.372 N 
ATOM      4  C   UNL     1     -12.982  -5.324  -0.440  0.00  0.00    +0.166 C 
ATOM      5  H   UNL     1     -14.723  -4.353  -0.808  0.00  0.00    +0.163 HD
ATOM      6  H   UNL     1     -12.375  -5.539   1.514  0.00  0.00    +0.159 HD
ATOM      7  H   UNL     1     -13.847  -4.665   1.310  0.00  0.00    +0.159 HD
ATOM      8  H   UNL     1     -11.797  -6.142  -1.912  0.00  0.00    +0.159 HD
ATOM      9  H   UNL     1     -11.217  -6.373  -0.309  0.00  0.00    +0.159 HD
ENDROOT
BRANCH   1  10
ATOM     10  C   UNL     1     -13.893  -4.884  -2.697  0.00  0.00    +0.151 C 
BRANCH  10  11
ATOM     11  C   UNL     1     -15.206  -4.395  -3.246  0.00  0.00    -0.028 A 
ATOM     12  C   UNL     1     -15.358  -4.152  -4.619  0.00  0.00    +0.005 A 
ATOM     13  C   UNL     1     -16.303  -4.178  -2.398  0.00  0.00    +0.005 A 
ATOM     14  C   UNL     1     -16.585  -3.727  -5.132  0.00  0.00    +0.000 A 
ATOM     15  C   UNL     1     -17.526  -3.753  -2.915  0.00  0.00    +0.000 A 
ATOM     16  C   UNL     1     -17.668  -3.530  -4.282  0.00  0.00    +0.000 A 
ENDBRANCH  10  11
ENDBRANCH   1  10
TORSDOF 2
ENDMDL
MODEL 4
REMARK VINA RESULT:    -4.810     16.567     17.471
REMARK INTER + INTRA:          -5.504
REMARK INTER:                  -5.356
REMARK INTRA:                  -0.148
REMARK UNBOUND:                -0.132
REMARK  Name = 1550473
REMARK  2 active torsions:
REMARK  status: ('A' for Active; 'I' for Inactive)
REMARK    1  A    between atoms: N_1  and  C_4
REMARK    2  A    between atoms: C_4  and  C_5
REMARK                            x       y       z     vdW  Elec       q    Type
REMARK                         _______ _______ _______ _____ _____    ______ ____
ROOT
ATOM      1  N   UNL     1      -7.823  10.390  -7.958  0.00  0.00    -0.354 N 
ATOM      2  N   UNL     1      -6.862   8.829  -6.543  0.00  0.00    -0.372 N 
ATOM      3  N   UNL     1      -5.495  10.212  -7.760  0.00  0.00    -0.372 N 
ATOM      4  C   UNL     1      -6.731   9.822  -7.431  0.00  0.00    +0.166 C 
ATOM      5  H   UNL     1      -8.731  10.028  -7.690  0.00  0.00    +0.163 HD
ATOM      6  H   UNL     1      -6.056   8.383  -6.125  0.00  0.00    +0.159 HD
ATOM      7  H   UNL     1      -7.772   8.500  -6.242  0.00  0.00    +0.159 HD
ATOM      8  H   UNL     1      -5.327  10.952  -8.429  0.00  0.00    +0.159 HD
ATOM      9  H   UNL     1      -4.675   9.770  -7.362  0.00  0.00    +0.159 HD
ENDROOT
BRANCH   1  10
ATOM     10  C   UNL     1      -7.790  11.514  -8.893  0.00  0.00    +0.151 C 
BRANCH  10  11
ATOM     11  C   UNL     1      -8.345  11.068 -10.217  0.00  0.00    -0.028 A 
ATOM     12  C   UNL     1      -9.469  10.231 -10.272  0.00  0.00    +0.005 A 
ATOM     13  C   UNL     1      -7.755  11.483 -11.421  0.00  0.00    +0.005 A 
ATOM     14  C   UNL     1     -10.004   9.841 -11.503  0.00  0.00    +0.000 A 
ATOM     15  C   UNL     1      -8.290  11.090 -12.647  0.00  0.00    +0.000 A 
ATOM     16  C   UNL     1      -9.416  10.271 -12.688  0.00  0.00    +0.000 A 
ENDBRANCH  10  11
ENDBRANCH   1  10
TORSDOF 2
ENDMDL
MODEL 5
REMARK VINA RESULT:    -4.809     17.347     18.298
REMARK INTER + INTRA:          -5.503
REMARK INTER:                  -5.391
REMARK INTRA:                  -0.113
REMARK UNBOUND:                -0.132
REMARK  Name = 1550473
REMARK  2 active torsions:
REMARK  status: ('A' for Active; 'I' for Inactive)
REMARK    1  A    between atoms: N_1  and  C_4
REMARK    2  A    between atoms: C_4  and  C_5
REMARK                            x       y       z     vdW  Elec       q    Type
REMARK                         _______ _______ _______ _____ _____    ______ ____
ROOT
ATOM      1  N   UNL     1      -3.353  -6.081 -16.396  0.00  0.00    -0.354 N 
ATOM      2  N   UNL     1      -3.299  -8.022 -15.133  0.00  0.00    -0.372 N 
ATOM      3  N   UNL     1      -2.610  -8.103 -17.320  0.00  0.00    -0.372 N 
ATOM      4  C   UNL     1      -3.087  -7.390 -16.294  0.00  0.00    +0.166 C 
ATOM      5  H   UNL     1      -3.741  -5.605 -15.590  0.00  0.00    +0.163 HD
ATOM      6  H   UNL     1      -3.104  -9.008 -15.024  0.00  0.00    +0.159 HD
ATOM      7  H   UNL     1      -3.644  -7.533 -14.316  0.00  0.00    +0.159 HD
ATOM      8  H   UNL     1      -2.433  -7.686 -18.224  0.00  0.00    +0.159 HD
ATOM      9  H   UNL     1      -2.420  -9.093 -17.234  0.00  0.00    +0.159 HD
ENDROOT
BRANCH   1  10
ATOM     10  C   UNL     1      -3.106  -5.288 -17.599  0.00  0.00    +0.151 C 
BRANCH  10  11
ATOM     11  C   UNL     1      -3.815  -3.968 -17.471  0.00  0.00    -0.028 A 
ATOM     12  C   UNL     1      -4.397  -3.361 -18.594  0.00  0.00    +0.005 A 
ATOM     13  C   UNL     1      -3.914  -3.323 -16.229  0.00  0.00    +0.005 A 
ATOM     14  C   UNL     1      -5.082  -2.149 -18.470  0.00  0.00    +0.000 A 
ATOM     15  C   UNL     1      -4.598  -2.113 -16.110  0.00  0.00    +0.000 A 
ATOM     16  C   UNL     1      -5.184  -1.528 -17.230  0.00  0.00    +0.000 A 
ENDBRANCH  10  11
ENDBRANCH   1  10
TORSDOF 2
ENDMDL
MODEL 6
REMARK VINA RESULT:    -4.783     19.804     20.925
REMARK INTER + INTRA:          -5.475
REMARK INTER:                  -5.357
REMARK INTRA:                  -0.117
REMARK UNBOUND:                -0.132
REMARK  Name = 1550473
REMARK  2 active torsions:
REMARK  status: ('A' for Active; 'I' for Inactive)
REMARK    1  A    between atoms: N_1  and  C_4
REMARK    2  A    between atoms: C_4  and  C_5
REMARK                            x       y       z     vdW  Elec       q    Type
REMARK                         _______ _______ _______ _____ _____    ______ ____
ROOT
ATOM      1  N   UNL     1      -0.529 -10.598 -16.341  0.00  0.00    -0.354 N 
ATOM      2  N   UNL     1      -0.215  -9.652 -18.432  0.00  0.00    -0.372 N 
ATOM      3  N   UNL     1      -1.828  -8.781 -17.052  0.00  0.00    -0.372 N 
ATOM      4  C   UNL     1      -0.861  -9.682 -17.261  0.00  0.00    +0.166 C 
ATOM      5  H   UNL     1       0.192 -11.272 -16.573  0.00  0.00    +0.163 HD
ATOM      6  H   UNL     1      -0.441  -8.970 -19.143  0.00  0.00    +0.159 HD
ATOM      7  H   UNL     1       0.537 -10.297 -18.642  0.00  0.00    +0.159 HD
ATOM      8  H   UNL     1      -2.358  -8.754 -16.191  0.00  0.00    +0.159 HD
ATOM      9  H   UNL     1      -2.077  -8.098 -17.756  0.00  0.00    +0.159 HD
ENDROOT
BRANCH   1  10
ATOM     10  C   UNL     1      -1.135 -10.681 -15.014  0.00  0.00    +0.151 C 
BRANCH  10  11
ATOM     11  C   UNL     1      -1.070 -12.105 -14.533  0.00  0.00    -0.028 A 
ATOM     12  C   UNL     1       0.016 -12.924 -14.876  0.00  0.00    +0.005 A 
ATOM     13  C   UNL     1      -2.088 -12.639 -13.728  0.00  0.00    +0.005 A 
ATOM     14  C   UNL     1       0.091 -14.237 -14.405  0.00  0.00    +0.000 A 
ATOM     15  C   UNL     1      -2.009 -13.951 -13.261  0.00  0.00    +0.000 A 
ATOM     16  C   UNL     1      -0.918 -14.748 -13.597  0.00  0.00    +0.000 A 
ENDBRANCH  10  11
ENDBRANCH   1  10
TORSDOF 2
ENDMDL
MODEL 7
REMARK VINA RESULT:    -4.782      2.796      3.977
REMARK INTER + INTRA:          -5.473
REMARK INTER:                  -5.350
REMARK INTRA:                  -0.123
REMARK UNBOUND:                -0.132
REMARK  Name = 1550473
REMARK  2 active torsions:
REMARK  status: ('A' for Active; 'I' for Inactive)
REMARK    1  A    between atoms: N_1  and  C_4
REMARK    2  A    between atoms: C_4  and  C_5
REMARK                            x       y       z     vdW  Elec       q    Type
REMARK                         _______ _______ _______ _____ _____    ______ ____
ROOT
ATOM      1  N   UNL     1     -14.915  -4.761   1.973  0.00  0.00    -0.354 N 
ATOM      2  N   UNL     1     -15.744  -3.697   3.856  0.00  0.00    -0.372 N 
ATOM      3  N   UNL     1     -16.280  -5.900   3.500  0.00  0.00    -0.372 N 
ATOM      4  C   UNL     1     -15.642  -4.795   3.098  0.00  0.00    +0.166 C 
ATOM      5  H   UNL     1     -14.481  -3.884   1.707  0.00  0.00    +0.163 HD
ATOM      6  H   UNL     1     -16.282  -3.694   4.712  0.00  0.00    +0.159 HD
ATOM      7  H   UNL     1     -15.271  -2.836   3.612  0.00  0.00    +0.159 HD
ATOM      8  H   UNL     1     -16.248  -6.760   2.969  0.00  0.00    +0.159 HD
ATOM      9  H   UNL     1     -16.834  -5.913   4.348  0.00  0.00    +0.159 HD
ENDROOT
BRANCH   1  10
ATOM     10  C   UNL     1     -14.697  -5.916   1.104  0.00  0.00    +0.151 C 
BRANCH  10  11
ATOM     11  C   UNL     1     -14.692  -5.459  -0.329  0.00  0.00    -0.028 A 
ATOM     12  C   UNL     1     -15.826  -4.851  -0.886  0.00  0.00    +0.005 A 
ATOM     13  C   UNL     1     -13.554  -5.627  -1.132  0.00  0.00    +0.005 A 
ATOM     14  C   UNL     1     -15.811  -4.399  -2.208  0.00  0.00    +0.000 A 
ATOM     15  C   UNL     1     -13.543  -5.176  -2.452  0.00  0.00    +0.000 A 
ATOM     16  C   UNL     1     -14.671  -4.560  -2.989  0.00  0.00    +0.000 A 
ENDBRANCH  10  11
ENDBRANCH   1  10
TORSDOF 2
ENDMDL
MODEL 8
REMARK VINA RESULT:    -4.756     19.200     20.308
REMARK INTER + INTRA:          -5.444
REMARK INTER:                  -5.337
REMARK INTRA:                  -0.108
REMARK UNBOUND:                -0.132
REMARK  Name = 1550473
REMARK  2 active torsions:
REMARK  status: ('A' for Active; 'I' for Inactive)
REMARK    1  A    between atoms: N_1  and  C_4
REMARK    2  A    between atoms: C_4  and  C_5
REMARK                            x       y       z     vdW  Elec       q    Type
REMARK                         _______ _______ _______ _____ _____    ______ ____
ROOT
ATOM      1  N   UNL     1      -1.836 -10.247 -15.621  0.00  0.00    -0.354 N 
ATOM      2  N   UNL     1      -2.095  -8.588 -17.216  0.00  0.00    -0.372 N 
ATOM      3  N   UNL     1      -2.992  -8.269 -15.128  0.00  0.00    -0.372 N 
ATOM      4  C   UNL     1      -2.307  -9.045 -15.976  0.00  0.00    +0.166 C 
ATOM      5  H   UNL     1      -1.351 -10.799 -16.319  0.00  0.00    +0.163 HD
ATOM      6  H   UNL     1      -2.436  -7.683 -17.512  0.00  0.00    +0.159 HD
ATOM      7  H   UNL     1      -1.570  -9.122 -17.898  0.00  0.00    +0.159 HD
ATOM      8  H   UNL     1      -3.191  -8.559 -14.180  0.00  0.00    +0.159 HD
ATOM      9  H   UNL     1      -3.352  -7.366 -15.409  0.00  0.00    +0.159 HD
ENDROOT
BRANCH   1  10
ATOM     10  C   UNL     1      -1.966 -10.813 -14.280  0.00  0.00    +0.151 C 
BRANCH  10  11
ATOM     11  C   UNL     1      -1.259 -12.140 -14.235  0.00  0.00    -0.028 A 
ATOM     12  C   UNL     1      -1.889 -13.265 -13.685  0.00  0.00    +0.005 A 
ATOM     13  C   UNL     1       0.041 -12.279 -14.747  0.00  0.00    +0.005 A 
ATOM     14  C   UNL     1      -1.244 -14.504 -13.671  0.00  0.00    +0.000 A 
ATOM     15  C   UNL     1       0.682 -13.517 -14.731  0.00  0.00    +0.000 A 
ATOM     16  C   UNL     1       0.038 -14.630 -14.194  0.00  0.00    +0.000 A 
ENDBRANCH  10  11
ENDBRANCH   1  10
TORSDOF 2
ENDMDL
MODEL 9
REMARK VINA RESULT:    -4.732     17.266     18.347
REMARK INTER + INTRA:          -5.417
REMARK INTER:                  -5.262
REMARK INTRA:                  -0.155
REMARK UNBOUND:                -0.132
REMARK  Name = 1550473
REMARK  2 active torsions:
REMARK  status: ('A' for Active; 'I' for Inactive)
REMARK    1  A    between atoms: N_1  and  C_4
REMARK    2  A    between atoms: C_4  and  C_5
REMARK                            x       y       z     vdW  Elec       q    Type
REMARK                         _______ _______ _______ _____ _____    ______ ____
ROOT
ATOM      1  N   UNL     1     -13.790 -20.174   1.735  0.00  0.00    -0.354 N 
ATOM      2  N   UNL     1     -15.947 -19.963   0.918  0.00  0.00    -0.372 N 
ATOM      3  N   UNL     1     -15.456 -21.720   2.310  0.00  0.00    -0.372 N 
ATOM      4  C   UNL     1     -15.051 -20.623   1.661  0.00  0.00    +0.166 C 
ATOM      5  H   UNL     1     -13.539 -19.354   1.195  0.00  0.00    +0.163 HD
ATOM      6  H   UNL     1     -16.906 -20.276   0.845  0.00  0.00    +0.159 HD
ATOM      7  H   UNL     1     -15.704 -19.118   0.416  0.00  0.00    +0.159 HD
ATOM      8  H   UNL     1     -14.827 -22.266   2.883  0.00  0.00    +0.159 HD
ATOM      9  H   UNL     1     -16.408 -22.055   2.241  0.00  0.00    +0.159 HD
ENDROOT
BRANCH   1  10
ATOM     10  C   UNL     1     -12.751 -20.788   2.559  0.00  0.00    +0.151 C 
BRANCH  10  11
ATOM     11  C   UNL     1     -11.618 -21.228   1.674  0.00  0.00    -0.028 A 
ATOM     12  C   UNL     1     -10.456 -20.449   1.565  0.00  0.00    +0.005 A 
ATOM     13  C   UNL     1     -11.697 -22.424   0.945  0.00  0.00    +0.005 A 
ATOM     14  C   UNL     1      -9.391 -20.872   0.766  0.00  0.00    +0.000 A 
ATOM     15  C   UNL     1     -10.632 -22.842   0.148  0.00  0.00    +0.000 A 
ATOM     16  C   UNL     1      -9.478 -22.067   0.061  0.00  0.00    +0.000 A 
ENDBRANCH  10  11
ENDBRANCH   1  10
TORSDOF 2
ENDMDL
