MODEL 1
REMARK VINA RESULT:    -5.147      0.000      0.000
REMARK INTER + INTRA:          -5.886
REMARK INTER:                  -5.748
REMARK INTRA:                  -0.138
REMARK UNBOUND:                -0.138
REMARK  Name = 1550473
REMARK  2 active torsions:
REMARK  status: ('A' for Active; 'I' for Inactive)
REMARK    1  A    between atoms: N_1  and  C_4
REMARK    2  A    between atoms: C_4  and  C_5
REMARK                            x       y       z     vdW  Elec       q    Type
REMARK                         _______ _______ _______ _____ _____    ______ ____
ROOT
ATOM      1  N   UNL     1      21.691   5.308  11.658  0.00  0.00    -0.354 N 
ATOM      2  N   UNL     1      23.680   5.220  12.841  0.00  0.00    -0.372 N 
ATOM      3  N   UNL     1      23.739   5.020  10.556  0.00  0.00    -0.372 N 
ATOM      4  C   UNL     1      23.025   5.183  11.675  0.00  0.00    +0.166 C 
ATOM      5  H   UNL     1      21.205   5.398  12.543  0.00  0.00    +0.163 HD
ATOM      6  H   UNL     1      24.687   5.132  12.884  0.00  0.00    +0.159 HD
ATOM      7  H   UNL     1      23.197   5.356  13.720  0.00  0.00    +0.159 HD
ATOM      8  H   UNL     1      23.303   4.978   9.644  0.00  0.00    +0.159 HD
ATOM      9  H   UNL     1      24.746   4.918  10.580  0.00  0.00    +0.159 HD
ENDROOT
BRANCH   1  10
ATOM     10  C   UNL     1      20.887   5.335  10.438  0.00  0.00    +0.151 C 
BRANCH  10  11
ATOM     11  C   UNL     1      19.838   6.405  10.564  0.00  0.00    -0.028 A 
ATOM     12  C   UNL     1      19.714   7.144  11.749  0.00  0.00    +0.005 A 
ATOM     13  C   UNL     1      18.968   6.688   9.499  0.00  0.00    +0.005 A 
ATOM     14  C   UNL     1      18.759   8.158  11.856  0.00  0.00    +0.000 A 
ATOM     15  C   UNL     1      18.016   7.701   9.611  0.00  0.00    +0.000 A 
ATOM     16  C   UNL     1      17.913   8.437  10.788  0.00  0.00    +0.000 A 
ENDBRANCH  10  11
ENDBRANCH   1  10
TORSDOF 2
ENDMDL
MODEL 2
REMARK VINA RESULT:    -4.605     25.815     26.978
REMARK INTER + INTRA:          -5.281
REMARK INTER:                  -5.106
REMARK INTRA:                  -0.176
REMARK UNBOUND:                -0.138
REMARK  Name = 1550473
REMARK  2 active torsions:
REMARK  status: ('A' for Active; 'I' for Inactive)
REMARK    1  A    between atoms: N_1  and  C_4
REMARK    2  A    between atoms: C_4  and  C_5
REMARK                            x       y       z     vdW  Elec       q    Type
REMARK                         _______ _______ _______ _____ _____    ______ ____
ROOT
ATOM      1  N   UNL     1       0.562  -8.091  -1.807  0.00  0.00    -0.354 N 
ATOM      2  N   UNL     1       1.745  -7.724  -3.764  0.00  0.00    -0.372 N 
ATOM      3  N   UNL     1       1.701  -6.076  -2.168  0.00  0.00    -0.372 N 
ATOM      4  C   UNL     1       1.329  -7.297  -2.566  0.00  0.00    +0.166 C 
ATOM      5  H   UNL     1       0.289  -8.994  -2.179  0.00  0.00    +0.163 HD
ATOM      6  H   UNL     1       2.327  -7.147  -4.357  0.00  0.00    +0.159 HD
ATOM      7  H   UNL     1       1.509  -8.644  -4.113  0.00  0.00    +0.159 HD
ATOM      8  H   UNL     1       1.416  -5.692  -1.277  0.00  0.00    +0.159 HD
ATOM      9  H   UNL     1       2.274  -5.480  -2.753  0.00  0.00    +0.159 HD
ENDROOT
BRANCH   1  10
ATOM     10  C   UNL     1       0.100  -7.743  -0.465  0.00  0.00    +0.151 C 
BRANCH  10  11
ATOM     11  C   UNL     1       0.943  -8.468   0.548  0.00  0.00    -0.028 A 
ATOM     12  C   UNL     1       0.566  -9.737   1.011  0.00  0.00    +0.005 A 
ATOM     13  C   UNL     1       2.123  -7.893   1.045  0.00  0.00    +0.005 A 
ATOM     14  C   UNL     1       1.364 -10.424   1.929  0.00  0.00    +0.000 A 
ATOM     15  C   UNL     1       2.917  -8.582   1.962  0.00  0.00    +0.000 A 
ATOM     16  C   UNL     1       2.539  -9.848   2.402  0.00  0.00    +0.000 A 
ENDBRANCH  10  11
ENDBRANCH   1  10
TORSDOF 2
ENDMDL
MODEL 3
REMARK VINA RESULT:    -4.592     28.905     30.176
REMARK INTER + INTRA:          -5.267
REMARK INTER:                  -5.122
REMARK INTRA:                  -0.144
REMARK UNBOUND:                -0.138
REMARK  Name = 1550473
REMARK  2 active torsions:
REMARK  status: ('A' for Active; 'I' for Inactive)
REMARK    1  A    between atoms: N_1  and  C_4
REMARK    2  A    between atoms: C_4  and  C_5
REMARK                            x       y       z     vdW  Elec       q    Type
REMARK                         _______ _______ _______ _____ _____    ______ ____
ROOT
ATOM      1  N   UNL     1      10.068  -5.543 -12.863  0.00  0.00    -0.354 N 
ATOM      2  N   UNL     1       8.117  -4.858 -11.819  0.00  0.00    -0.372 N 
ATOM      3  N   UNL     1       9.592  -6.177 -10.658  0.00  0.00    -0.372 N 
ATOM      4  C   UNL     1       9.273  -5.533 -11.785  0.00  0.00    +0.166 C 
ATOM      5  H   UNL     1       9.754  -5.060 -13.697  0.00  0.00    +0.163 HD
ATOM      6  H   UNL     1       7.498  -4.829 -11.020  0.00  0.00    +0.159 HD
ATOM      7  H   UNL     1       7.828  -4.338 -12.638  0.00  0.00    +0.159 HD
ATOM      8  H   UNL     1      10.448  -6.709 -10.569  0.00  0.00    +0.159 HD
ATOM      9  H   UNL     1       8.981  -6.170  -9.851  0.00  0.00    +0.159 HD
ENDROOT
BRANCH   1  10
ATOM     10  C   UNL     1      11.372  -6.202 -12.911  0.00  0.00    +0.151 C 
BRANCH  10  11
ATOM     11  C   UNL     1      11.433  -7.082 -14.129  0.00  0.00    -0.028 A 
ATOM     12  C   UNL     1      10.386  -7.081 -15.062  0.00  0.00    +0.005 A 
ATOM     13  C   UNL     1      12.539  -7.915 -14.359  0.00  0.00    +0.005 A 
ATOM     14  C   UNL     1      10.456  -7.875 -16.209  0.00  0.00    +0.000 A 
ATOM     15  C   UNL     1      12.605  -8.707 -15.505  0.00  0.00    +0.000 A 
ATOM     16  C   UNL     1      11.564  -8.686 -16.431  0.00  0.00    +0.000 A 
ENDBRANCH  10  11
ENDBRANCH   1  10
TORSDOF 2
ENDMDL
MODEL 4
REMARK VINA RESULT:    -4.479     21.303     22.635
REMARK INTER + INTRA:          -5.141
REMARK INTER:                  -5.015
REMARK INTRA:                  -0.126
REMARK UNBOUND:                -0.138
REMARK  Name = 1550473
REMARK  2 active torsions:
REMARK  status: ('A' for Active; 'I' for Inactive)
REMARK    1  A    between atoms: N_1  and  C_4
REMARK    2  A    between atoms: C_4  and  C_5
REMARK                            x       y       z     vdW  Elec       q    Type
REMARK                         _______ _______ _______ _____ _____    ______ ____
ROOT
ATOM      1  N   UNL     1      16.692  13.923 -10.708  0.00  0.00    -0.354 N 
ATOM      2  N   UNL     1      14.493  13.584 -11.349  0.00  0.00    -0.372 N 
ATOM      3  N   UNL     1      14.926  14.328  -9.222  0.00  0.00    -0.372 N 
ATOM      4  C   UNL     1      15.384  13.948 -10.419  0.00  0.00    +0.166 C 
ATOM      5  H   UNL     1      16.977  13.596 -11.624  0.00  0.00    +0.163 HD
ATOM      6  H   UNL     1      13.499  13.596 -11.162  0.00  0.00    +0.159 HD
ATOM      7  H   UNL     1      14.778  13.301 -12.279  0.00  0.00    +0.159 HD
ATOM      8  H   UNL     1      15.547  14.609  -8.475  0.00  0.00    +0.159 HD
ATOM      9  H   UNL     1      13.935  14.335  -9.012  0.00  0.00    +0.159 HD
ENDROOT
BRANCH   1  10
ATOM     10  C   UNL     1      17.741  14.351  -9.784  0.00  0.00    +0.151 C 
BRANCH  10  11
ATOM     11  C   UNL     1      18.760  13.252  -9.654  0.00  0.00    -0.028 A 
ATOM     12  C   UNL     1      19.024  12.670  -8.406  0.00  0.00    +0.005 A 
ATOM     13  C   UNL     1      19.460  12.785 -10.777  0.00  0.00    +0.005 A 
ATOM     14  C   UNL     1      19.948  11.629  -8.290  0.00  0.00    +0.000 A 
ATOM     15  C   UNL     1      20.383  11.746 -10.657  0.00  0.00    +0.000 A 
ATOM     16  C   UNL     1      20.625  11.166  -9.414  0.00  0.00    +0.000 A 
ENDBRANCH  10  11
ENDBRANCH   1  10
TORSDOF 2
ENDMDL
MODEL 5
REMARK VINA RESULT:    -4.455     25.923     26.999
REMARK INTER + INTRA:          -5.114
REMARK INTER:                  -4.975
REMARK INTRA:                  -0.139
REMARK UNBOUND:                -0.138
REMARK  Name = 1550473
REMARK  2 active torsions:
REMARK  status: ('A' for Active; 'I' for Inactive)
REMARK    1  A    between atoms: N_1  and  C_4
REMARK    2  A    between atoms: C_4  and  C_5
REMARK                            x       y       z     vdW  Elec       q    Type
REMARK                         _______ _______ _______ _____ _____    ______ ____
ROOT
ATOM      1  N   UNL     1      11.066  -5.716 -11.721  0.00  0.00    -0.354 N 
ATOM      2  N   UNL     1      10.088  -6.860  -9.961  0.00  0.00    -0.372 N 
ATOM      3  N   UNL     1       8.760  -5.580 -11.327  0.00  0.00    -0.372 N 
ATOM      4  C   UNL     1       9.975  -6.043 -11.016  0.00  0.00    +0.166 C 
ATOM      5  H   UNL     1      11.963  -6.075 -11.416  0.00  0.00    +0.163 HD
ATOM      6  H   UNL     1       9.282  -7.128  -9.412  0.00  0.00    +0.159 HD
ATOM      7  H   UNL     1      10.978  -7.255  -9.686  0.00  0.00    +0.159 HD
ATOM      8  H   UNL     1       8.609  -4.955 -12.107  0.00  0.00    +0.159 HD
ATOM      9  H   UNL     1       7.943  -5.827 -10.782  0.00  0.00    +0.159 HD
ENDROOT
BRANCH   1  10
ATOM     10  C   UNL     1      11.044  -4.876 -12.918  0.00  0.00    +0.151 C 
BRANCH  10  11
ATOM     11  C   UNL     1      11.269  -3.444 -12.518  0.00  0.00    -0.028 A 
ATOM     12  C   UNL     1      10.206  -2.530 -12.516  0.00  0.00    +0.005 A 
ATOM     13  C   UNL     1      12.543  -2.997 -12.134  0.00  0.00    +0.005 A 
ATOM     14  C   UNL     1      10.408  -1.207 -12.115  0.00  0.00    +0.000 A 
ATOM     15  C   UNL     1      12.741  -1.675 -11.736  0.00  0.00    +0.000 A 
ATOM     16  C   UNL     1      11.673  -0.781 -11.724  0.00  0.00    +0.000 A 
ENDBRANCH  10  11
ENDBRANCH   1  10
TORSDOF 2
ENDMDL
MODEL 6
REMARK VINA RESULT:    -4.404     51.821     53.099
REMARK INTER + INTRA:          -5.057
REMARK INTER:                  -4.951
REMARK INTRA:                  -0.105
REMARK UNBOUND:                -0.138
REMARK  Name = 1550473
REMARK  2 active torsions:
REMARK  status: ('A' for Active; 'I' for Inactive)
REMARK    1  A    between atoms: N_1  and  C_4
REMARK    2  A    between atoms: C_4  and  C_5
REMARK                            x       y       z     vdW  Elec       q    Type
REMARK                         _______ _______ _______ _____ _____    ______ ____
ROOT
ATOM      1  N   UNL     1      -4.894  -9.483 -34.323  0.00  0.00    -0.354 N 
ATOM      2  N   UNL     1      -6.560  -7.874 -34.316  0.00  0.00    -0.372 N 
ATOM      3  N   UNL     1      -4.613  -7.449 -35.453  0.00  0.00    -0.372 N 
ATOM      4  C   UNL     1      -5.343  -8.278 -34.699  0.00  0.00    +0.166 C 
ATOM      5  H   UNL     1      -5.484 -10.051 -33.727  0.00  0.00    +0.163 HD
ATOM      6  H   UNL     1      -6.927  -6.971 -34.587  0.00  0.00    +0.159 HD
ATOM      7  H   UNL     1      -7.166  -8.463 -33.758  0.00  0.00    +0.159 HD
ATOM      8  H   UNL     1      -3.683  -7.691 -35.770  0.00  0.00    +0.159 HD
ATOM      9  H   UNL     1      -4.958  -6.536 -35.724  0.00  0.00    +0.159 HD
ENDROOT
BRANCH   1  10
ATOM     10  C   UNL     1      -3.605 -10.039 -34.731  0.00  0.00    +0.151 C 
BRANCH  10  11
ATOM     11  C   UNL     1      -2.667 -10.017 -33.556  0.00  0.00    -0.028 A 
ATOM     12  C   UNL     1      -2.096 -11.206 -33.078  0.00  0.00    +0.005 A 
ATOM     13  C   UNL     1      -2.340  -8.810 -32.919  0.00  0.00    +0.005 A 
ATOM     14  C   UNL     1      -1.202 -11.183 -32.006  0.00  0.00    +0.000 A 
ATOM     15  C   UNL     1      -1.447  -8.791 -31.848  0.00  0.00    +0.000 A 
ATOM     16  C   UNL     1      -0.876  -9.977 -31.393  0.00  0.00    +0.000 A 
ENDBRANCH  10  11
ENDBRANCH   1  10
TORSDOF 2
ENDMDL
MODEL 7
REMARK VINA RESULT:    -4.363     10.851     12.110
REMARK INTER + INTRA:          -5.011
REMARK INTER:                  -4.897
REMARK INTRA:                  -0.114
REMARK UNBOUND:                -0.138
REMARK  Name = 1550473
REMARK  2 active torsions:
REMARK  status: ('A' for Active; 'I' for Inactive)
REMARK    1  A    between atoms: N_1  and  C_4
REMARK    2  A    between atoms: C_4  and  C_5
REMARK                            x       y       z     vdW  Elec       q    Type
REMARK                         _______ _______ _______ _____ _____    ______ ____
ROOT
ATOM      1  N   UNL     1      14.904  -2.952   6.793  0.00  0.00    -0.354 N 
ATOM      2  N   UNL     1      14.319  -2.565   4.585  0.00  0.00    -0.372 N 
ATOM      3  N   UNL     1      13.672  -4.531   5.575  0.00  0.00    -0.372 N 
ATOM      4  C   UNL     1      14.301  -3.355   5.666  0.00  0.00    +0.166 C 
ATOM      5  H   UNL     1      15.389  -2.062   6.787  0.00  0.00    +0.163 HD
ATOM      6  H   UNL     1      13.870  -2.841   3.722  0.00  0.00    +0.159 HD
ATOM      7  H   UNL     1      14.766  -1.656   4.597  0.00  0.00    +0.159 HD
ATOM      8  H   UNL     1      13.628  -5.176   6.353  0.00  0.00    +0.159 HD
ATOM      9  H   UNL     1      13.227  -4.830   4.717  0.00  0.00    +0.159 HD
ENDROOT
BRANCH   1  10
ATOM     10  C   UNL     1      14.896  -3.713   8.041  0.00  0.00    +0.151 C 
BRANCH  10  11
ATOM     11  C   UNL     1      16.186  -3.468   8.773  0.00  0.00    -0.028 A 
ATOM     12  C   UNL     1      16.878  -4.531   9.372  0.00  0.00    +0.005 A 
ATOM     13  C   UNL     1      16.725  -2.176   8.868  0.00  0.00    +0.005 A 
ATOM     14  C   UNL     1      18.092  -4.308  10.027  0.00  0.00    +0.000 A 
ATOM     15  C   UNL     1      17.937  -1.957   9.523  0.00  0.00    +0.000 A 
ATOM     16  C   UNL     1      18.621  -3.024  10.100  0.00  0.00    +0.000 A 
ENDBRANCH  10  11
ENDBRANCH   1  10
TORSDOF 2
ENDMDL
MODEL 8
REMARK VINA RESULT:    -4.348     34.125     35.532
REMARK INTER + INTRA:          -4.994
REMARK INTER:                  -4.844
REMARK INTRA:                  -0.149
REMARK UNBOUND:                -0.138
REMARK  Name = 1550473
REMARK  2 active torsions:
REMARK  status: ('A' for Active; 'I' for Inactive)
REMARK    1  A    between atoms: N_1  and  C_4
REMARK    2  A    between atoms: C_4  and  C_5
REMARK                            x       y       z     vdW  Elec       q    Type
REMARK                         _______ _______ _______ _____ _____    ______ ____
ROOT
ATOM      1  N   UNL     1       2.045   1.194 -20.435  0.00  0.00    -0.354 N 
ATOM      2  N   UNL     1       4.038   0.752 -21.529  0.00  0.00    -0.372 N 
ATOM      3  N   UNL     1       3.918   0.411 -19.263  0.00  0.00    -0.372 N 
ATOM      4  C   UNL     1       3.321   0.788 -20.399  0.00  0.00    +0.166 C 
ATOM      5  H   UNL     1       1.661   1.495 -21.322  0.00  0.00    +0.163 HD
ATOM      6  H   UNL     1       5.002   0.447 -21.534  0.00  0.00    +0.159 HD
ATOM      7  H   UNL     1       3.637   1.010 -22.422  0.00  0.00    +0.159 HD
ATOM      8  H   UNL     1       3.434   0.422 -18.375  0.00  0.00    +0.159 HD
ATOM      9  H   UNL     1       4.885   0.114 -19.245  0.00  0.00    +0.159 HD
ENDROOT
BRANCH   1  10
ATOM     10  C   UNL     1       1.163   1.219 -19.270  0.00  0.00    +0.151 C 
BRANCH  10  11
ATOM     11  C   UNL     1       1.276   2.559 -18.597  0.00  0.00    -0.028 A 
ATOM     12  C   UNL     1       1.760   2.658 -17.284  0.00  0.00    +0.005 A 
ATOM     13  C   UNL     1       0.906   3.735 -19.268  0.00  0.00    +0.005 A 
ATOM     14  C   UNL     1       1.893   3.905 -16.669  0.00  0.00    +0.000 A 
ATOM     15  C   UNL     1       1.040   4.978 -18.651  0.00  0.00    +0.000 A 
ATOM     16  C   UNL     1       1.536   5.063 -17.352  0.00  0.00    +0.000 A 
ENDBRANCH  10  11
ENDBRANCH   1  10
TORSDOF 2
ENDMDL
MODEL 9
REMARK VINA RESULT:    -4.220     20.716     21.554
REMARK INTER + INTRA:          -4.851
REMARK INTER:                  -4.728
REMARK INTRA:                  -0.123
REMARK UNBOUND:                -0.138
REMARK  Name = 1550473
REMARK  2 active torsions:
REMARK  status: ('A' for Active; 'I' for Inactive)
REMARK    1  A    between atoms: N_1  and  C_4
REMARK    2  A    between atoms: C_4  and  C_5
REMARK                            x       y       z     vdW  Elec       q    Type
REMARK                         _______ _______ _______ _____ _____    ______ ____
ROOT
ATOM      1  N   UNL     1       6.058  -8.575  11.440  0.00  0.00    -0.354 N 
ATOM      2  N   UNL     1       5.956  -6.963  13.101  0.00  0.00    -0.372 N 
ATOM      3  N   UNL     1       4.072  -8.181  12.620  0.00  0.00    -0.372 N 
ATOM      4  C   UNL     1       5.360  -7.918  12.376  0.00  0.00    +0.166 C 
ATOM      5  H   UNL     1       7.023  -8.307  11.283  0.00  0.00    +0.163 HD
ATOM      6  H   UNL     1       5.456  -6.453  13.816  0.00  0.00    +0.159 HD
ATOM      7  H   UNL     1       6.933  -6.729  12.973  0.00  0.00    +0.159 HD
ATOM      8  H   UNL     1       3.563  -8.886  12.104  0.00  0.00    +0.159 HD
ATOM      9  H   UNL     1       3.551  -7.673  13.324  0.00  0.00    +0.159 HD
ENDROOT
BRANCH   1  10
ATOM     10  C   UNL     1       5.518  -9.668  10.634  0.00  0.00    +0.151 C 
BRANCH  10  11
ATOM     11  C   UNL     1       5.794  -9.390   9.182  0.00  0.00    -0.028 A 
ATOM     12  C   UNL     1       7.106  -9.176   8.735  0.00  0.00    +0.005 A 
ATOM     13  C   UNL     1       4.748  -9.346   8.247  0.00  0.00    +0.005 A 
ATOM     14  C   UNL     1       7.366  -8.947   7.381  0.00  0.00    +0.000 A 
ATOM     15  C   UNL     1       5.012  -9.117   6.897  0.00  0.00    +0.000 A 
ATOM     16  C   UNL     1       6.321  -8.920   6.464  0.00  0.00    +0.000 A 
ENDBRANCH  10  11
ENDBRANCH   1  10
TORSDOF 2
ENDMDL
