MODEL 1
REMARK VINA RESULT:    -6.163      0.000      0.000
REMARK INTER + INTRA:          -7.010
REMARK INTER:                  -6.883
REMARK INTRA:                  -0.127
REMARK UNBOUND:                -0.127
REMARK  Name = 1550473
REMARK  2 active torsions:
REMARK  status: ('A' for Active; 'I' for Inactive)
REMARK    1  A    between atoms: N_1  and  C_4
REMARK    2  A    between atoms: C_4  and  C_5
REMARK                            x       y       z     vdW  Elec       q    Type
REMARK                         _______ _______ _______ _____ _____    ______ ____
ROOT
ATOM      1  N   UNL     1      -3.083  -8.517  -7.757  0.00  0.00    -0.354 N 
ATOM      2  N   UNL     1      -4.452  -9.444  -6.135  0.00  0.00    -0.372 N 
ATOM      3  N   UNL     1      -5.293  -9.124  -8.245  0.00  0.00    -0.372 N 
ATOM      4  C   UNL     1      -4.269  -9.022  -7.392  0.00  0.00    +0.166 C 
ATOM      5  H   UNL     1      -2.357  -8.439  -7.054  0.00  0.00    +0.163 HD
ATOM      6  H   UNL     1      -5.335  -9.832  -5.831  0.00  0.00    +0.159 HD
ATOM      7  H   UNL     1      -3.710  -9.407  -5.447  0.00  0.00    +0.159 HD
ATOM      8  H   UNL     1      -5.222  -8.818  -9.207  0.00  0.00    +0.159 HD
ATOM      9  H   UNL     1      -6.188  -9.499  -7.957  0.00  0.00    +0.159 HD
ENDROOT
BRANCH   1  10
ATOM     10  C   UNL     1      -2.764  -8.079  -9.114  0.00  0.00    +0.151 C 
BRANCH  10  11
ATOM     11  C   UNL     1      -1.568  -7.168  -9.068  0.00  0.00    -0.028 A 
ATOM     12  C   UNL     1      -1.102  -6.666  -7.844  0.00  0.00    +0.005 A 
ATOM     13  C   UNL     1      -0.893  -6.808 -10.245  0.00  0.00    +0.005 A 
ATOM     14  C   UNL     1       0.026  -5.844  -7.798  0.00  0.00    +0.000 A 
ATOM     15  C   UNL     1       0.233  -5.987 -10.194  0.00  0.00    +0.000 A 
ATOM     16  C   UNL     1       0.694  -5.507  -8.971  0.00  0.00    +0.000 A 
ENDBRANCH  10  11
ENDBRANCH   1  10
TORSDOF 2
ENDMDL
MODEL 2
REMARK VINA RESULT:    -5.923      1.445      2.503
REMARK INTER + INTRA:          -6.742
REMARK INTER:                  -6.614
REMARK INTRA:                  -0.128
REMARK UNBOUND:                -0.127
REMARK  Name = 1550473
REMARK  2 active torsions:
REMARK  status: ('A' for Active; 'I' for Inactive)
REMARK    1  A    between atoms: N_1  and  C_4
REMARK    2  A    between atoms: C_4  and  C_5
REMARK                            x       y       z     vdW  Elec       q    Type
REMARK                         _______ _______ _______ _____ _____    ______ ____
ROOT
ATOM      1  N   UNL     1      -3.915  -9.147  -7.210  0.00  0.00    -0.354 N 
ATOM      2  N   UNL     1      -4.064  -9.749  -4.979  0.00  0.00    -0.372 N 
ATOM      3  N   UNL     1      -5.719  -8.445  -5.888  0.00  0.00    -0.372 N 
ATOM      4  C   UNL     1      -4.567  -9.108  -6.040  0.00  0.00    +0.166 C 
ATOM      5  H   UNL     1      -3.032  -9.642  -7.252  0.00  0.00    +0.163 HD
ATOM      6  H   UNL     1      -4.535  -9.741  -4.084  0.00  0.00    +0.159 HD
ATOM      7  H   UNL     1      -3.204 -10.281  -5.036  0.00  0.00    +0.159 HD
ATOM      8  H   UNL     1      -6.148  -7.936  -6.649  0.00  0.00    +0.159 HD
ATOM      9  H   UNL     1      -6.199  -8.415  -4.997  0.00  0.00    +0.159 HD
ENDROOT
BRANCH   1  10
ATOM     10  C   UNL     1      -4.405  -8.527  -8.440  0.00  0.00    +0.151 C 
BRANCH  10  11
ATOM     11  C   UNL     1      -3.235  -8.002  -9.225  0.00  0.00    -0.028 A 
ATOM     12  C   UNL     1      -3.181  -8.165 -10.617  0.00  0.00    +0.005 A 
ATOM     13  C   UNL     1      -2.180  -7.335  -8.584  0.00  0.00    +0.005 A 
ATOM     14  C   UNL     1      -2.109  -7.650 -11.351  0.00  0.00    +0.000 A 
ATOM     15  C   UNL     1      -1.111  -6.823  -9.319  0.00  0.00    +0.000 A 
ATOM     16  C   UNL     1      -1.077  -6.979 -10.703  0.00  0.00    +0.000 A 
ENDBRANCH  10  11
ENDBRANCH   1  10
TORSDOF 2
ENDMDL
MODEL 3
REMARK VINA RESULT:    -5.846      2.652      4.542
REMARK INTER + INTRA:          -6.657
REMARK INTER:                  -6.544
REMARK INTRA:                  -0.112
REMARK UNBOUND:                -0.127
REMARK  Name = 1550473
REMARK  2 active torsions:
REMARK  status: ('A' for Active; 'I' for Inactive)
REMARK    1  A    between atoms: N_1  and  C_4
REMARK    2  A    between atoms: C_4  and  C_5
REMARK                            x       y       z     vdW  Elec       q    Type
REMARK                         _______ _______ _______ _____ _____    ______ ____
ROOT
ATOM      1  N   UNL     1      -0.559  -7.169  -7.856  0.00  0.00    -0.354 N 
ATOM      2  N   UNL     1       0.021  -6.855  -5.636  0.00  0.00    -0.372 N 
ATOM      3  N   UNL     1      -0.013  -5.041  -7.040  0.00  0.00    -0.372 N 
ATOM      4  C   UNL     1      -0.187  -6.354  -6.859  0.00  0.00    +0.166 C 
ATOM      5  H   UNL     1      -0.645  -8.160  -7.661  0.00  0.00    +0.163 HD
ATOM      6  H   UNL     1       0.299  -6.265  -4.863  0.00  0.00    +0.159 HD
ATOM      7  H   UNL     1      -0.110  -7.839  -5.433  0.00  0.00    +0.159 HD
ATOM      8  H   UNL     1      -0.148  -4.602  -7.941  0.00  0.00    +0.159 HD
ATOM      9  H   UNL     1       0.276  -4.435  -6.282  0.00  0.00    +0.159 HD
ENDROOT
BRANCH   1  10
ATOM     10  C   UNL     1      -0.863  -6.715  -9.212  0.00  0.00    +0.151 C 
BRANCH  10  11
ATOM     11  C   UNL     1      -2.317  -6.970  -9.501  0.00  0.00    -0.028 A 
ATOM     12  C   UNL     1      -2.716  -7.494 -10.739  0.00  0.00    +0.005 A 
ATOM     13  C   UNL     1      -3.300  -6.693  -8.539  0.00  0.00    +0.005 A 
ATOM     14  C   UNL     1      -4.063  -7.759 -10.997  0.00  0.00    +0.000 A 
ATOM     15  C   UNL     1      -4.644  -6.958  -8.800  0.00  0.00    +0.000 A 
ATOM     16  C   UNL     1      -5.025  -7.493 -10.028  0.00  0.00    +0.000 A 
ENDBRANCH  10  11
ENDBRANCH   1  10
TORSDOF 2
ENDMDL
MODEL 4
REMARK VINA RESULT:    -5.762      2.344      2.921
REMARK INTER + INTRA:          -6.563
REMARK INTER:                  -6.398
REMARK INTRA:                  -0.165
REMARK UNBOUND:                -0.127
REMARK  Name = 1550473
REMARK  2 active torsions:
REMARK  status: ('A' for Active; 'I' for Inactive)
REMARK    1  A    between atoms: N_1  and  C_4
REMARK    2  A    between atoms: C_4  and  C_5
REMARK                            x       y       z     vdW  Elec       q    Type
REMARK                         _______ _______ _______ _____ _____    ______ ____
ROOT
ATOM      1  N   UNL     1      -5.847  -8.988 -10.060  0.00  0.00    -0.354 N 
ATOM      2  N   UNL     1      -7.109 -10.316  -8.643  0.00  0.00    -0.372 N 
ATOM      3  N   UNL     1      -7.358  -8.037  -8.542  0.00  0.00    -0.372 N 
ATOM      4  C   UNL     1      -6.764  -9.103  -9.090  0.00  0.00    +0.166 C 
ATOM      5  H   UNL     1      -5.411  -9.832 -10.413  0.00  0.00    +0.163 HD
ATOM      6  H   UNL     1      -7.800 -10.434  -7.915  0.00  0.00    +0.159 HD
ATOM      7  H   UNL     1      -6.705 -11.161  -9.030  0.00  0.00    +0.159 HD
ATOM      8  H   UNL     1      -7.138  -7.094  -8.831  0.00  0.00    +0.159 HD
ATOM      9  H   UNL     1      -8.044  -8.135  -7.804  0.00  0.00    +0.159 HD
ENDROOT
BRANCH   1  10
ATOM     10  C   UNL     1      -5.440  -7.716 -10.655  0.00  0.00    +0.151 C 
BRANCH  10  11
ATOM     11  C   UNL     1      -3.988  -7.472 -10.348  0.00  0.00    -0.028 A 
ATOM     12  C   UNL     1      -3.589  -7.070  -9.065  0.00  0.00    +0.005 A 
ATOM     13  C   UNL     1      -3.006  -7.647 -11.335  0.00  0.00    +0.005 A 
ATOM     14  C   UNL     1      -2.238  -6.873  -8.772  0.00  0.00    +0.000 A 
ATOM     15  C   UNL     1      -1.658  -7.449 -11.039  0.00  0.00    +0.000 A 
ATOM     16  C   UNL     1      -1.274  -7.064  -9.756  0.00  0.00    +0.000 A 
ENDBRANCH  10  11
ENDBRANCH   1  10
TORSDOF 2
ENDMDL
MODEL 5
REMARK VINA RESULT:    -5.709      1.786      2.686
REMARK INTER + INTRA:          -6.504
REMARK INTER:                  -6.413
REMARK INTRA:                  -0.090
REMARK UNBOUND:                -0.127
REMARK  Name = 1550473
REMARK  2 active torsions:
REMARK  status: ('A' for Active; 'I' for Inactive)
REMARK    1  A    between atoms: N_1  and  C_4
REMARK    2  A    between atoms: C_4  and  C_5
REMARK                            x       y       z     vdW  Elec       q    Type
REMARK                         _______ _______ _______ _____ _____    ______ ____
ROOT
ATOM      1  N   UNL     1      -5.044  -7.379  -7.542  0.00  0.00    -0.354 N 
ATOM      2  N   UNL     1      -6.838  -6.464  -6.398  0.00  0.00    -0.372 N 
ATOM      3  N   UNL     1      -6.052  -8.524  -5.763  0.00  0.00    -0.372 N 
ATOM      4  C   UNL     1      -5.966  -7.464  -6.574  0.00  0.00    +0.166 C 
ATOM      5  H   UNL     1      -5.051  -6.563  -8.143  0.00  0.00    +0.163 HD
ATOM      6  H   UNL     1      -7.542  -6.499  -5.674  0.00  0.00    +0.159 HD
ATOM      7  H   UNL     1      -6.813  -5.629  -6.971  0.00  0.00    +0.159 HD
ATOM      8  H   UNL     1      -5.427  -9.315  -5.847  0.00  0.00    +0.159 HD
ATOM      9  H   UNL     1      -6.758  -8.582  -5.040  0.00  0.00    +0.159 HD
ENDROOT
BRANCH   1  10
ATOM     10  C   UNL     1      -4.015  -8.389  -7.782  0.00  0.00    +0.151 C 
BRANCH  10  11
ATOM     11  C   UNL     1      -3.129  -7.931  -8.908  0.00  0.00    -0.028 A 
ATOM     12  C   UNL     1      -1.929  -7.256  -8.640  0.00  0.00    +0.005 A 
ATOM     13  C   UNL     1      -3.482  -8.173 -10.244  0.00  0.00    +0.005 A 
ATOM     14  C   UNL     1      -1.091  -6.856  -9.684  0.00  0.00    +0.000 A 
ATOM     15  C   UNL     1      -2.643  -7.771 -11.284  0.00  0.00    +0.000 A 
ATOM     16  C   UNL     1      -1.447  -7.115 -11.003  0.00  0.00    +0.000 A 
ENDBRANCH  10  11
ENDBRANCH   1  10
TORSDOF 2
ENDMDL
MODEL 6
REMARK VINA RESULT:    -5.564      3.868      5.026
REMARK INTER + INTRA:          -6.341
REMARK INTER:                  -6.176
REMARK INTRA:                  -0.165
REMARK UNBOUND:                -0.127
REMARK  Name = 1550473
REMARK  2 active torsions:
REMARK  status: ('A' for Active; 'I' for Inactive)
REMARK    1  A    between atoms: N_1  and  C_4
REMARK    2  A    between atoms: C_4  and  C_5
REMARK                            x       y       z     vdW  Elec       q    Type
REMARK                         _______ _______ _______ _____ _____    ______ ____
ROOT
ATOM      1  N   UNL     1      -8.322  -8.939  -7.639  0.00  0.00    -0.354 N 
ATOM      2  N   UNL     1     -10.217  -7.959  -6.738  0.00  0.00    -0.372 N 
ATOM      3  N   UNL     1      -8.425  -8.372  -5.367  0.00  0.00    -0.372 N 
ATOM      4  C   UNL     1      -8.974  -8.430  -6.585  0.00  0.00    +0.166 C 
ATOM      5  H   UNL     1      -8.805  -8.982  -8.529  0.00  0.00    +0.163 HD
ATOM      6  H   UNL     1     -10.733  -7.566  -5.962  0.00  0.00    +0.159 HD
ATOM      7  H   UNL     1     -10.681  -7.961  -7.639  0.00  0.00    +0.159 HD
ATOM      8  H   UNL     1      -7.492  -8.717  -5.184  0.00  0.00    +0.159 HD
ATOM      9  H   UNL     1      -8.929  -7.993  -4.576  0.00  0.00    +0.159 HD
ENDROOT
BRANCH   1  10
ATOM     10  C   UNL     1      -6.946  -9.429  -7.590  0.00  0.00    +0.151 C 
BRANCH  10  11
ATOM     11  C   UNL     1      -6.062  -8.489  -8.362  0.00  0.00    -0.028 A 
ATOM     12  C   UNL     1      -5.225  -7.586  -7.690  0.00  0.00    +0.005 A 
ATOM     13  C   UNL     1      -6.052  -8.500  -9.765  0.00  0.00    +0.005 A 
ATOM     14  C   UNL     1      -4.381  -6.733  -8.406  0.00  0.00    +0.000 A 
ATOM     15  C   UNL     1      -5.210  -7.646 -10.476  0.00  0.00    +0.000 A 
ATOM     16  C   UNL     1      -4.372  -6.764  -9.797  0.00  0.00    +0.000 A 
ENDBRANCH  10  11
ENDBRANCH   1  10
TORSDOF 2
ENDMDL
MODEL 7
REMARK VINA RESULT:    -5.561      3.172      4.439
REMARK INTER + INTRA:          -6.338
REMARK INTER:                  -6.158
REMARK INTRA:                  -0.180
REMARK UNBOUND:                -0.127
REMARK  Name = 1550473
REMARK  2 active torsions:
REMARK  status: ('A' for Active; 'I' for Inactive)
REMARK    1  A    between atoms: N_1  and  C_4
REMARK    2  A    between atoms: C_4  and  C_5
REMARK                            x       y       z     vdW  Elec       q    Type
REMARK                         _______ _______ _______ _____ _____    ______ ____
ROOT
ATOM      1  N   UNL     1      -6.484  -8.554  -5.913  0.00  0.00    -0.354 N 
ATOM      2  N   UNL     1      -8.684  -8.273  -5.247  0.00  0.00    -0.372 N 
ATOM      3  N   UNL     1      -8.181  -9.948  -6.732  0.00  0.00    -0.372 N 
ATOM      4  C   UNL     1      -7.769  -8.929  -5.970  0.00  0.00    +0.166 C 
ATOM      5  H   UNL     1      -6.241  -7.755  -5.340  0.00  0.00    +0.163 HD
ATOM      6  H   UNL     1      -9.661  -8.535  -5.267  0.00  0.00    +0.159 HD
ATOM      7  H   UNL     1      -8.432  -7.503  -4.639  0.00  0.00    +0.159 HD
ATOM      8  H   UNL     1      -7.541 -10.480  -7.306  0.00  0.00    +0.159 HD
ATOM      9  H   UNL     1      -9.156 -10.218  -6.774  0.00  0.00    +0.159 HD
ENDROOT
BRANCH   1  10
ATOM     10  C   UNL     1      -5.401  -9.236  -6.620  0.00  0.00    +0.151 C 
BRANCH  10  11
ATOM     11  C   UNL     1      -5.011  -8.422  -7.823  0.00  0.00    -0.028 A 
ATOM     12  C   UNL     1      -5.548  -8.714  -9.085  0.00  0.00    +0.005 A 
ATOM     13  C   UNL     1      -4.108  -7.354  -7.706  0.00  0.00    +0.005 A 
ATOM     14  C   UNL     1      -5.209  -7.940 -10.197  0.00  0.00    +0.000 A 
ATOM     15  C   UNL     1      -3.771  -6.584  -8.818  0.00  0.00    +0.000 A 
ATOM     16  C   UNL     1      -4.324  -6.875 -10.063  0.00  0.00    +0.000 A 
ENDBRANCH  10  11
ENDBRANCH   1  10
TORSDOF 2
ENDMDL
MODEL 8
REMARK VINA RESULT:    -5.355      2.862      4.085
REMARK INTER + INTRA:          -6.107
REMARK INTER:                  -5.940
REMARK INTRA:                  -0.167
REMARK UNBOUND:                -0.127
REMARK  Name = 1550473
REMARK  2 active torsions:
REMARK  status: ('A' for Active; 'I' for Inactive)
REMARK    1  A    between atoms: N_1  and  C_4
REMARK    2  A    between atoms: C_4  and  C_5
REMARK                            x       y       z     vdW  Elec       q    Type
REMARK                         _______ _______ _______ _____ _____    ______ ____
ROOT
ATOM      1  N   UNL     1      -6.960  -8.119  -6.846  0.00  0.00    -0.354 N 
ATOM      2  N   UNL     1      -7.421 -10.146  -5.825  0.00  0.00    -0.372 N 
ATOM      3  N   UNL     1      -5.452  -9.078  -5.330  0.00  0.00    -0.372 N 
ATOM      4  C   UNL     1      -6.605  -9.100  -6.006  0.00  0.00    +0.166 C 
ATOM      5  H   UNL     1      -7.834  -8.210  -7.352  0.00  0.00    +0.163 HD
ATOM      6  H   UNL     1      -7.182 -10.900  -5.196  0.00  0.00    +0.159 HD
ATOM      7  H   UNL     1      -8.315 -10.213  -6.297  0.00  0.00    +0.159 HD
ATOM      8  H   UNL     1      -4.789  -8.320  -5.427  0.00  0.00    +0.159 HD
ATOM      9  H   UNL     1      -5.189  -9.829  -4.704  0.00  0.00    +0.159 HD
ENDROOT
BRANCH   1  10
ATOM     10  C   UNL     1      -6.168  -6.911  -7.073  0.00  0.00    +0.151 C 
BRANCH  10  11
ATOM     11  C   UNL     1      -5.360  -7.083  -8.329  0.00  0.00    -0.028 A 
ATOM     12  C   UNL     1      -4.027  -6.649  -8.383  0.00  0.00    +0.005 A 
ATOM     13  C   UNL     1      -5.919  -7.684  -9.468  0.00  0.00    +0.005 A 
ATOM     14  C   UNL     1      -3.266  -6.836  -9.540  0.00  0.00    +0.000 A 
ATOM     15  C   UNL     1      -5.156  -7.867 -10.621  0.00  0.00    +0.000 A 
ATOM     16  C   UNL     1      -3.829  -7.445 -10.656  0.00  0.00    +0.000 A 
ENDBRANCH  10  11
ENDBRANCH   1  10
TORSDOF 2
ENDMDL
MODEL 9
REMARK VINA RESULT:    -5.353     28.361     29.559
REMARK INTER + INTRA:          -6.105
REMARK INTER:                  -5.944
REMARK INTRA:                  -0.161
REMARK UNBOUND:                -0.127
REMARK  Name = 1550473
REMARK  2 active torsions:
REMARK  status: ('A' for Active; 'I' for Inactive)
REMARK    1  A    between atoms: N_1  and  C_4
REMARK    2  A    between atoms: C_4  and  C_5
REMARK                            x       y       z     vdW  Elec       q    Type
REMARK                         _______ _______ _______ _____ _____    ______ ____
ROOT
ATOM      1  N   UNL     1      -1.809   9.265  13.981  0.00  0.00    -0.354 N 
ATOM      2  N   UNL     1       0.091   8.062  14.537  0.00  0.00    -0.372 N 
ATOM      3  N   UNL     1       0.037  10.314  14.974  0.00  0.00    -0.372 N 
ATOM      4  C   UNL     1      -0.572   9.224  14.494  0.00  0.00    +0.166 C 
ATOM      5  H   UNL     1      -2.203   8.410  13.607  0.00  0.00    +0.163 HD
ATOM      6  H   UNL     1       1.024   7.999  14.921  0.00  0.00    +0.159 HD
ATOM      7  H   UNL     1      -0.324   7.200  14.203  0.00  0.00    +0.159 HD
ATOM      8  H   UNL     1      -0.406  11.222  14.965  0.00  0.00    +0.159 HD
ATOM      9  H   UNL     1       0.975  10.273  15.352  0.00  0.00    +0.159 HD
ENDROOT
BRANCH   1  10
ATOM     10  C   UNL     1      -2.636  10.469  13.938  0.00  0.00    +0.151 C 
BRANCH  10  11
ATOM     11  C   UNL     1      -3.837  10.273  14.822  0.00  0.00    -0.028 A 
ATOM     12  C   UNL     1      -3.707  10.311  16.218  0.00  0.00    +0.005 A 
ATOM     13  C   UNL     1      -5.108  10.053  14.269  0.00  0.00    +0.005 A 
ATOM     14  C   UNL     1      -4.827  10.158  17.039  0.00  0.00    +0.000 A 
ATOM     15  C   UNL     1      -6.224   9.900  15.093  0.00  0.00    +0.000 A 
ATOM     16  C   UNL     1      -6.083   9.955  16.477  0.00  0.00    +0.000 A 
ENDBRANCH  10  11
ENDBRANCH   1  10
TORSDOF 2
ENDMDL
