MODEL 1
REMARK VINA RESULT:    -5.834      0.000      0.000
REMARK INTER + INTRA:          -6.678
REMARK INTER:                  -6.517
REMARK INTRA:                  -0.161
REMARK UNBOUND:                -0.161
REMARK  Name = 1550473
REMARK  2 active torsions:
REMARK  status: ('A' for Active; 'I' for Inactive)
REMARK    1  A    between atoms: N_1  and  C_4
REMARK    2  A    between atoms: C_4  and  C_5
REMARK                            x       y       z     vdW  Elec       q    Type
REMARK                         _______ _______ _______ _____ _____    ______ ____
ROOT
ATOM      1  N   UNL     1      14.794   7.184  14.620  0.00  0.00    -0.354 N 
ATOM      2  N   UNL     1      16.336   5.829  15.693  0.00  0.00    -0.372 N 
ATOM      3  N   UNL     1      14.105   5.546  16.148  0.00  0.00    -0.372 N 
ATOM      4  C   UNL     1      15.066   6.194  15.482  0.00  0.00    +0.166 C 
ATOM      5  H   UNL     1      15.570   7.655  14.169  0.00  0.00    +0.163 HD
ATOM      6  H   UNL     1      16.571   5.083  16.335  0.00  0.00    +0.159 HD
ATOM      7  H   UNL     1      17.106   6.271  15.207  0.00  0.00    +0.159 HD
ATOM      8  H   UNL     1      13.127   5.778  16.038  0.00  0.00    +0.159 HD
ATOM      9  H   UNL     1      14.321   4.805  16.804  0.00  0.00    +0.159 HD
ENDROOT
BRANCH   1  10
ATOM     10  C   UNL     1      13.442   7.622  14.278  0.00  0.00    +0.151 C 
BRANCH  10  11
ATOM     11  C   UNL     1      13.179   7.317  12.829  0.00  0.00    -0.028 A 
ATOM     12  C   UNL     1      12.948   5.999  12.409  0.00  0.00    +0.005 A 
ATOM     13  C   UNL     1      13.154   8.343  11.872  0.00  0.00    +0.005 A 
ATOM     14  C   UNL     1      12.674   5.719  11.068  0.00  0.00    +0.000 A 
ATOM     15  C   UNL     1      12.881   8.060  10.534  0.00  0.00    +0.000 A 
ATOM     16  C   UNL     1      12.638   6.748  10.133  0.00  0.00    +0.000 A 
ENDBRANCH  10  11
ENDBRANCH   1  10
TORSDOF 2
ENDMDL
MODEL 2
REMARK VINA RESULT:    -5.161     27.000     27.960
REMARK INTER + INTRA:          -5.926
REMARK INTER:                  -5.815
REMARK INTRA:                  -0.111
REMARK UNBOUND:                -0.161
REMARK  Name = 1550473
REMARK  2 active torsions:
REMARK  status: ('A' for Active; 'I' for Inactive)
REMARK    1  A    between atoms: N_1  and  C_4
REMARK    2  A    between atoms: C_4  and  C_5
REMARK                            x       y       z     vdW  Elec       q    Type
REMARK                         _______ _______ _______ _____ _____    ______ ____
ROOT
ATOM      1  N   UNL     1     -12.725  -1.599  10.113  0.00  0.00    -0.354 N 
ATOM      2  N   UNL     1     -12.831  -3.756  10.950  0.00  0.00    -0.372 N 
ATOM      3  N   UNL     1     -11.007  -2.458  11.455  0.00  0.00    -0.372 N 
ATOM      4  C   UNL     1     -12.184  -2.590  10.835  0.00  0.00    +0.166 C 
ATOM      5  H   UNL     1     -13.606  -1.772   9.643  0.00  0.00    +0.163 HD
ATOM      6  H   UNL     1     -12.449  -4.520  11.491  0.00  0.00    +0.159 HD
ATOM      7  H   UNL     1     -13.733  -3.910  10.517  0.00  0.00    +0.159 HD
ATOM      8  H   UNL     1     -10.466  -1.605  11.402  0.00  0.00    +0.159 HD
ATOM      9  H   UNL     1     -10.602  -3.216  11.991  0.00  0.00    +0.159 HD
ENDROOT
BRANCH   1  10
ATOM     10  C   UNL     1     -12.128  -0.272   9.968  0.00  0.00    +0.151 C 
BRANCH  10  11
ATOM     11  C   UNL     1     -12.839   0.469   8.870  0.00  0.00    -0.028 A 
ATOM     12  C   UNL     1     -13.064  -0.143   7.628  0.00  0.00    +0.005 A 
ATOM     13  C   UNL     1     -13.295   1.781   9.066  0.00  0.00    +0.005 A 
ATOM     14  C   UNL     1     -13.750   0.534   6.617  0.00  0.00    +0.000 A 
ATOM     15  C   UNL     1     -13.979   2.455   8.054  0.00  0.00    +0.000 A 
ATOM     16  C   UNL     1     -14.209   1.830   6.831  0.00  0.00    +0.000 A 
ENDBRANCH  10  11
ENDBRANCH   1  10
TORSDOF 2
ENDMDL
MODEL 3
REMARK VINA RESULT:    -5.082      3.227      4.273
REMARK INTER + INTRA:          -5.837
REMARK INTER:                  -5.693
REMARK INTRA:                  -0.144
REMARK UNBOUND:                -0.161
REMARK  Name = 1550473
REMARK  2 active torsions:
REMARK  status: ('A' for Active; 'I' for Inactive)
REMARK    1  A    between atoms: N_1  and  C_4
REMARK    2  A    between atoms: C_4  and  C_5
REMARK                            x       y       z     vdW  Elec       q    Type
REMARK                         _______ _______ _______ _____ _____    ______ ____
ROOT
ATOM      1  N   UNL     1      12.829  10.236  15.969  0.00  0.00    -0.354 N 
ATOM      2  N   UNL     1      11.356  11.908  16.599  0.00  0.00    -0.372 N 
ATOM      3  N   UNL     1      11.675  10.123  18.005  0.00  0.00    -0.372 N 
ATOM      4  C   UNL     1      11.963  10.743  16.856  0.00  0.00    +0.166 C 
ATOM      5  H   UNL     1      12.982  10.740  15.103  0.00  0.00    +0.163 HD
ATOM      6  H   UNL     1      10.700  12.317  17.251  0.00  0.00    +0.159 HD
ATOM      7  H   UNL     1      11.545  12.432  15.754  0.00  0.00    +0.159 HD
ATOM      8  H   UNL     1      12.094   9.237  18.256  0.00  0.00    +0.159 HD
ATOM      9  H   UNL     1      11.012  10.511  18.665  0.00  0.00    +0.159 HD
ENDROOT
BRANCH   1  10
ATOM     10  C   UNL     1      13.583   9.001  16.177  0.00  0.00    +0.151 C 
BRANCH  10  11
ATOM     11  C   UNL     1      13.452   8.134  14.955  0.00  0.00    -0.028 A 
ATOM     12  C   UNL     1      12.709   8.571  13.849  0.00  0.00    +0.005 A 
ATOM     13  C   UNL     1      14.073   6.877  14.895  0.00  0.00    +0.005 A 
ATOM     14  C   UNL     1      12.612   7.779  12.702  0.00  0.00    +0.000 A 
ATOM     15  C   UNL     1      13.973   6.089  13.749  0.00  0.00    +0.000 A 
ATOM     16  C   UNL     1      13.245   6.541  12.652  0.00  0.00    +0.000 A 
ENDBRANCH  10  11
ENDBRANCH   1  10
TORSDOF 2
ENDMDL
MODEL 4
REMARK VINA RESULT:    -4.896     11.074     11.857
REMARK INTER + INTRA:          -5.629
REMARK INTER:                  -5.504
REMARK INTRA:                  -0.125
REMARK UNBOUND:                -0.161
REMARK  Name = 1550473
REMARK  2 active torsions:
REMARK  status: ('A' for Active; 'I' for Inactive)
REMARK    1  A    between atoms: N_1  and  C_4
REMARK    2  A    between atoms: C_4  and  C_5
REMARK                            x       y       z     vdW  Elec       q    Type
REMARK                         _______ _______ _______ _____ _____    ______ ____
ROOT
ATOM      1  N   UNL     1       5.369   7.394  19.855  0.00  0.00    -0.354 N 
ATOM      2  N   UNL     1       7.534   6.649  19.502  0.00  0.00    -0.372 N 
ATOM      3  N   UNL     1       7.168   8.895  19.799  0.00  0.00    -0.372 N 
ATOM      4  C   UNL     1       6.677   7.654  19.721  0.00  0.00    +0.166 C 
ATOM      5  H   UNL     1       5.056   6.436  19.755  0.00  0.00    +0.163 HD
ATOM      6  H   UNL     1       8.526   6.814  19.400  0.00  0.00    +0.159 HD
ATOM      7  H   UNL     1       7.224   5.687  19.448  0.00  0.00    +0.159 HD
ATOM      8  H   UNL     1       6.574   9.698  19.957  0.00  0.00    +0.159 HD
ATOM      9  H   UNL     1       8.157   9.082  19.688  0.00  0.00    +0.159 HD
ENDROOT
BRANCH   1  10
ATOM     10  C   UNL     1       4.360   8.410  20.150  0.00  0.00    +0.151 C 
BRANCH  10  11
ATOM     11  C   UNL     1       3.088   8.062  19.428  0.00  0.00    -0.028 A 
ATOM     12  C   UNL     1       2.790   6.728  19.114  0.00  0.00    +0.005 A 
ATOM     13  C   UNL     1       2.173   9.060  19.061  0.00  0.00    +0.005 A 
ATOM     14  C   UNL     1       1.594   6.400  18.470  0.00  0.00    +0.000 A 
ATOM     15  C   UNL     1       0.980   8.729  18.418  0.00  0.00    +0.000 A 
ATOM     16  C   UNL     1       0.690   7.399  18.125  0.00  0.00    +0.000 A 
ENDBRANCH  10  11
ENDBRANCH   1  10
TORSDOF 2
ENDMDL
MODEL 5
REMARK VINA RESULT:    -4.891      1.746      2.629
REMARK INTER + INTRA:          -5.624
REMARK INTER:                  -5.487
REMARK INTRA:                  -0.138
REMARK UNBOUND:                -0.161
REMARK  Name = 1550473
REMARK  2 active torsions:
REMARK  status: ('A' for Active; 'I' for Inactive)
REMARK    1  A    between atoms: N_1  and  C_4
REMARK    2  A    between atoms: C_4  and  C_5
REMARK                            x       y       z     vdW  Elec       q    Type
REMARK                         _______ _______ _______ _____ _____    ______ ____
ROOT
ATOM      1  N   UNL     1      15.459   7.357  16.493  0.00  0.00    -0.354 N 
ATOM      2  N   UNL     1      16.610   6.029  18.002  0.00  0.00    -0.372 N 
ATOM      3  N   UNL     1      14.644   7.011  18.663  0.00  0.00    -0.372 N 
ATOM      4  C   UNL     1      15.562   6.809  17.711  0.00  0.00    +0.166 C 
ATOM      5  H   UNL     1      16.204   7.190  15.826  0.00  0.00    +0.163 HD
ATOM      6  H   UNL     1      16.712   5.599  18.911  0.00  0.00    +0.159 HD
ATOM      7  H   UNL     1      17.329   5.826  17.318  0.00  0.00    +0.159 HD
ATOM      8  H   UNL     1      13.832   7.594  18.509  0.00  0.00    +0.159 HD
ATOM      9  H   UNL     1      14.735   6.598  19.583  0.00  0.00    +0.159 HD
ENDROOT
BRANCH   1  10
ATOM     10  C   UNL     1      14.330   8.178  16.058  0.00  0.00    +0.151 C 
BRANCH  10  11
ATOM     11  C   UNL     1      13.819   7.652  14.745  0.00  0.00    -0.028 A 
ATOM     12  C   UNL     1      13.070   8.476  13.891  0.00  0.00    +0.005 A 
ATOM     13  C   UNL     1      14.084   6.333  14.346  0.00  0.00    +0.005 A 
ATOM     14  C   UNL     1      12.620   7.998  12.658  0.00  0.00    +0.000 A 
ATOM     15  C   UNL     1      13.632   5.859  13.114  0.00  0.00    +0.000 A 
ATOM     16  C   UNL     1      12.902   6.693  12.270  0.00  0.00    +0.000 A 
ENDBRANCH  10  11
ENDBRANCH   1  10
TORSDOF 2
ENDMDL
MODEL 6
REMARK VINA RESULT:    -4.876     27.352     28.993
REMARK INTER + INTRA:          -5.607
REMARK INTER:                  -5.482
REMARK INTRA:                  -0.125
REMARK UNBOUND:                -0.161
REMARK  Name = 1550473
REMARK  2 active torsions:
REMARK  status: ('A' for Active; 'I' for Inactive)
REMARK    1  A    between atoms: N_1  and  C_4
REMARK    2  A    between atoms: C_4  and  C_5
REMARK                            x       y       z     vdW  Elec       q    Type
REMARK                         _______ _______ _______ _____ _____    ______ ____
ROOT
ATOM      1  N   UNL     1      -3.643  11.093  -7.822  0.00  0.00    -0.354 N 
ATOM      2  N   UNL     1      -2.532   9.641  -6.401  0.00  0.00    -0.372 N 
ATOM      3  N   UNL     1      -2.449  11.893  -5.971  0.00  0.00    -0.372 N 
ATOM      4  C   UNL     1      -2.881  10.888  -6.739  0.00  0.00    +0.166 C 
ATOM      5  H   UNL     1      -3.913  10.291  -8.380  0.00  0.00    +0.163 HD
ATOM      6  H   UNL     1      -1.961   9.454  -5.587  0.00  0.00    +0.159 HD
ATOM      7  H   UNL     1      -2.842   8.837  -6.934  0.00  0.00    +0.159 HD
ATOM      8  H   UNL     1      -2.672  12.858  -6.176  0.00  0.00    +0.159 HD
ATOM      9  H   UNL     1      -1.866  11.728  -5.159  0.00  0.00    +0.159 HD
ENDROOT
BRANCH   1  10
ATOM     10  C   UNL     1      -4.123  12.407  -8.246  0.00  0.00    +0.151 C 
BRANCH  10  11
ATOM     11  C   UNL     1      -5.566  12.295  -8.654  0.00  0.00    -0.028 A 
ATOM     12  C   UNL     1      -6.032  11.150  -9.316  0.00  0.00    +0.005 A 
ATOM     13  C   UNL     1      -6.474  13.328  -8.375  0.00  0.00    +0.005 A 
ATOM     14  C   UNL     1      -7.379  11.032  -9.668  0.00  0.00    +0.000 A 
ATOM     15  C   UNL     1      -7.818  13.207  -8.729  0.00  0.00    +0.000 A 
ATOM     16  C   UNL     1      -8.270  12.058  -9.373  0.00  0.00    +0.000 A 
ENDBRANCH  10  11
ENDBRANCH   1  10
TORSDOF 2
ENDMDL
MODEL 7
REMARK VINA RESULT:    -4.817     11.862     12.929
REMARK INTER + INTRA:          -5.541
REMARK INTER:                  -5.398
REMARK INTRA:                  -0.144
REMARK UNBOUND:                -0.161
REMARK  Name = 1550473
REMARK  2 active torsions:
REMARK  status: ('A' for Active; 'I' for Inactive)
REMARK    1  A    between atoms: N_1  and  C_4
REMARK    2  A    between atoms: C_4  and  C_5
REMARK                            x       y       z     vdW  Elec       q    Type
REMARK                         _______ _______ _______ _____ _____    ______ ____
ROOT
ATOM      1  N   UNL     1      23.171  16.448   8.316  0.00  0.00    -0.354 N 
ATOM      2  N   UNL     1      24.951  17.009   9.687  0.00  0.00    -0.372 N 
ATOM      3  N   UNL     1      24.181  14.847   9.698  0.00  0.00    -0.372 N 
ATOM      4  C   UNL     1      24.089  16.095   9.225  0.00  0.00    +0.166 C 
ATOM      5  H   UNL     1      23.134  17.416   8.020  0.00  0.00    +0.163 HD
ATOM      6  H   UNL     1      25.657  16.771  10.371  0.00  0.00    +0.159 HD
ATOM      7  H   UNL     1      24.941  17.966   9.356  0.00  0.00    +0.159 HD
ATOM      8  H   UNL     1      23.557  14.112   9.394  0.00  0.00    +0.159 HD
ATOM      9  H   UNL     1      24.874  14.593  10.391  0.00  0.00    +0.159 HD
ENDROOT
BRANCH   1  10
ATOM     10  C   UNL     1      22.221  15.517   7.709  0.00  0.00    +0.151 C 
BRANCH  10  11
ATOM     11  C   UNL     1      20.961  15.497   8.530  0.00  0.00    -0.028 A 
ATOM     12  C   UNL     1      20.103  16.606   8.544  0.00  0.00    +0.005 A 
ATOM     13  C   UNL     1      20.617  14.369   9.291  0.00  0.00    +0.005 A 
ATOM     14  C   UNL     1      18.917  16.576   9.282  0.00  0.00    +0.000 A 
ATOM     15  C   UNL     1      19.433  14.344  10.028  0.00  0.00    +0.000 A 
ATOM     16  C   UNL     1      18.582  15.447  10.021  0.00  0.00    +0.000 A 
ENDBRANCH  10  11
ENDBRANCH   1  10
TORSDOF 2
ENDMDL
MODEL 8
REMARK VINA RESULT:    -4.631     10.843     11.646
REMARK INTER + INTRA:          -5.334
REMARK INTER:                  -5.186
REMARK INTRA:                  -0.147
REMARK UNBOUND:                -0.161
REMARK  Name = 1550473
REMARK  2 active torsions:
REMARK  status: ('A' for Active; 'I' for Inactive)
REMARK    1  A    between atoms: N_1  and  C_4
REMARK    2  A    between atoms: C_4  and  C_5
REMARK                            x       y       z     vdW  Elec       q    Type
REMARK                         _______ _______ _______ _____ _____    ______ ____
ROOT
ATOM      1  N   UNL     1      20.822  14.515   8.853  0.00  0.00    -0.354 N 
ATOM      2  N   UNL     1      22.465  15.205   7.374  0.00  0.00    -0.372 N 
ATOM      3  N   UNL     1      22.990  15.002   9.598  0.00  0.00    -0.372 N 
ATOM      4  C   UNL     1      22.083  14.903   8.620  0.00  0.00    +0.166 C 
ATOM      5  H   UNL     1      20.175  14.490   8.074  0.00  0.00    +0.163 HD
ATOM      6  H   UNL     1      23.411  15.498   7.167  0.00  0.00    +0.159 HD
ATOM      7  H   UNL     1      21.828  15.135   6.589  0.00  0.00    +0.159 HD
ATOM      8  H   UNL     1      22.764  14.794  10.562  0.00  0.00    +0.159 HD
ATOM      9  H   UNL     1      23.938  15.304   9.413  0.00  0.00    +0.159 HD
ENDROOT
BRANCH   1  10
ATOM     10  C   UNL     1      20.320  14.113  10.165  0.00  0.00    +0.151 C 
BRANCH  10  11
ATOM     11  C   UNL     1      19.262  15.087  10.607  0.00  0.00    -0.028 A 
ATOM     12  C   UNL     1      19.291  15.632  11.898  0.00  0.00    +0.005 A 
ATOM     13  C   UNL     1      18.232  15.473   9.735  0.00  0.00    +0.005 A 
ATOM     14  C   UNL     1      18.326  16.560  12.299  0.00  0.00    +0.000 A 
ATOM     15  C   UNL     1      17.270  16.399  10.139  0.00  0.00    +0.000 A 
ATOM     16  C   UNL     1      17.319  16.944  11.420  0.00  0.00    +0.000 A 
ENDBRANCH  10  11
ENDBRANCH   1  10
TORSDOF 2
ENDMDL
MODEL 9
REMARK VINA RESULT:    -4.498     21.558     22.139
REMARK INTER + INTRA:          -5.185
REMARK INTER:                  -5.089
REMARK INTRA:                  -0.096
REMARK UNBOUND:                -0.161
REMARK  Name = 1550473
REMARK  2 active torsions:
REMARK  status: ('A' for Active; 'I' for Inactive)
REMARK    1  A    between atoms: N_1  and  C_4
REMARK    2  A    between atoms: C_4  and  C_5
REMARK                            x       y       z     vdW  Elec       q    Type
REMARK                         _______ _______ _______ _____ _____    ______ ____
ROOT
ATOM      1  N   UNL     1      -5.686  17.296  17.434  0.00  0.00    -0.354 N 
ATOM      2  N   UNL     1      -6.327  19.432  18.059  0.00  0.00    -0.372 N 
ATOM      3  N   UNL     1      -4.279  19.135  17.068  0.00  0.00    -0.372 N 
ATOM      4  C   UNL     1      -5.424  18.608  17.515  0.00  0.00    +0.166 C 
ATOM      5  H   UNL     1      -6.559  16.955  17.819  0.00  0.00    +0.163 HD
ATOM      6  H   UNL     1      -6.159  20.427  18.131  0.00  0.00    +0.159 HD
ATOM      7  H   UNL     1      -7.219  19.095  18.401  0.00  0.00    +0.159 HD
ATOM      8  H   UNL     1      -3.554  18.565  16.652  0.00  0.00    +0.159 HD
ATOM      9  H   UNL     1      -4.088  20.126  17.142  0.00  0.00    +0.159 HD
ENDROOT
BRANCH   1  10
ATOM     10  C   UNL     1      -4.792  16.321  16.811  0.00  0.00    +0.151 C 
BRANCH  10  11
ATOM     11  C   UNL     1      -5.529  15.022  16.636  0.00  0.00    -0.028 A 
ATOM     12  C   UNL     1      -5.925  14.272  17.753  0.00  0.00    +0.005 A 
ATOM     13  C   UNL     1      -5.839  14.538  15.355  0.00  0.00    +0.005 A 
ATOM     14  C   UNL     1      -6.636  13.080  17.591  0.00  0.00    +0.000 A 
ATOM     15  C   UNL     1      -6.548  13.347  15.198  0.00  0.00    +0.000 A 
ATOM     16  C   UNL     1      -6.948  12.620  16.316  0.00  0.00    +0.000 A 
ENDBRANCH  10  11
ENDBRANCH   1  10
TORSDOF 2
ENDMDL
