MODEL 1
REMARK VINA RESULT:    -4.454      0.000      0.000
REMARK INTER + INTRA:          -5.082
REMARK INTER:                  -4.975
REMARK INTRA:                  -0.107
REMARK UNBOUND:                -0.107
REMARK  Name = 1550473
REMARK  2 active torsions:
REMARK  status: ('A' for Active; 'I' for Inactive)
REMARK    1  A    between atoms: N_1  and  C_4
REMARK    2  A    between atoms: C_4  and  C_5
REMARK                            x       y       z     vdW  Elec       q    Type
REMARK                         _______ _______ _______ _____ _____    ______ ____
ROOT
ATOM      1  N   UNL     1       7.311   8.158  33.960  0.00  0.00    -0.354 N 
ATOM      2  N   UNL     1       6.252   7.435  35.890  0.00  0.00    -0.372 N 
ATOM      3  N   UNL     1       8.132   8.738  36.077  0.00  0.00    -0.372 N 
ATOM      4  C   UNL     1       7.241   8.116  35.298  0.00  0.00    +0.166 C 
ATOM      5  H   UNL     1       6.622   7.640  33.426  0.00  0.00    +0.163 HD
ATOM      6  H   UNL     1       6.172   7.389  36.897  0.00  0.00    +0.159 HD
ATOM      7  H   UNL     1       5.539   6.957  35.353  0.00  0.00    +0.159 HD
ATOM      8  H   UNL     1       8.905   9.263  35.693  0.00  0.00    +0.159 HD
ATOM      9  H   UNL     1       8.075   8.693  37.087  0.00  0.00    +0.159 HD
ENDROOT
BRANCH   1  10
ATOM     10  C   UNL     1       8.316   8.915  33.217  0.00  0.00    +0.151 C 
BRANCH  10  11
ATOM     11  C   UNL     1       8.435   8.345  31.831  0.00  0.00    -0.028 A 
ATOM     12  C   UNL     1       8.932   7.048  31.635  0.00  0.00    +0.005 A 
ATOM     13  C   UNL     1       8.047   9.094  30.710  0.00  0.00    +0.005 A 
ATOM     14  C   UNL     1       9.015   6.507  30.349  0.00  0.00    +0.000 A 
ATOM     15  C   UNL     1       8.132   8.551  29.428  0.00  0.00    +0.000 A 
ATOM     16  C   UNL     1       8.613   7.256  29.249  0.00  0.00    +0.000 A 
ENDBRANCH  10  11
ENDBRANCH   1  10
TORSDOF 2
ENDMDL
MODEL 2
REMARK VINA RESULT:    -4.143     93.534     95.481
REMARK INTER + INTRA:          -4.734
REMARK INTER:                  -4.583
REMARK INTRA:                  -0.151
REMARK UNBOUND:                -0.107
REMARK  Name = 1550473
REMARK  2 active torsions:
REMARK  status: ('A' for Active; 'I' for Inactive)
REMARK    1  A    between atoms: N_1  and  C_4
REMARK    2  A    between atoms: C_4  and  C_5
REMARK                            x       y       z     vdW  Elec       q    Type
REMARK                         _______ _______ _______ _____ _____    ______ ____
ROOT
ATOM      1  N   UNL     1     -10.415  -7.298 -58.978  0.00  0.00    -0.354 N 
ATOM      2  N   UNL     1      -9.852  -7.859 -56.803  0.00  0.00    -0.372 N 
ATOM      3  N   UNL     1     -11.366  -9.165 -57.928  0.00  0.00    -0.372 N 
ATOM      4  C   UNL     1     -10.550  -8.106 -57.918  0.00  0.00    +0.166 C 
ATOM      5  H   UNL     1      -9.804  -6.494 -58.896  0.00  0.00    +0.163 HD
ATOM      6  H   UNL     1      -9.930  -8.453 -55.988  0.00  0.00    +0.159 HD
ATOM      7  H   UNL     1      -9.207  -7.081 -56.739  0.00  0.00    +0.159 HD
ATOM      8  H   UNL     1     -11.925  -9.403 -58.737  0.00  0.00    +0.159 HD
ATOM      9  H   UNL     1     -11.467  -9.765 -57.118  0.00  0.00    +0.159 HD
ENDROOT
BRANCH   1  10
ATOM     10  C   UNL     1     -11.089  -7.510 -60.258  0.00  0.00    +0.151 C 
BRANCH  10  11
ATOM     11  C   UNL     1     -12.005  -6.348 -60.529  0.00  0.00    -0.028 A 
ATOM     12  C   UNL     1     -13.052  -6.468 -61.454  0.00  0.00    +0.005 A 
ATOM     13  C   UNL     1     -11.835  -5.127 -59.859  0.00  0.00    +0.005 A 
ATOM     14  C   UNL     1     -13.921  -5.399 -61.684  0.00  0.00    +0.000 A 
ATOM     15  C   UNL     1     -12.704  -4.062 -60.092  0.00  0.00    +0.000 A 
ATOM     16  C   UNL     1     -13.749  -4.199 -61.003  0.00  0.00    +0.000 A 
ENDBRANCH  10  11
ENDBRANCH   1  10
TORSDOF 2
ENDMDL
MODEL 3
REMARK VINA RESULT:    -3.993      4.464      6.918
REMARK INTER + INTRA:          -4.566
REMARK INTER:                  -4.427
REMARK INTRA:                  -0.139
REMARK UNBOUND:                -0.107
REMARK  Name = 1550473
REMARK  2 active torsions:
REMARK  status: ('A' for Active; 'I' for Inactive)
REMARK    1  A    between atoms: N_1  and  C_4
REMARK    2  A    between atoms: C_4  and  C_5
REMARK                            x       y       z     vdW  Elec       q    Type
REMARK                         _______ _______ _______ _____ _____    ______ ____
ROOT
ATOM      1  N   UNL     1       7.836   8.426  37.098  0.00  0.00    -0.354 N 
ATOM      2  N   UNL     1       8.223   6.784  35.512  0.00  0.00    -0.372 N 
ATOM      3  N   UNL     1       6.185   7.837  35.543  0.00  0.00    -0.372 N 
ATOM      4  C   UNL     1       7.409   7.694  36.061  0.00  0.00    +0.166 C 
ATOM      5  H   UNL     1       8.764   8.248  37.464  0.00  0.00    +0.163 HD
ATOM      6  H   UNL     1       7.930   6.218  34.726  0.00  0.00    +0.159 HD
ATOM      7  H   UNL     1       9.167   6.640  35.850  0.00  0.00    +0.159 HD
ATOM      8  H   UNL     1       5.520   8.502  35.915  0.00  0.00    +0.159 HD
ATOM      9  H   UNL     1       5.869   7.272  34.764  0.00  0.00    +0.159 HD
ENDROOT
BRANCH   1  10
ATOM     10  C   UNL     1       7.047   9.481  37.734  0.00  0.00    +0.151 C 
BRANCH  10  11
ATOM     11  C   UNL     1       7.931  10.672  37.983  0.00  0.00    -0.028 A 
ATOM     12  C   UNL     1       7.511  11.703  38.837  0.00  0.00    +0.005 A 
ATOM     13  C   UNL     1       9.191  10.773  37.373  0.00  0.00    +0.005 A 
ATOM     14  C   UNL     1       8.344  12.795  39.092  0.00  0.00    +0.000 A 
ATOM     15  C   UNL     1      10.019  11.865  37.631  0.00  0.00    +0.000 A 
ATOM     16  C   UNL     1       9.596  12.875  38.492  0.00  0.00    +0.000 A 
ENDBRANCH  10  11
ENDBRANCH   1  10
TORSDOF 2
ENDMDL
MODEL 4
REMARK VINA RESULT:    -3.974     82.181     84.053
REMARK INTER + INTRA:          -4.545
REMARK INTER:                  -4.437
REMARK INTRA:                  -0.109
REMARK UNBOUND:                -0.107
REMARK  Name = 1550473
REMARK  2 active torsions:
REMARK  status: ('A' for Active; 'I' for Inactive)
REMARK    1  A    between atoms: N_1  and  C_4
REMARK    2  A    between atoms: C_4  and  C_5
REMARK                            x       y       z     vdW  Elec       q    Type
REMARK                         _______ _______ _______ _____ _____    ______ ____
ROOT
ATOM      1  N   UNL     1     -15.535 -19.586 -41.556  0.00  0.00    -0.354 N 
ATOM      2  N   UNL     1     -14.492 -18.464 -39.819  0.00  0.00    -0.372 N 
ATOM      3  N   UNL     1     -14.499 -20.758 -39.812  0.00  0.00    -0.372 N 
ATOM      4  C   UNL     1     -14.849 -19.613 -40.406  0.00  0.00    +0.166 C 
ATOM      5  H   UNL     1     -15.796 -18.685 -41.940  0.00  0.00    +0.163 HD
ATOM      6  H   UNL     1     -13.971 -18.453 -38.953  0.00  0.00    +0.159 HD
ATOM      7  H   UNL     1     -14.715 -17.565 -40.229  0.00  0.00    +0.159 HD
ATOM      8  H   UNL     1     -14.743 -21.660 -40.201  0.00  0.00    +0.159 HD
ATOM      9  H   UNL     1     -13.988 -20.768 -38.938  0.00  0.00    +0.159 HD
ENDROOT
BRANCH   1  10
ATOM     10  C   UNL     1     -15.925 -20.780 -42.304  0.00  0.00    +0.151 C 
BRANCH  10  11
ATOM     11  C   UNL     1     -16.741 -20.367 -43.498  0.00  0.00    -0.028 A 
ATOM     12  C   UNL     1     -17.914 -21.059 -43.832  0.00  0.00    +0.005 A 
ATOM     13  C   UNL     1     -16.349 -19.281 -44.296  0.00  0.00    +0.005 A 
ATOM     14  C   UNL     1     -18.688 -20.658 -44.924  0.00  0.00    +0.000 A 
ATOM     15  C   UNL     1     -17.125 -18.884 -45.385  0.00  0.00    +0.000 A 
ATOM     16  C   UNL     1     -18.295 -19.571 -45.697  0.00  0.00    +0.000 A 
ENDBRANCH  10  11
ENDBRANCH   1  10
TORSDOF 2
ENDMDL
MODEL 5
REMARK VINA RESULT:    -3.918     62.810     64.755
REMARK INTER + INTRA:          -4.483
REMARK INTER:                  -4.365
REMARK INTRA:                  -0.118
REMARK UNBOUND:                -0.107
REMARK  Name = 1550473
REMARK  2 active torsions:
REMARK  status: ('A' for Active; 'I' for Inactive)
REMARK    1  A    between atoms: N_1  and  C_4
REMARK    2  A    between atoms: C_4  and  C_5
REMARK                            x       y       z     vdW  Elec       q    Type
REMARK                         _______ _______ _______ _____ _____    ______ ____
ROOT
ATOM      1  N   UNL     1       3.258  -3.582 -32.442  0.00  0.00    -0.354 N 
ATOM      2  N   UNL     1       3.014  -4.536 -34.538  0.00  0.00    -0.372 N 
ATOM      3  N   UNL     1       2.582  -2.298 -34.281  0.00  0.00    -0.372 N 
ATOM      4  C   UNL     1       2.952  -3.463 -33.740  0.00  0.00    +0.166 C 
ATOM      5  H   UNL     1       3.503  -4.500 -32.087  0.00  0.00    +0.163 HD
ATOM      6  H   UNL     1       2.792  -4.477 -35.523  0.00  0.00    +0.159 HD
ATOM      7  H   UNL     1       3.303  -5.443 -34.190  0.00  0.00    +0.159 HD
ATOM      8  H   UNL     1       2.509  -1.452 -33.732  0.00  0.00    +0.159 HD
ATOM      9  H   UNL     1       2.344  -2.220 -35.262  0.00  0.00    +0.159 HD
ENDROOT
BRANCH   1  10
ATOM     10  C   UNL     1       3.275  -2.465 -31.500  0.00  0.00    +0.151 C 
BRANCH  10  11
ATOM     11  C   UNL     1       3.607  -2.983 -30.128  0.00  0.00    -0.028 A 
ATOM     12  C   UNL     1       3.200  -2.282 -28.983  0.00  0.00    +0.005 A 
ATOM     13  C   UNL     1       4.325  -4.179 -29.966  0.00  0.00    +0.005 A 
ATOM     14  C   UNL     1       3.483  -2.779 -27.709  0.00  0.00    +0.000 A 
ATOM     15  C   UNL     1       4.606  -4.671 -28.691  0.00  0.00    +0.000 A 
ATOM     16  C   UNL     1       4.183  -3.972 -27.563  0.00  0.00    +0.000 A 
ENDBRANCH  10  11
ENDBRANCH   1  10
TORSDOF 2
ENDMDL
MODEL 6
REMARK VINA RESULT:    -3.874     91.676     93.629
REMARK INTER + INTRA:          -4.434
REMARK INTER:                  -4.289
REMARK INTRA:                  -0.145
REMARK UNBOUND:                -0.107
REMARK  Name = 1550473
REMARK  2 active torsions:
REMARK  status: ('A' for Active; 'I' for Inactive)
REMARK    1  A    between atoms: N_1  and  C_4
REMARK    2  A    between atoms: C_4  and  C_5
REMARK                            x       y       z     vdW  Elec       q    Type
REMARK                         _______ _______ _______ _____ _____    ______ ____
ROOT
ATOM      1  N   UNL     1      -9.986  -9.219 -56.888  0.00  0.00    -0.354 N 
ATOM      2  N   UNL     1      -9.581  -9.677 -54.654  0.00  0.00    -0.372 N 
ATOM      3  N   UNL     1     -11.629 -10.209 -55.542  0.00  0.00    -0.372 N 
ATOM      4  C   UNL     1     -10.404  -9.700 -55.709  0.00  0.00    +0.166 C 
ATOM      5  H   UNL     1      -9.056  -8.819 -56.942  0.00  0.00    +0.163 HD
ATOM      6  H   UNL     1      -9.867 -10.035 -53.753  0.00  0.00    +0.159 HD
ATOM      7  H   UNL     1      -8.636  -9.318 -54.722  0.00  0.00    +0.159 HD
ATOM      8  H   UNL     1     -12.300 -10.250 -56.297  0.00  0.00    +0.159 HD
ATOM      9  H   UNL     1     -11.938 -10.562 -54.645  0.00  0.00    +0.159 HD
ENDROOT
BRANCH   1  10
ATOM     10  C   UNL     1     -10.784  -9.246 -58.112  0.00  0.00    +0.151 C 
BRANCH  10  11
ATOM     11  C   UNL     1     -10.976  -7.839 -58.604  0.00  0.00    -0.028 A 
ATOM     12  C   UNL     1     -11.806  -7.576 -59.704  0.00  0.00    +0.005 A 
ATOM     13  C   UNL     1     -10.335  -6.762 -57.972  0.00  0.00    +0.005 A 
ATOM     14  C   UNL     1     -12.008  -6.265 -60.144  0.00  0.00    +0.000 A 
ATOM     15  C   UNL     1     -10.539  -5.455 -58.415  0.00  0.00    +0.000 A 
ATOM     16  C   UNL     1     -11.377  -5.207 -59.499  0.00  0.00    +0.000 A 
ENDBRANCH  10  11
ENDBRANCH   1  10
TORSDOF 2
ENDMDL
MODEL 7
REMARK VINA RESULT:    -3.836     25.344     28.048
REMARK INTER + INTRA:          -4.391
REMARK INTER:                  -4.251
REMARK INTRA:                  -0.141
REMARK UNBOUND:                -0.107
REMARK  Name = 1550473
REMARK  2 active torsions:
REMARK  status: ('A' for Active; 'I' for Inactive)
REMARK    1  A    between atoms: N_1  and  C_4
REMARK    2  A    between atoms: C_4  and  C_5
REMARK                            x       y       z     vdW  Elec       q    Type
REMARK                         _______ _______ _______ _____ _____    ______ ____
ROOT
ATOM      1  N   UNL     1      -0.889  24.372  51.685  0.00  0.00    -0.354 N 
ATOM      2  N   UNL     1      -0.124  24.509  49.503  0.00  0.00    -0.372 N 
ATOM      3  N   UNL     1      -0.668  22.451  50.361  0.00  0.00    -0.372 N 
ATOM      4  C   UNL     1      -0.566  23.774  50.531  0.00  0.00    +0.166 C 
ATOM      5  H   UNL     1      -0.760  25.375  51.760  0.00  0.00    +0.163 HD
ATOM      6  H   UNL     1       0.124  24.085  48.619  0.00  0.00    +0.159 HD
ATOM      7  H   UNL     1      -0.040  25.516  49.566  0.00  0.00    +0.159 HD
ATOM      8  H   UNL     1      -0.989  21.840  51.100  0.00  0.00    +0.159 HD
ATOM      9  H   UNL     1      -0.413  22.008  49.488  0.00  0.00    +0.159 HD
ENDROOT
BRANCH   1  10
ATOM     10  C   UNL     1      -1.431  23.670  52.847  0.00  0.00    +0.151 C 
BRANCH  10  11
ATOM     11  C   UNL     1      -0.678  24.100  54.076  0.00  0.00    -0.028 A 
ATOM     12  C   UNL     1      -0.834  23.407  55.285  0.00  0.00    +0.005 A 
ATOM     13  C   UNL     1       0.198  25.196  54.036  0.00  0.00    +0.005 A 
ATOM     14  C   UNL     1      -0.112  23.787  56.419  0.00  0.00    +0.000 A 
ATOM     15  C   UNL     1       0.916  25.573  55.170  0.00  0.00    +0.000 A 
ATOM     16  C   UNL     1       0.763  24.867  56.361  0.00  0.00    +0.000 A 
ENDBRANCH  10  11
ENDBRANCH   1  10
TORSDOF 2
ENDMDL
MODEL 8
REMARK VINA RESULT:    -3.830      2.744      6.184
REMARK INTER + INTRA:          -4.384
REMARK INTER:                  -4.230
REMARK INTRA:                  -0.154
REMARK UNBOUND:                -0.107
REMARK  Name = 1550473
REMARK  2 active torsions:
REMARK  status: ('A' for Active; 'I' for Inactive)
REMARK    1  A    between atoms: N_1  and  C_4
REMARK    2  A    between atoms: C_4  and  C_5
REMARK                            x       y       z     vdW  Elec       q    Type
REMARK                         _______ _______ _______ _____ _____    ______ ____
ROOT
ATOM      1  N   UNL     1       7.273   8.136  34.710  0.00  0.00    -0.354 N 
ATOM      2  N   UNL     1       7.527   8.737  32.487  0.00  0.00    -0.372 N 
ATOM      3  N   UNL     1       9.399   8.505  33.795  0.00  0.00    -0.372 N 
ATOM      4  C   UNL     1       8.067   8.455  33.680  0.00  0.00    +0.166 C 
ATOM      5  H   UNL     1       6.270   8.145  34.565  0.00  0.00    +0.163 HD
ATOM      6  H   UNL     1       8.102   8.978  31.691  0.00  0.00    +0.159 HD
ATOM      7  H   UNL     1       6.527   8.701  32.334  0.00  0.00    +0.159 HD
ATOM      8  H   UNL     1       9.868   8.309  34.669  0.00  0.00    +0.159 HD
ATOM      9  H   UNL     1       9.990   8.756  33.013  0.00  0.00    +0.159 HD
ENDROOT
BRANCH   1  10
ATOM     10  C   UNL     1       7.763   7.760  36.035  0.00  0.00    +0.151 C 
BRANCH  10  11
ATOM     11  C   UNL     1       7.677   8.953  36.946  0.00  0.00    -0.028 A 
ATOM     12  C   UNL     1       8.758   9.838  37.064  0.00  0.00    +0.005 A 
ATOM     13  C   UNL     1       6.515   9.207  37.691  0.00  0.00    +0.005 A 
ATOM     14  C   UNL     1       8.668  10.963  37.888  0.00  0.00    +0.000 A 
ATOM     15  C   UNL     1       6.429  10.330  38.513  0.00  0.00    +0.000 A 
ATOM     16  C   UNL     1       7.505  11.209  38.609  0.00  0.00    +0.000 A 
ENDBRANCH  10  11
ENDBRANCH   1  10
TORSDOF 2
ENDMDL
MODEL 9
REMARK VINA RESULT:    -3.788     76.920     78.092
REMARK INTER + INTRA:          -4.338
REMARK INTER:                  -4.196
REMARK INTRA:                  -0.142
REMARK UNBOUND:                -0.107
REMARK  Name = 1550473
REMARK  2 active torsions:
REMARK  status: ('A' for Active; 'I' for Inactive)
REMARK    1  A    between atoms: N_1  and  C_4
REMARK    2  A    between atoms: C_4  and  C_5
REMARK                            x       y       z     vdW  Elec       q    Type
REMARK                         _______ _______ _______ _____ _____    ______ ____
ROOT
ATOM      1  N   UNL     1     -20.589 -17.431 -34.250  0.00  0.00    -0.354 N 
ATOM      2  N   UNL     1     -22.092 -15.669 -34.237  0.00  0.00    -0.372 N 
ATOM      3  N   UNL     1     -22.639 -17.601 -33.128  0.00  0.00    -0.372 N 
ATOM      4  C   UNL     1     -21.765 -16.914 -33.870  0.00  0.00    +0.166 C 
ATOM      5  H   UNL     1     -19.983 -16.869 -34.837  0.00  0.00    +0.163 HD
ATOM      6  H   UNL     1     -22.971 -15.251 -33.963  0.00  0.00    +0.159 HD
ATOM      7  H   UNL     1     -21.465 -15.093 -34.786  0.00  0.00    +0.159 HD
ATOM      8  H   UNL     1     -22.455 -18.548 -32.824  0.00  0.00    +0.159 HD
ATOM      9  H   UNL     1     -23.529 -17.205 -32.854  0.00  0.00    +0.159 HD
ENDROOT
BRANCH   1  10
ATOM     10  C   UNL     1     -20.114 -18.757 -33.859  0.00  0.00    +0.151 C 
BRANCH  10  11
ATOM     11  C   UNL     1     -19.571 -19.461 -35.071  0.00  0.00    -0.028 A 
ATOM     12  C   UNL     1     -19.668 -18.872 -36.340  0.00  0.00    +0.005 A 
ATOM     13  C   UNL     1     -18.953 -20.716 -34.957  0.00  0.00    +0.005 A 
ATOM     14  C   UNL     1     -19.136 -19.512 -37.462  0.00  0.00    +0.000 A 
ATOM     15  C   UNL     1     -18.424 -21.352 -36.080  0.00  0.00    +0.000 A 
ATOM     16  C   UNL     1     -18.514 -20.749 -37.332  0.00  0.00    +0.000 A 
ENDBRANCH  10  11
ENDBRANCH   1  10
TORSDOF 2
ENDMDL
