MODEL 1
REMARK VINA RESULT:    -5.156      0.000      0.000
REMARK INTER + INTRA:          -5.880
REMARK INTER:                  -5.759
REMARK INTRA:                  -0.121
REMARK UNBOUND:                -0.121
REMARK  Name = 1550473
REMARK  2 active torsions:
REMARK  status: ('A' for Active; 'I' for Inactive)
REMARK    1  A    between atoms: N_1  and  C_4
REMARK    2  A    between atoms: C_4  and  C_5
REMARK                            x       y       z     vdW  Elec       q    Type
REMARK                         _______ _______ _______ _____ _____    ______ ____
ROOT
ATOM      1  N   UNL     1     -10.281  -0.018   6.493  0.00  0.00    -0.354 N 
ATOM      2  N   UNL     1     -12.531  -0.259   6.986  0.00  0.00    -0.372 N 
ATOM      3  N   UNL     1     -11.928   0.589   4.941  0.00  0.00    -0.372 N 
ATOM      4  C   UNL     1     -11.565   0.107   6.134  0.00  0.00    +0.166 C 
ATOM      5  H   UNL     1     -10.072  -0.362   7.423  0.00  0.00    +0.163 HD
ATOM      6  H   UNL     1     -13.509  -0.180   6.741  0.00  0.00    +0.159 HD
ATOM      7  H   UNL     1     -12.318  -0.646   7.897  0.00  0.00    +0.159 HD
ATOM      8  H   UNL     1     -11.248   0.889   4.255  0.00  0.00    +0.159 HD
ATOM      9  H   UNL     1     -12.902   0.688   4.682  0.00  0.00    +0.159 HD
ENDROOT
BRANCH   1  10
ATOM     10  C   UNL     1      -9.153   0.302   5.619  0.00  0.00    +0.151 C 
BRANCH  10  11
ATOM     11  C   UNL     1      -7.878   0.216   6.411  0.00  0.00    -0.028 A 
ATOM     12  C   UNL     1      -7.895   0.367   7.806  0.00  0.00    +0.005 A 
ATOM     13  C   UNL     1      -6.650  -0.023   5.774  0.00  0.00    +0.005 A 
ATOM     14  C   UNL     1      -6.715   0.257   8.545  0.00  0.00    +0.000 A 
ATOM     15  C   UNL     1      -5.474  -0.131   6.516  0.00  0.00    +0.000 A 
ATOM     16  C   UNL     1      -5.507   0.006   7.902  0.00  0.00    +0.000 A 
ENDBRANCH  10  11
ENDBRANCH   1  10
TORSDOF 2
ENDMDL
MODEL 2
REMARK VINA RESULT:    -4.976     14.437     15.422
REMARK INTER + INTRA:          -5.679
REMARK INTER:                  -5.554
REMARK INTRA:                  -0.125
REMARK UNBOUND:                -0.121
REMARK  Name = 1550473
REMARK  2 active torsions:
REMARK  status: ('A' for Active; 'I' for Inactive)
REMARK    1  A    between atoms: N_1  and  C_4
REMARK    2  A    between atoms: C_4  and  C_5
REMARK                            x       y       z     vdW  Elec       q    Type
REMARK                         _______ _______ _______ _____ _____    ______ ____
ROOT
ATOM      1  N   UNL     1     -12.691   4.558  -6.936  0.00  0.00    -0.354 N 
ATOM      2  N   UNL     1     -14.833   3.677  -6.936  0.00  0.00    -0.372 N 
ATOM      3  N   UNL     1     -14.388   5.510  -8.243  0.00  0.00    -0.372 N 
ATOM      4  C   UNL     1     -13.957   4.590  -7.374  0.00  0.00    +0.166 C 
ATOM      5  H   UNL     1     -12.435   3.853  -6.254  0.00  0.00    +0.163 HD
ATOM      6  H   UNL     1     -15.794   3.674  -7.251  0.00  0.00    +0.159 HD
ATOM      7  H   UNL     1     -14.563   2.946  -6.290  0.00  0.00    +0.159 HD
ATOM      8  H   UNL     1     -13.778   6.230  -8.606  0.00  0.00    +0.159 HD
ATOM      9  H   UNL     1     -15.349   5.531  -8.561  0.00  0.00    +0.159 HD
ENDROOT
BRANCH   1  10
ATOM     10  C   UNL     1     -11.646   5.473  -7.391  0.00  0.00    +0.151 C 
BRANCH  10  11
ATOM     11  C   UNL     1     -10.455   4.673  -7.842  0.00  0.00    -0.028 A 
ATOM     12  C   UNL     1      -9.863   4.919  -9.090  0.00  0.00    +0.005 A 
ATOM     13  C   UNL     1      -9.910   3.671  -7.024  0.00  0.00    +0.005 A 
ATOM     14  C   UNL     1      -8.738   4.196  -9.496  0.00  0.00    +0.000 A 
ATOM     15  C   UNL     1      -8.788   2.952  -7.434  0.00  0.00    +0.000 A 
ATOM     16  C   UNL     1      -8.201   3.216  -8.669  0.00  0.00    +0.000 A 
ENDBRANCH  10  11
ENDBRANCH   1  10
TORSDOF 2
ENDMDL
MODEL 3
REMARK VINA RESULT:    -4.884      1.924      2.955
REMARK INTER + INTRA:          -5.576
REMARK INTER:                  -5.434
REMARK INTRA:                  -0.142
REMARK UNBOUND:                -0.121
REMARK  Name = 1550473
REMARK  2 active torsions:
REMARK  status: ('A' for Active; 'I' for Inactive)
REMARK    1  A    between atoms: N_1  and  C_4
REMARK    2  A    between atoms: C_4  and  C_5
REMARK                            x       y       z     vdW  Elec       q    Type
REMARK                         _______ _______ _______ _____ _____    ______ ____
ROOT
ATOM      1  N   UNL     1      -7.473  -0.098   5.778  0.00  0.00    -0.354 N 
ATOM      2  N   UNL     1      -9.654   0.632   5.507  0.00  0.00    -0.372 N 
ATOM      3  N   UNL     1      -7.946   2.155   5.341  0.00  0.00    -0.372 N 
ATOM      4  C   UNL     1      -8.342   0.894   5.544  0.00  0.00    +0.166 C 
ATOM      5  H   UNL     1      -7.839  -1.027   5.954  0.00  0.00    +0.163 HD
ATOM      6  H   UNL     1     -10.334   1.359   5.329  0.00  0.00    +0.159 HD
ATOM      7  H   UNL     1     -10.014  -0.306   5.637  0.00  0.00    +0.159 HD
ATOM      8  H   UNL     1      -6.971   2.420   5.362  0.00  0.00    +0.159 HD
ATOM      9  H   UNL     1      -8.612   2.899   5.173  0.00  0.00    +0.159 HD
ENDROOT
BRANCH   1  10
ATOM     10  C   UNL     1      -6.021   0.071   5.786  0.00  0.00    +0.151 C 
BRANCH  10  11
ATOM     11  C   UNL     1      -5.577   0.437   7.175  0.00  0.00    -0.028 A 
ATOM     12  C   UNL     1      -5.995  -0.319   8.279  0.00  0.00    +0.005 A 
ATOM     13  C   UNL     1      -4.732   1.537   7.393  0.00  0.00    +0.005 A 
ATOM     14  C   UNL     1      -5.559   0.002   9.566  0.00  0.00    +0.000 A 
ATOM     15  C   UNL     1      -4.299   1.855   8.680  0.00  0.00    +0.000 A 
ATOM     16  C   UNL     1      -4.710   1.086   9.766  0.00  0.00    +0.000 A 
ENDBRANCH  10  11
ENDBRANCH   1  10
TORSDOF 2
ENDMDL
MODEL 4
REMARK VINA RESULT:    -4.694     19.046     19.782
REMARK INTER + INTRA:          -5.364
REMARK INTER:                  -5.228
REMARK INTRA:                  -0.136
REMARK UNBOUND:                -0.121
REMARK  Name = 1550473
REMARK  2 active torsions:
REMARK  status: ('A' for Active; 'I' for Inactive)
REMARK    1  A    between atoms: N_1  and  C_4
REMARK    2  A    between atoms: C_4  and  C_5
REMARK                            x       y       z     vdW  Elec       q    Type
REMARK                         _______ _______ _______ _____ _____    ______ ____
ROOT
ATOM      1  N   UNL     1       7.814   0.294  16.563  0.00  0.00    -0.354 N 
ATOM      2  N   UNL     1       8.086  -0.338  18.774  0.00  0.00    -0.372 N 
ATOM      3  N   UNL     1       9.280   1.451  17.977  0.00  0.00    -0.372 N 
ATOM      4  C   UNL     1       8.393   0.475  17.757  0.00  0.00    +0.166 C 
ATOM      5  H   UNL     1       7.172  -0.483  16.452  0.00  0.00    +0.163 HD
ATOM      6  H   UNL     1       8.504  -0.224  19.687  0.00  0.00    +0.159 HD
ATOM      7  H   UNL     1       7.410  -1.086  18.673  0.00  0.00    +0.159 HD
ATOM      8  H   UNL     1       9.560   2.095  17.249  0.00  0.00    +0.159 HD
ATOM      9  H   UNL     1       9.719   1.575  18.881  0.00  0.00    +0.159 HD
ENDROOT
BRANCH   1  10
ATOM     10  C   UNL     1       8.039   1.157  15.405  0.00  0.00    +0.151 C 
BRANCH  10  11
ATOM     11  C   UNL     1       8.627   0.339  14.289  0.00  0.00    -0.028 A 
ATOM     12  C   UNL     1       8.903   0.925  13.045  0.00  0.00    +0.005 A 
ATOM     13  C   UNL     1       8.916  -1.023  14.471  0.00  0.00    +0.005 A 
ATOM     14  C   UNL     1       9.477   0.172  12.017  0.00  0.00    +0.000 A 
ATOM     15  C   UNL     1       9.489  -1.771  13.442  0.00  0.00    +0.000 A 
ATOM     16  C   UNL     1       9.771  -1.173  12.217  0.00  0.00    +0.000 A 
ENDBRANCH  10  11
ENDBRANCH   1  10
TORSDOF 2
ENDMDL
MODEL 5
REMARK VINA RESULT:    -4.615     13.323     14.402
REMARK INTER + INTRA:          -5.275
REMARK INTER:                  -5.174
REMARK INTRA:                  -0.101
REMARK UNBOUND:                -0.121
REMARK  Name = 1550473
REMARK  2 active torsions:
REMARK  status: ('A' for Active; 'I' for Inactive)
REMARK    1  A    between atoms: N_1  and  C_4
REMARK    2  A    between atoms: C_4  and  C_5
REMARK                            x       y       z     vdW  Elec       q    Type
REMARK                         _______ _______ _______ _____ _____    ______ ____
ROOT
ATOM      1  N   UNL     1      -3.775   8.981  -4.667  0.00  0.00    -0.354 N 
ATOM      2  N   UNL     1      -2.081  10.504  -5.083  0.00  0.00    -0.372 N 
ATOM      3  N   UNL     1      -2.363   8.739  -6.522  0.00  0.00    -0.372 N 
ATOM      4  C   UNL     1      -2.750   9.396  -5.423  0.00  0.00    +0.166 C 
ATOM      5  H   UNL     1      -3.999   9.506  -3.830  0.00  0.00    +0.163 HD
ATOM      6  H   UNL     1      -1.306  10.844  -5.636  0.00  0.00    +0.159 HD
ATOM      7  H   UNL     1      -2.337  11.053  -4.272  0.00  0.00    +0.159 HD
ATOM      8  H   UNL     1      -2.823   7.893  -6.829  0.00  0.00    +0.159 HD
ATOM      9  H   UNL     1      -1.582   9.057  -7.082  0.00  0.00    +0.159 HD
ENDROOT
BRANCH   1  10
ATOM     10  C   UNL     1      -4.603   7.817  -4.979  0.00  0.00    +0.151 C 
BRANCH  10  11
ATOM     11  C   UNL     1      -5.389   7.432  -3.757  0.00  0.00    -0.028 A 
ATOM     12  C   UNL     1      -6.785   7.568  -3.736  0.00  0.00    +0.005 A 
ATOM     13  C   UNL     1      -4.745   6.924  -2.618  0.00  0.00    +0.005 A 
ATOM     14  C   UNL     1      -7.519   7.181  -2.612  0.00  0.00    +0.000 A 
ATOM     15  C   UNL     1      -5.481   6.540  -1.497  0.00  0.00    +0.000 A 
ATOM     16  C   UNL     1      -6.868   6.667  -1.495  0.00  0.00    +0.000 A 
ENDBRANCH  10  11
ENDBRANCH   1  10
TORSDOF 2
ENDMDL
MODEL 6
REMARK VINA RESULT:    -4.584      2.333      3.726
REMARK INTER + INTRA:          -5.241
REMARK INTER:                  -5.063
REMARK INTRA:                  -0.178
REMARK UNBOUND:                -0.121
REMARK  Name = 1550473
REMARK  2 active torsions:
REMARK  status: ('A' for Active; 'I' for Inactive)
REMARK    1  A    between atoms: N_1  and  C_4
REMARK    2  A    between atoms: C_4  and  C_5
REMARK                            x       y       z     vdW  Elec       q    Type
REMARK                         _______ _______ _______ _____ _____    ______ ____
ROOT
ATOM      1  N   UNL     1      -6.990   0.439   5.373  0.00  0.00    -0.354 N 
ATOM      2  N   UNL     1      -9.099   1.389   5.275  0.00  0.00    -0.372 N 
ATOM      3  N   UNL     1      -8.474   0.270   7.178  0.00  0.00    -0.372 N 
ATOM      4  C   UNL     1      -8.174   0.692   5.945  0.00  0.00    +0.166 C 
ATOM      5  H   UNL     1      -6.835   0.760   4.424  0.00  0.00    +0.163 HD
ATOM      6  H   UNL     1     -10.001   1.599   5.683  0.00  0.00    +0.159 HD
ATOM      7  H   UNL     1      -8.925   1.749   4.345  0.00  0.00    +0.159 HD
ATOM      8  H   UNL     1      -7.822  -0.266   7.734  0.00  0.00    +0.159 HD
ATOM      9  H   UNL     1      -9.375   0.460   7.599  0.00  0.00    +0.159 HD
ENDROOT
BRANCH   1  10
ATOM     10  C   UNL     1      -5.894  -0.266   6.037  0.00  0.00    +0.151 C 
BRANCH  10  11
ATOM     11  C   UNL     1      -4.942   0.743   6.617  0.00  0.00    -0.028 A 
ATOM     12  C   UNL     1      -4.007   1.393   5.797  0.00  0.00    +0.005 A 
ATOM     13  C   UNL     1      -4.972   1.058   7.984  0.00  0.00    +0.005 A 
ATOM     14  C   UNL     1      -3.142   2.352   6.330  0.00  0.00    +0.000 A 
ATOM     15  C   UNL     1      -4.106   2.015   8.512  0.00  0.00    +0.000 A 
ATOM     16  C   UNL     1      -3.193   2.664   7.684  0.00  0.00    +0.000 A 
ENDBRANCH  10  11
ENDBRANCH   1  10
TORSDOF 2
ENDMDL
MODEL 7
REMARK VINA RESULT:    -4.570     13.674     14.972
REMARK INTER + INTRA:          -5.225
REMARK INTER:                  -5.073
REMARK INTRA:                  -0.152
REMARK UNBOUND:                -0.121
REMARK  Name = 1550473
REMARK  2 active torsions:
REMARK  status: ('A' for Active; 'I' for Inactive)
REMARK    1  A    between atoms: N_1  and  C_4
REMARK    2  A    between atoms: C_4  and  C_5
REMARK                            x       y       z     vdW  Elec       q    Type
REMARK                         _______ _______ _______ _____ _____    ______ ____
ROOT
ATOM      1  N   UNL     1     -11.635   5.947  -6.291  0.00  0.00    -0.354 N 
ATOM      2  N   UNL     1     -11.511   7.933  -5.105  0.00  0.00    -0.372 N 
ATOM      3  N   UNL     1     -10.919   5.977  -4.060  0.00  0.00    -0.372 N 
ATOM      4  C   UNL     1     -11.355   6.604  -5.157  0.00  0.00    +0.166 C 
ATOM      5  H   UNL     1     -11.991   6.477  -7.079  0.00  0.00    +0.163 HD
ATOM      6  H   UNL     1     -11.305   8.456  -4.264  0.00  0.00    +0.159 HD
ATOM      7  H   UNL     1     -11.823   8.465  -5.908  0.00  0.00    +0.159 HD
ATOM      8  H   UNL     1     -10.786   4.975  -4.033  0.00  0.00    +0.159 HD
ATOM      9  H   UNL     1     -10.718   6.482  -3.206  0.00  0.00    +0.159 HD
ENDROOT
BRANCH   1  10
ATOM     10  C   UNL     1     -11.449   4.509  -6.470  0.00  0.00    +0.151 C 
BRANCH  10  11
ATOM     11  C   UNL     1     -10.335   4.276  -7.453  0.00  0.00    -0.028 A 
ATOM     12  C   UNL     1      -9.347   3.314  -7.196  0.00  0.00    +0.005 A 
ATOM     13  C   UNL     1     -10.265   5.011  -8.647  0.00  0.00    +0.005 A 
ATOM     14  C   UNL     1      -8.330   3.077  -8.124  0.00  0.00    +0.000 A 
ATOM     15  C   UNL     1      -9.247   4.772  -9.570  0.00  0.00    +0.000 A 
ATOM     16  C   UNL     1      -8.281   3.803  -9.309  0.00  0.00    +0.000 A 
ENDBRANCH  10  11
ENDBRANCH   1  10
TORSDOF 2
ENDMDL
MODEL 8
REMARK VINA RESULT:    -4.569      2.741      5.227
REMARK INTER + INTRA:          -5.224
REMARK INTER:                  -5.088
REMARK INTRA:                  -0.136
REMARK UNBOUND:                -0.121
REMARK  Name = 1550473
REMARK  2 active torsions:
REMARK  status: ('A' for Active; 'I' for Inactive)
REMARK    1  A    between atoms: N_1  and  C_4
REMARK    2  A    between atoms: C_4  and  C_5
REMARK                            x       y       z     vdW  Elec       q    Type
REMARK                         _______ _______ _______ _____ _____    ______ ____
ROOT
ATOM      1  N   UNL     1      -8.508   0.712   5.050  0.00  0.00    -0.354 N 
ATOM      2  N   UNL     1      -7.580   2.786   5.500  0.00  0.00    -0.372 N 
ATOM      3  N   UNL     1      -7.633   1.209   7.166  0.00  0.00    -0.372 N 
ATOM      4  C   UNL     1      -7.913   1.555   5.905  0.00  0.00    +0.166 C 
ATOM      5  H   UNL     1      -8.720   1.045   4.116  0.00  0.00    +0.163 HD
ATOM      6  H   UNL     1      -7.128   3.443   6.122  0.00  0.00    +0.159 HD
ATOM      7  H   UNL     1      -7.753   3.100   4.553  0.00  0.00    +0.159 HD
ATOM      8  H   UNL     1      -7.863   0.296   7.535  0.00  0.00    +0.159 HD
ATOM      9  H   UNL     1      -7.190   1.856   7.807  0.00  0.00    +0.159 HD
ENDROOT
BRANCH   1  10
ATOM     10  C   UNL     1      -8.862  -0.668   5.375  0.00  0.00    +0.151 C 
BRANCH  10  11
ATOM     11  C   UNL     1     -10.332  -0.869   5.130  0.00  0.00    -0.028 A 
ATOM     12  C   UNL     1     -11.249   0.148   5.432  0.00  0.00    +0.005 A 
ATOM     13  C   UNL     1     -10.813  -2.072   4.591  0.00  0.00    +0.005 A 
ATOM     14  C   UNL     1     -12.612  -0.027   5.177  0.00  0.00    +0.000 A 
ATOM     15  C   UNL     1     -12.174  -2.243   4.339  0.00  0.00    +0.000 A 
ATOM     16  C   UNL     1     -13.073  -1.219   4.630  0.00  0.00    +0.000 A 
ENDBRANCH  10  11
ENDBRANCH   1  10
TORSDOF 2
ENDMDL
MODEL 9
REMARK VINA RESULT:    -4.567     15.612     17.023
REMARK INTER + INTRA:          -5.222
REMARK INTER:                  -5.066
REMARK INTRA:                  -0.156
REMARK UNBOUND:                -0.121
REMARK  Name = 1550473
REMARK  2 active torsions:
REMARK  status: ('A' for Active; 'I' for Inactive)
REMARK    1  A    between atoms: N_1  and  C_4
REMARK    2  A    between atoms: C_4  and  C_5
REMARK                            x       y       z     vdW  Elec       q    Type
REMARK                         _______ _______ _______ _____ _____    ______ ____
ROOT
ATOM      1  N   UNL     1      -5.913   4.639 -10.267  0.00  0.00    -0.354 N 
ATOM      2  N   UNL     1      -4.189   6.166 -10.018  0.00  0.00    -0.372 N 
ATOM      3  N   UNL     1      -4.131   4.218  -8.805  0.00  0.00    -0.372 N 
ATOM      4  C   UNL     1      -4.755   4.996  -9.696  0.00  0.00    +0.166 C 
ATOM      5  H   UNL     1      -6.351   5.286 -10.913  0.00  0.00    +0.163 HD
ATOM      6  H   UNL     1      -3.314   6.460  -9.606  0.00  0.00    +0.159 HD
ATOM      7  H   UNL     1      -4.606   6.790 -10.698  0.00  0.00    +0.159 HD
ATOM      8  H   UNL     1      -4.508   3.326  -8.516  0.00  0.00    +0.159 HD
ATOM      9  H   UNL     1      -3.260   4.501  -8.373  0.00  0.00    +0.159 HD
ENDROOT
BRANCH   1  10
ATOM     10  C   UNL     1      -6.584   3.363 -10.027  0.00  0.00    +0.151 C 
BRANCH  10  11
ATOM     11  C   UNL     1      -7.857   3.613  -9.266  0.00  0.00    -0.028 A 
ATOM     12  C   UNL     1      -8.118   2.929  -8.070  0.00  0.00    +0.005 A 
ATOM     13  C   UNL     1      -8.804   4.537  -9.734  0.00  0.00    +0.005 A 
ATOM     14  C   UNL     1      -9.286   3.183  -7.348  0.00  0.00    +0.000 A 
ATOM     15  C   UNL     1      -9.970   4.787  -9.011  0.00  0.00    +0.000 A 
ATOM     16  C   UNL     1     -10.210   4.112  -7.816  0.00  0.00    +0.000 A 
ENDBRANCH  10  11
ENDBRANCH   1  10
TORSDOF 2
ENDMDL
