MODEL 1
REMARK VINA RESULT:    -5.206      0.000      0.000
REMARK INTER + INTRA:          -5.990
REMARK INTER:                  -5.814
REMARK INTRA:                  -0.176
REMARK UNBOUND:                -0.176
REMARK  Name = 1550473
REMARK  2 active torsions:
REMARK  status: ('A' for Active; 'I' for Inactive)
REMARK    1  A    between atoms: N_1  and  C_4
REMARK    2  A    between atoms: C_4  and  C_5
REMARK                            x       y       z     vdW  Elec       q    Type
REMARK                         _______ _______ _______ _____ _____    ______ ____
ROOT
ATOM      1  N   UNL     1      -8.507   4.791   4.366  0.00  0.00    -0.354 N 
ATOM      2  N   UNL     1      -8.162   2.891   5.644  0.00  0.00    -0.372 N 
ATOM      3  N   UNL     1      -9.687   4.448   6.361  0.00  0.00    -0.372 N 
ATOM      4  C   UNL     1      -8.789   4.057   5.450  0.00  0.00    +0.166 C 
ATOM      5  H   UNL     1      -7.794   4.454   3.729  0.00  0.00    +0.163 HD
ATOM      6  H   UNL     1      -8.357   2.313   6.451  0.00  0.00    +0.159 HD
ATOM      7  H   UNL     1      -7.484   2.534   4.982  0.00  0.00    +0.159 HD
ATOM      8  H   UNL     1     -10.191   5.320   6.276  0.00  0.00    +0.159 HD
ATOM      9  H   UNL     1      -9.888   3.889   7.181  0.00  0.00    +0.159 HD
ENDROOT
BRANCH   1  10
ATOM     10  C   UNL     1      -9.172   6.050   4.034  0.00  0.00    +0.151 C 
BRANCH  10  11
ATOM     11  C   UNL     1      -8.241   7.192   4.336  0.00  0.00    -0.028 A 
ATOM     12  C   UNL     1      -7.394   7.702   3.341  0.00  0.00    +0.005 A 
ATOM     13  C   UNL     1      -8.206   7.772   5.613  0.00  0.00    +0.005 A 
ATOM     14  C   UNL     1      -6.551   8.782   3.612  0.00  0.00    +0.000 A 
ATOM     15  C   UNL     1      -7.362   8.850   5.880  0.00  0.00    +0.000 A 
ATOM     16  C   UNL     1      -6.537   9.356   4.879  0.00  0.00    +0.000 A 
ENDBRANCH  10  11
ENDBRANCH   1  10
TORSDOF 2
ENDMDL
MODEL 2
REMARK VINA RESULT:    -5.171      2.800      4.824
REMARK INTER + INTRA:          -5.951
REMARK INTER:                  -5.821
REMARK INTRA:                  -0.130
REMARK UNBOUND:                -0.176
REMARK  Name = 1550473
REMARK  2 active torsions:
REMARK  status: ('A' for Active; 'I' for Inactive)
REMARK    1  A    between atoms: N_1  and  C_4
REMARK    2  A    between atoms: C_4  and  C_5
REMARK                            x       y       z     vdW  Elec       q    Type
REMARK                         _______ _______ _______ _____ _____    ______ ____
ROOT
ATOM      1  N   UNL     1      -7.526   8.197   3.922  0.00  0.00    -0.354 N 
ATOM      2  N   UNL     1      -5.541   8.964   3.007  0.00  0.00    -0.372 N 
ATOM      3  N   UNL     1      -6.343   9.962   4.911  0.00  0.00    -0.372 N 
ATOM      4  C   UNL     1      -6.483   9.038   3.955  0.00  0.00    +0.166 C 
ATOM      5  H   UNL     1      -7.590   7.539   3.154  0.00  0.00    +0.163 HD
ATOM      6  H   UNL     1      -4.742   9.583   3.007  0.00  0.00    +0.159 HD
ATOM      7  H   UNL     1      -5.584   8.275   2.266  0.00  0.00    +0.159 HD
ATOM      8  H   UNL     1      -7.022  10.073   5.652  0.00  0.00    +0.159 HD
ATOM      9  H   UNL     1      -5.556  10.598   4.922  0.00  0.00    +0.159 HD
ENDROOT
BRANCH   1  10
ATOM     10  C   UNL     1      -8.578   8.159   4.937  0.00  0.00    +0.151 C 
BRANCH  10  11
ATOM     11  C   UNL     1      -8.910   6.726   5.246  0.00  0.00    -0.028 A 
ATOM     12  C   UNL     1     -10.235   6.271   5.178  0.00  0.00    +0.005 A 
ATOM     13  C   UNL     1      -7.904   5.815   5.603  0.00  0.00    +0.005 A 
ATOM     14  C   UNL     1     -10.541   4.933   5.436  0.00  0.00    +0.000 A 
ATOM     15  C   UNL     1      -8.213   4.479   5.861  0.00  0.00    +0.000 A 
ATOM     16  C   UNL     1      -9.531   4.038   5.775  0.00  0.00    +0.000 A 
ENDBRANCH  10  11
ENDBRANCH   1  10
TORSDOF 2
ENDMDL
MODEL 3
REMARK VINA RESULT:    -5.141      1.908      2.374
REMARK INTER + INTRA:          -5.918
REMARK INTER:                  -5.789
REMARK INTRA:                  -0.129
REMARK UNBOUND:                -0.176
REMARK  Name = 1550473
REMARK  2 active torsions:
REMARK  status: ('A' for Active; 'I' for Inactive)
REMARK    1  A    between atoms: N_1  and  C_4
REMARK    2  A    between atoms: C_4  and  C_5
REMARK                            x       y       z     vdW  Elec       q    Type
REMARK                         _______ _______ _______ _____ _____    ______ ____
ROOT
ATOM      1  N   UNL     1      -7.219   4.420   4.002  0.00  0.00    -0.354 N 
ATOM      2  N   UNL     1      -8.704   2.782   3.310  0.00  0.00    -0.372 N 
ATOM      3  N   UNL     1      -7.239   3.669   1.782  0.00  0.00    -0.372 N 
ATOM      4  C   UNL     1      -7.710   3.635   3.033  0.00  0.00    +0.166 C 
ATOM      5  H   UNL     1      -7.640   4.368   4.923  0.00  0.00    +0.163 HD
ATOM      6  H   UNL     1      -9.092   2.175   2.600  0.00  0.00    +0.159 HD
ATOM      7  H   UNL     1      -9.091   2.700   4.242  0.00  0.00    +0.159 HD
ATOM      8  H   UNL     1      -6.493   4.294   1.507  0.00  0.00    +0.159 HD
ATOM      9  H   UNL     1      -7.622   3.077   1.055  0.00  0.00    +0.159 HD
ENDROOT
BRANCH   1  10
ATOM     10  C   UNL     1      -6.101   5.344   3.818  0.00  0.00    +0.151 C 
BRANCH  10  11
ATOM     11  C   UNL     1      -6.467   6.680   4.404  0.00  0.00    -0.028 A 
ATOM     12  C   UNL     1      -6.067   7.867   3.774  0.00  0.00    +0.005 A 
ATOM     13  C   UNL     1      -7.218   6.765   5.586  0.00  0.00    +0.005 A 
ATOM     14  C   UNL     1      -6.432   9.108   4.301  0.00  0.00    +0.000 A 
ATOM     15  C   UNL     1      -7.580   8.006   6.110  0.00  0.00    +0.000 A 
ATOM     16  C   UNL     1      -7.189   9.177   5.466  0.00  0.00    +0.000 A 
ENDBRANCH  10  11
ENDBRANCH   1  10
TORSDOF 2
ENDMDL
MODEL 4
REMARK VINA RESULT:    -5.138      2.743      4.828
REMARK INTER + INTRA:          -5.915
REMARK INTER:                  -5.770
REMARK INTRA:                  -0.144
REMARK UNBOUND:                -0.176
REMARK  Name = 1550473
REMARK  2 active torsions:
REMARK  status: ('A' for Active; 'I' for Inactive)
REMARK    1  A    between atoms: N_1  and  C_4
REMARK    2  A    between atoms: C_4  and  C_5
REMARK                            x       y       z     vdW  Elec       q    Type
REMARK                         _______ _______ _______ _____ _____    ______ ____
ROOT
ATOM      1  N   UNL     1      -6.678   7.569   4.737  0.00  0.00    -0.354 N 
ATOM      2  N   UNL     1      -5.886   9.125   3.216  0.00  0.00    -0.372 N 
ATOM      3  N   UNL     1      -6.834   9.867   5.169  0.00  0.00    -0.372 N 
ATOM      4  C   UNL     1      -6.472   8.845   4.386  0.00  0.00    +0.166 C 
ATOM      5  H   UNL     1      -6.409   6.840   4.086  0.00  0.00    +0.163 HD
ATOM      6  H   UNL     1      -5.714  10.078   2.925  0.00  0.00    +0.159 HD
ATOM      7  H   UNL     1      -5.576   8.394   2.587  0.00  0.00    +0.159 HD
ATOM      8  H   UNL     1      -7.287   9.723   6.062  0.00  0.00    +0.159 HD
ATOM      9  H   UNL     1      -6.681  10.828   4.891  0.00  0.00    +0.159 HD
ENDROOT
BRANCH   1  10
ATOM     10  C   UNL     1      -7.260   7.155   6.013  0.00  0.00    +0.151 C 
BRANCH  10  11
ATOM     11  C   UNL     1      -8.432   6.251   5.748  0.00  0.00    -0.028 A 
ATOM     12  C   UNL     1      -8.339   4.873   5.995  0.00  0.00    +0.005 A 
ATOM     13  C   UNL     1      -9.641   6.766   5.256  0.00  0.00    +0.005 A 
ATOM     14  C   UNL     1      -9.436   4.037   5.778  0.00  0.00    +0.000 A 
ATOM     15  C   UNL     1     -10.735   5.928   5.040  0.00  0.00    +0.000 A 
ATOM     16  C   UNL     1     -10.633   4.564   5.303  0.00  0.00    +0.000 A 
ENDBRANCH  10  11
ENDBRANCH   1  10
TORSDOF 2
ENDMDL
MODEL 5
REMARK VINA RESULT:    -5.123      1.852      2.578
REMARK INTER + INTRA:          -5.898
REMARK INTER:                  -5.764
REMARK INTRA:                  -0.134
REMARK UNBOUND:                -0.176
REMARK  Name = 1550473
REMARK  2 active torsions:
REMARK  status: ('A' for Active; 'I' for Inactive)
REMARK    1  A    between atoms: N_1  and  C_4
REMARK    2  A    between atoms: C_4  and  C_5
REMARK                            x       y       z     vdW  Elec       q    Type
REMARK                         _______ _______ _______ _____ _____    ______ ____
ROOT
ATOM      1  N   UNL     1     -10.575   4.853   5.966  0.00  0.00    -0.354 N 
ATOM      2  N   UNL     1     -12.789   4.283   5.595  0.00  0.00    -0.372 N 
ATOM      3  N   UNL     1     -11.206   3.636   4.065  0.00  0.00    -0.372 N 
ATOM      4  C   UNL     1     -11.508   4.260   5.209  0.00  0.00    +0.166 C 
ATOM      5  H   UNL     1     -10.873   5.335   6.807  0.00  0.00    +0.163 HD
ATOM      6  H   UNL     1     -13.514   3.841   5.046  0.00  0.00    +0.159 HD
ATOM      7  H   UNL     1     -13.078   4.726   6.459  0.00  0.00    +0.159 HD
ATOM      8  H   UNL     1     -10.258   3.589   3.715  0.00  0.00    +0.159 HD
ATOM      9  H   UNL     1     -11.919   3.198   3.496  0.00  0.00    +0.159 HD
ENDROOT
BRANCH   1  10
ATOM     10  C   UNL     1      -9.145   4.839   5.663  0.00  0.00    +0.151 C 
BRANCH  10  11
ATOM     11  C   UNL     1      -8.648   6.255   5.577  0.00  0.00    -0.028 A 
ATOM     12  C   UNL     1      -9.455   7.261   5.025  0.00  0.00    +0.005 A 
ATOM     13  C   UNL     1      -7.372   6.599   6.051  0.00  0.00    +0.005 A 
ATOM     14  C   UNL     1      -9.005   8.583   4.972  0.00  0.00    +0.000 A 
ATOM     15  C   UNL     1      -6.927   7.920   5.996  0.00  0.00    +0.000 A 
ATOM     16  C   UNL     1      -7.744   8.911   5.459  0.00  0.00    +0.000 A 
ENDBRANCH  10  11
ENDBRANCH   1  10
TORSDOF 2
ENDMDL
MODEL 6
REMARK VINA RESULT:    -5.116      3.566      4.838
REMARK INTER + INTRA:          -5.890
REMARK INTER:                  -5.743
REMARK INTRA:                  -0.147
REMARK UNBOUND:                -0.176
REMARK  Name = 1550473
REMARK  2 active torsions:
REMARK  status: ('A' for Active; 'I' for Inactive)
REMARK    1  A    between atoms: N_1  and  C_4
REMARK    2  A    between atoms: C_4  and  C_5
REMARK                            x       y       z     vdW  Elec       q    Type
REMARK                         _______ _______ _______ _____ _____    ______ ____
ROOT
ATOM      1  N   UNL     1      -4.845   7.627   2.945  0.00  0.00    -0.354 N 
ATOM      2  N   UNL     1      -5.475   9.272   1.441  0.00  0.00    -0.372 N 
ATOM      3  N   UNL     1      -6.118   7.104   1.048  0.00  0.00    -0.372 N 
ATOM      4  C   UNL     1      -5.476   7.988   1.820  0.00  0.00    +0.166 C 
ATOM      5  H   UNL     1      -4.351   8.340   3.470  0.00  0.00    +0.163 HD
ATOM      6  H   UNL     1      -5.946   9.574   0.598  0.00  0.00    +0.159 HD
ATOM      7  H   UNL     1      -5.020   9.990   1.991  0.00  0.00    +0.159 HD
ATOM      8  H   UNL     1      -6.150   6.119   1.275  0.00  0.00    +0.159 HD
ATOM      9  H   UNL     1      -6.585   7.386   0.195  0.00  0.00    +0.159 HD
ENDROOT
BRANCH   1  10
ATOM     10  C   UNL     1      -4.831   6.265   3.474  0.00  0.00    +0.151 C 
BRANCH  10  11
ATOM     11  C   UNL     1      -6.019   6.077   4.377  0.00  0.00    -0.028 A 
ATOM     12  C   UNL     1      -6.801   4.916   4.293  0.00  0.00    +0.005 A 
ATOM     13  C   UNL     1      -6.363   7.054   5.324  0.00  0.00    +0.005 A 
ATOM     14  C   UNL     1      -7.886   4.728   5.152  0.00  0.00    +0.000 A 
ATOM     15  C   UNL     1      -7.448   6.862   6.180  0.00  0.00    +0.000 A 
ATOM     16  C   UNL     1      -8.207   5.698   6.095  0.00  0.00    +0.000 A 
ENDBRANCH  10  11
ENDBRANCH   1  10
TORSDOF 2
ENDMDL
MODEL 7
REMARK VINA RESULT:    -5.084      1.474      2.151
REMARK INTER + INTRA:          -5.854
REMARK INTER:                  -5.737
REMARK INTRA:                  -0.117
REMARK UNBOUND:                -0.176
REMARK  Name = 1550473
REMARK  2 active torsions:
REMARK  status: ('A' for Active; 'I' for Inactive)
REMARK    1  A    between atoms: N_1  and  C_4
REMARK    2  A    between atoms: C_4  and  C_5
REMARK                            x       y       z     vdW  Elec       q    Type
REMARK                         _______ _______ _______ _____ _____    ______ ____
ROOT
ATOM      1  N   UNL     1      -7.379   4.927   5.520  0.00  0.00    -0.354 N 
ATOM      2  N   UNL     1      -8.375   2.836   5.544  0.00  0.00    -0.372 N 
ATOM      3  N   UNL     1      -9.510   4.615   6.444  0.00  0.00    -0.372 N 
ATOM      4  C   UNL     1      -8.417   4.141   5.837  0.00  0.00    +0.166 C 
ATOM      5  H   UNL     1      -6.567   4.500   5.089  0.00  0.00    +0.163 HD
ATOM      6  H   UNL     1      -9.144   2.219   5.769  0.00  0.00    +0.159 HD
ATOM      7  H   UNL     1      -7.581   2.421   5.072  0.00  0.00    +0.159 HD
ATOM      8  H   UNL     1      -9.602   5.590   6.697  0.00  0.00    +0.159 HD
ATOM      9  H   UNL     1     -10.286   4.012   6.687  0.00  0.00    +0.159 HD
ENDROOT
BRANCH   1  10
ATOM     10  C   UNL     1      -7.347   6.370   5.747  0.00  0.00    +0.151 C 
BRANCH  10  11
ATOM     11  C   UNL     1      -6.674   7.036   4.579  0.00  0.00    -0.028 A 
ATOM     12  C   UNL     1      -7.180   8.234   4.053  0.00  0.00    +0.005 A 
ATOM     13  C   UNL     1      -5.525   6.478   3.997  0.00  0.00    +0.005 A 
ATOM     14  C   UNL     1      -6.538   8.869   2.987  0.00  0.00    +0.000 A 
ATOM     15  C   UNL     1      -4.887   7.114   2.932  0.00  0.00    +0.000 A 
ATOM     16  C   UNL     1      -5.392   8.311   2.429  0.00  0.00    +0.000 A 
ENDBRANCH  10  11
ENDBRANCH   1  10
TORSDOF 2
ENDMDL
MODEL 8
REMARK VINA RESULT:    -5.016      3.761      5.011
REMARK INTER + INTRA:          -5.778
REMARK INTER:                  -5.648
REMARK INTRA:                  -0.131
REMARK UNBOUND:                -0.176
REMARK  Name = 1550473
REMARK  2 active torsions:
REMARK  status: ('A' for Active; 'I' for Inactive)
REMARK    1  A    between atoms: N_1  and  C_4
REMARK    2  A    between atoms: C_4  and  C_5
REMARK                            x       y       z     vdW  Elec       q    Type
REMARK                         _______ _______ _______ _____ _____    ______ ____
ROOT
ATOM      1  N   UNL     1      -7.092   8.837   1.399  0.00  0.00    -0.354 N 
ATOM      2  N   UNL     1      -8.045   8.259  -0.631  0.00  0.00    -0.372 N 
ATOM      3  N   UNL     1      -5.785   7.982  -0.348  0.00  0.00    -0.372 N 
ATOM      4  C   UNL     1      -6.965   8.363   0.153  0.00  0.00    +0.166 C 
ATOM      5  H   UNL     1      -8.009   9.137   1.709  0.00  0.00    +0.163 HD
ATOM      6  H   UNL     1      -7.981   7.902  -1.575  0.00  0.00    +0.159 HD
ATOM      7  H   UNL     1      -8.968   8.517  -0.303  0.00  0.00    +0.159 HD
ATOM      8  H   UNL     1      -4.931   8.041   0.190  0.00  0.00    +0.159 HD
ATOM      9  H   UNL     1      -5.699   7.633  -1.294  0.00  0.00    +0.159 HD
ENDROOT
BRANCH   1  10
ATOM     10  C   UNL     1      -5.988   8.939   2.352  0.00  0.00    +0.151 C 
BRANCH  10  11
ATOM     11  C   UNL     1      -6.400   8.306   3.652  0.00  0.00    -0.028 A 
ATOM     12  C   UNL     1      -6.854   9.098   4.717  0.00  0.00    +0.005 A 
ATOM     13  C   UNL     1      -6.345   6.914   3.823  0.00  0.00    +0.005 A 
ATOM     14  C   UNL     1      -7.265   8.508   5.914  0.00  0.00    +0.000 A 
ATOM     15  C   UNL     1      -6.755   6.329   5.021  0.00  0.00    +0.000 A 
ATOM     16  C   UNL     1      -7.218   7.126   6.065  0.00  0.00    +0.000 A 
ENDBRANCH  10  11
ENDBRANCH   1  10
TORSDOF 2
ENDMDL
MODEL 9
REMARK VINA RESULT:    -4.996     26.905     28.047
REMARK INTER + INTRA:          -5.756
REMARK INTER:                  -5.656
REMARK INTRA:                  -0.101
REMARK UNBOUND:                -0.176
REMARK  Name = 1550473
REMARK  2 active torsions:
REMARK  status: ('A' for Active; 'I' for Inactive)
REMARK    1  A    between atoms: N_1  and  C_4
REMARK    2  A    between atoms: C_4  and  C_5
REMARK                            x       y       z     vdW  Elec       q    Type
REMARK                         _______ _______ _______ _____ _____    ______ ____
ROOT
ATOM      1  N   UNL     1      11.226   0.575 -14.091  0.00  0.00    -0.354 N 
ATOM      2  N   UNL     1      11.513   2.256 -15.658  0.00  0.00    -0.372 N 
ATOM      3  N   UNL     1      10.777   2.812 -13.557  0.00  0.00    -0.372 N 
ATOM      4  C   UNL     1      11.169   1.871 -14.423  0.00  0.00    +0.166 C 
ATOM      5  H   UNL     1      11.502  -0.092 -14.802  0.00  0.00    +0.163 HD
ATOM      6  H   UNL     1      11.483   3.228 -15.936  0.00  0.00    +0.159 HD
ATOM      7  H   UNL     1      11.833   1.592 -16.353  0.00  0.00    +0.159 HD
ATOM      8  H   UNL     1      10.499   2.587 -12.611  0.00  0.00    +0.159 HD
ATOM      9  H   UNL     1      10.730   3.788 -13.820  0.00  0.00    +0.159 HD
ENDROOT
BRANCH   1  10
ATOM     10  C   UNL     1      10.924   0.058 -12.757  0.00  0.00    +0.151 C 
BRANCH  10  11
ATOM     11  C   UNL     1      11.287  -1.400 -12.701  0.00  0.00    -0.028 A 
ATOM     12  C   UNL     1      10.299  -2.372 -12.485  0.00  0.00    +0.005 A 
ATOM     13  C   UNL     1      12.616  -1.817 -12.870  0.00  0.00    +0.005 A 
ATOM     14  C   UNL     1      10.631  -3.729 -12.463  0.00  0.00    +0.000 A 
ATOM     15  C   UNL     1      12.943  -3.173 -12.846  0.00  0.00    +0.000 A 
ATOM     16  C   UNL     1      11.950  -4.128 -12.646  0.00  0.00    +0.000 A 
ENDBRANCH  10  11
ENDBRANCH   1  10
TORSDOF 2
ENDMDL
