MODEL 1
REMARK VINA RESULT:    -6.053      0.000      0.000
REMARK INTER + INTRA:          -6.875
REMARK INTER:                  -6.760
REMARK INTRA:                  -0.115
REMARK UNBOUND:                -0.115
REMARK  Name = 1550473
REMARK  2 active torsions:
REMARK  status: ('A' for Active; 'I' for Inactive)
REMARK    1  A    between atoms: N_1  and  C_4
REMARK    2  A    between atoms: C_4  and  C_5
REMARK                            x       y       z     vdW  Elec       q    Type
REMARK                         _______ _______ _______ _____ _____    ______ ____
ROOT
ATOM      1  N   UNL     1       0.264   2.130  -0.605  0.00  0.00    -0.354 N 
ATOM      2  N   UNL     1       2.151   3.471  -0.545  0.00  0.00    -0.372 N 
ATOM      3  N   UNL     1       2.392   1.237  -1.010  0.00  0.00    -0.372 N 
ATOM      4  C   UNL     1       1.591   2.268  -0.721  0.00  0.00    +0.166 C 
ATOM      5  H   UNL     1      -0.285   2.944  -0.354  0.00  0.00    +0.163 HD
ATOM      6  H   UNL     1       3.149   3.606  -0.629  0.00  0.00    +0.159 HD
ATOM      7  H   UNL     1       1.595   4.292  -0.340  0.00  0.00    +0.159 HD
ATOM      8  H   UNL     1       2.033   0.302  -1.149  0.00  0.00    +0.159 HD
ATOM      9  H   UNL     1       3.395   1.350  -1.087  0.00  0.00    +0.159 HD
ENDROOT
BRANCH   1  10
ATOM     10  C   UNL     1      -0.451   0.874  -0.830  0.00  0.00    +0.151 C 
BRANCH  10  11
ATOM     11  C   UNL     1      -1.926   1.112  -0.666  0.00  0.00    -0.028 A 
ATOM     12  C   UNL     1      -2.756   0.108  -0.146  0.00  0.00    +0.005 A 
ATOM     13  C   UNL     1      -2.500   2.342  -1.023  0.00  0.00    +0.005 A 
ATOM     14  C   UNL     1      -4.122   0.339   0.034  0.00  0.00    +0.000 A 
ATOM     15  C   UNL     1      -3.864   2.569  -0.843  0.00  0.00    +0.000 A 
ATOM     16  C   UNL     1      -4.674   1.568  -0.311  0.00  0.00    +0.000 A 
ENDBRANCH  10  11
ENDBRANCH   1  10
TORSDOF 2
ENDMDL
MODEL 2
REMARK VINA RESULT:    -5.660      2.716      4.022
REMARK INTER + INTRA:          -6.437
REMARK INTER:                  -6.340
REMARK INTRA:                  -0.096
REMARK UNBOUND:                -0.115
REMARK  Name = 1550473
REMARK  2 active torsions:
REMARK  status: ('A' for Active; 'I' for Inactive)
REMARK    1  A    between atoms: N_1  and  C_4
REMARK    2  A    between atoms: C_4  and  C_5
REMARK                            x       y       z     vdW  Elec       q    Type
REMARK                         _______ _______ _______ _____ _____    ______ ____
ROOT
ATOM      1  N   UNL     1      -3.449   2.127  -1.094  0.00  0.00    -0.354 N 
ATOM      2  N   UNL     1      -1.344   2.644  -1.909  0.00  0.00    -0.372 N 
ATOM      3  N   UNL     1      -1.699   0.571  -0.991  0.00  0.00    -0.372 N 
ATOM      4  C   UNL     1      -2.177   1.775  -1.325  0.00  0.00    +0.166 C 
ATOM      5  H   UNL     1      -3.742   3.064  -1.343  0.00  0.00    +0.163 HD
ATOM      6  H   UNL     1      -0.379   2.406  -2.099  0.00  0.00    +0.159 HD
ATOM      7  H   UNL     1      -1.651   3.565  -2.198  0.00  0.00    +0.159 HD
ATOM      8  H   UNL     1      -2.274  -0.128  -0.542  0.00  0.00    +0.159 HD
ATOM      9  H   UNL     1      -0.733   0.318  -1.163  0.00  0.00    +0.159 HD
ENDROOT
BRANCH   1  10
ATOM     10  C   UNL     1      -4.451   1.235  -0.512  0.00  0.00    +0.151 C 
BRANCH  10  11
ATOM     11  C   UNL     1      -5.818   1.676  -0.957  0.00  0.00    -0.028 A 
ATOM     12  C   UNL     1      -6.546   0.914  -1.882  0.00  0.00    +0.005 A 
ATOM     13  C   UNL     1      -6.393   2.853  -0.453  0.00  0.00    +0.005 A 
ATOM     14  C   UNL     1      -7.828   1.308  -2.272  0.00  0.00    +0.000 A 
ATOM     15  C   UNL     1      -7.673   3.243  -0.846  0.00  0.00    +0.000 A 
ATOM     16  C   UNL     1      -8.391   2.469  -1.754  0.00  0.00    +0.000 A 
ENDBRANCH  10  11
ENDBRANCH   1  10
TORSDOF 2
ENDMDL
MODEL 3
REMARK VINA RESULT:    -5.579      7.418      8.479
REMARK INTER + INTRA:          -6.347
REMARK INTER:                  -6.202
REMARK INTRA:                  -0.145
REMARK UNBOUND:                -0.115
REMARK  Name = 1550473
REMARK  2 active torsions:
REMARK  status: ('A' for Active; 'I' for Inactive)
REMARK    1  A    between atoms: N_1  and  C_4
REMARK    2  A    between atoms: C_4  and  C_5
REMARK                            x       y       z     vdW  Elec       q    Type
REMARK                         _______ _______ _______ _____ _____    ______ ____
ROOT
ATOM      1  N   UNL     1      -0.476  -7.095   2.198  0.00  0.00    -0.354 N 
ATOM      2  N   UNL     1       0.265  -8.587   0.589  0.00  0.00    -0.372 N 
ATOM      3  N   UNL     1       0.612  -6.342   0.264  0.00  0.00    -0.372 N 
ATOM      4  C   UNL     1       0.130  -7.329   1.026  0.00  0.00    +0.166 C 
ATOM      5  H   UNL     1      -0.846  -7.885   2.714  0.00  0.00    +0.163 HD
ATOM      6  H   UNL     1       0.721  -8.794  -0.290  0.00  0.00    +0.159 HD
ATOM      7  H   UNL     1      -0.065  -9.377   1.128  0.00  0.00    +0.159 HD
ATOM      8  H   UNL     1       0.536  -5.371   0.535  0.00  0.00    +0.159 HD
ATOM      9  H   UNL     1       1.060  -6.529  -0.624  0.00  0.00    +0.159 HD
ENDROOT
BRANCH   1  10
ATOM     10  C   UNL     1      -0.627  -5.767   2.790  0.00  0.00    +0.151 C 
BRANCH  10  11
ATOM     11  C   UNL     1      -2.091  -5.455   2.928  0.00  0.00    -0.028 A 
ATOM     12  C   UNL     1      -2.868  -6.100   3.902  0.00  0.00    +0.005 A 
ATOM     13  C   UNL     1      -2.707  -4.510   2.093  0.00  0.00    +0.005 A 
ATOM     14  C   UNL     1      -4.222  -5.788   4.050  0.00  0.00    +0.000 A 
ATOM     15  C   UNL     1      -4.059  -4.202   2.244  0.00  0.00    +0.000 A 
ATOM     16  C   UNL     1      -4.815  -4.839   3.224  0.00  0.00    +0.000 A 
ENDBRANCH  10  11
ENDBRANCH   1  10
TORSDOF 2
ENDMDL
MODEL 4
REMARK VINA RESULT:    -5.394     21.329     22.767
REMARK INTER + INTRA:          -6.140
REMARK INTER:                  -6.021
REMARK INTRA:                  -0.119
REMARK UNBOUND:                -0.115
REMARK  Name = 1550473
REMARK  2 active torsions:
REMARK  status: ('A' for Active; 'I' for Inactive)
REMARK    1  A    between atoms: N_1  and  C_4
REMARK    2  A    between atoms: C_4  and  C_5
REMARK                            x       y       z     vdW  Elec       q    Type
REMARK                         _______ _______ _______ _____ _____    ______ ____
ROOT
ATOM      1  N   UNL     1     -12.849  20.058   0.501  0.00  0.00    -0.354 N 
ATOM      2  N   UNL     1     -11.605  20.527  -1.395  0.00  0.00    -0.372 N 
ATOM      3  N   UNL     1     -10.510  19.908   0.524  0.00  0.00    -0.372 N 
ATOM      4  C   UNL     1     -11.661  20.161  -0.109  0.00  0.00    +0.166 C 
ATOM      5  H   UNL     1     -13.682  20.293  -0.025  0.00  0.00    +0.163 HD
ATOM      6  H   UNL     1     -10.723  20.609  -1.883  0.00  0.00    +0.159 HD
ATOM      7  H   UNL     1     -12.443  20.716  -1.932  0.00  0.00    +0.159 HD
ATOM      8  H   UNL     1     -10.484  19.633   1.497  0.00  0.00    +0.159 HD
ATOM      9  H   UNL     1      -9.617  19.996   0.056  0.00  0.00    +0.159 HD
ENDROOT
BRANCH   1  10
ATOM     10  C   UNL     1     -13.023  19.616   1.884  0.00  0.00    +0.151 C 
BRANCH  10  11
ATOM     11  C   UNL     1     -14.377  20.051   2.372  0.00  0.00    -0.028 A 
ATOM     12  C   UNL     1     -14.887  21.311   2.027  0.00  0.00    +0.005 A 
ATOM     13  C   UNL     1     -15.157  19.205   3.176  0.00  0.00    +0.005 A 
ATOM     14  C   UNL     1     -16.158  21.703   2.456  0.00  0.00    +0.000 A 
ATOM     15  C   UNL     1     -16.424  19.601   3.603  0.00  0.00    +0.000 A 
ATOM     16  C   UNL     1     -16.925  20.849   3.240  0.00  0.00    +0.000 A 
ENDBRANCH  10  11
ENDBRANCH   1  10
TORSDOF 2
ENDMDL
MODEL 5
REMARK VINA RESULT:    -5.353     20.390     20.745
REMARK INTER + INTRA:          -6.095
REMARK INTER:                  -5.944
REMARK INTRA:                  -0.151
REMARK UNBOUND:                -0.115
REMARK  Name = 1550473
REMARK  2 active torsions:
REMARK  status: ('A' for Active; 'I' for Inactive)
REMARK    1  A    between atoms: N_1  and  C_4
REMARK    2  A    between atoms: C_4  and  C_5
REMARK                            x       y       z     vdW  Elec       q    Type
REMARK                         _______ _______ _______ _____ _____    ______ ____
ROOT
ATOM      1  N   UNL     1      -0.025   6.539  19.550  0.00  0.00    -0.354 N 
ATOM      2  N   UNL     1      -0.262   8.241  17.997  0.00  0.00    -0.372 N 
ATOM      3  N   UNL     1      -2.147   7.280  18.885  0.00  0.00    -0.372 N 
ATOM      4  C   UNL     1      -0.813   7.341  18.821  0.00  0.00    +0.166 C 
ATOM      5  H   UNL     1       0.979   6.614  19.433  0.00  0.00    +0.163 HD
ATOM      6  H   UNL     1      -0.830   8.862  17.437  0.00  0.00    +0.159 HD
ATOM      7  H   UNL     1       0.742   8.345  17.916  0.00  0.00    +0.159 HD
ATOM      8  H   UNL     1      -2.624   6.619  19.484  0.00  0.00    +0.159 HD
ATOM      9  H   UNL     1      -2.733   7.886  18.324  0.00  0.00    +0.159 HD
ENDROOT
BRANCH   1  10
ATOM     10  C   UNL     1      -0.524   5.563  20.517  0.00  0.00    +0.151 C 
BRANCH  10  11
ATOM     11  C   UNL     1      -0.038   4.194  20.129  0.00  0.00    -0.028 A 
ATOM     12  C   UNL     1       1.092   3.638  20.747  0.00  0.00    +0.005 A 
ATOM     13  C   UNL     1      -0.705   3.445  19.148  0.00  0.00    +0.005 A 
ATOM     14  C   UNL     1       1.526   2.354  20.409  0.00  0.00    +0.000 A 
ATOM     15  C   UNL     1      -0.268   2.164  18.812  0.00  0.00    +0.000 A 
ATOM     16  C   UNL     1       0.846   1.618  19.444  0.00  0.00    +0.000 A 
ENDBRANCH  10  11
ENDBRANCH   1  10
TORSDOF 2
ENDMDL
MODEL 6
REMARK VINA RESULT:    -5.218     20.135     20.673
REMARK INTER + INTRA:          -5.943
REMARK INTER:                  -5.808
REMARK INTRA:                  -0.135
REMARK UNBOUND:                -0.115
REMARK  Name = 1550473
REMARK  2 active torsions:
REMARK  status: ('A' for Active; 'I' for Inactive)
REMARK    1  A    between atoms: N_1  and  C_4
REMARK    2  A    between atoms: C_4  and  C_5
REMARK                            x       y       z     vdW  Elec       q    Type
REMARK                         _______ _______ _______ _____ _____    ______ ____
ROOT
ATOM      1  N   UNL     1      -2.731   4.116  18.420  0.00  0.00    -0.354 N 
ATOM      2  N   UNL     1      -4.950   3.633  17.964  0.00  0.00    -0.372 N 
ATOM      3  N   UNL     1      -4.464   5.204  19.563  0.00  0.00    -0.372 N 
ATOM      4  C   UNL     1      -4.034   4.323  18.654  0.00  0.00    +0.166 C 
ATOM      5  H   UNL     1      -2.470   3.412  17.740  0.00  0.00    +0.163 HD
ATOM      6  H   UNL     1      -5.940   3.769  18.116  0.00  0.00    +0.159 HD
ATOM      7  H   UNL     1      -4.687   2.962  17.251  0.00  0.00    +0.159 HD
ATOM      8  H   UNL     1      -3.824   5.753  20.122  0.00  0.00    +0.159 HD
ATOM      9  H   UNL     1      -5.451   5.347  19.738  0.00  0.00    +0.159 HD
ENDROOT
BRANCH   1  10
ATOM     10  C   UNL     1      -1.655   4.854  19.079  0.00  0.00    +0.151 C 
BRANCH  10  11
ATOM     11  C   UNL     1      -0.568   3.892  19.471  0.00  0.00    -0.028 A 
ATOM     12  C   UNL     1       0.402   4.259  20.415  0.00  0.00    +0.005 A 
ATOM     13  C   UNL     1      -0.506   2.608  18.907  0.00  0.00    +0.005 A 
ATOM     14  C   UNL     1       1.395   3.355  20.801  0.00  0.00    +0.000 A 
ATOM     15  C   UNL     1       0.486   1.709  19.295  0.00  0.00    +0.000 A 
ATOM     16  C   UNL     1       1.435   2.082  20.244  0.00  0.00    +0.000 A 
ENDBRANCH  10  11
ENDBRANCH   1  10
TORSDOF 2
ENDMDL
MODEL 7
REMARK VINA RESULT:    -5.099     19.127     20.053
REMARK INTER + INTRA:          -5.810
REMARK INTER:                  -5.674
REMARK INTRA:                  -0.136
REMARK UNBOUND:                -0.115
REMARK  Name = 1550473
REMARK  2 active torsions:
REMARK  status: ('A' for Active; 'I' for Inactive)
REMARK    1  A    between atoms: N_1  and  C_4
REMARK    2  A    between atoms: C_4  and  C_5
REMARK                            x       y       z     vdW  Elec       q    Type
REMARK                         _______ _______ _______ _____ _____    ______ ____
ROOT
ATOM      1  N   UNL     1      17.895   7.929  -5.998  0.00  0.00    -0.354 N 
ATOM      2  N   UNL     1      18.948   6.096  -5.052  0.00  0.00    -0.372 N 
ATOM      3  N   UNL     1      17.426   5.754  -6.735  0.00  0.00    -0.372 N 
ATOM      4  C   UNL     1      18.081   6.603  -5.936  0.00  0.00    +0.166 C 
ATOM      5  H   UNL     1      18.399   8.517  -5.344  0.00  0.00    +0.163 HD
ATOM      6  H   UNL     1      19.111   5.100  -4.985  0.00  0.00    +0.159 HD
ATOM      7  H   UNL     1      19.484   6.689  -4.431  0.00  0.00    +0.159 HD
ATOM      8  H   UNL     1      16.754   6.073  -7.420  0.00  0.00    +0.159 HD
ATOM      9  H   UNL     1      17.568   4.754  -6.675  0.00  0.00    +0.159 HD
ENDROOT
BRANCH   1  10
ATOM     10  C   UNL     1      17.014   8.587  -6.962  0.00  0.00    +0.151 C 
BRANCH  10  11
ATOM     11  C   UNL     1      16.128   9.559  -6.233  0.00  0.00    -0.028 A 
ATOM     12  C   UNL     1      14.862   9.887  -6.741  0.00  0.00    +0.005 A 
ATOM     13  C   UNL     1      16.546  10.151  -5.031  0.00  0.00    +0.005 A 
ATOM     14  C   UNL     1      14.026  10.767  -6.049  0.00  0.00    +0.000 A 
ATOM     15  C   UNL     1      15.708  11.030  -4.344  0.00  0.00    +0.000 A 
ATOM     16  C   UNL     1      14.448  11.335  -4.851  0.00  0.00    +0.000 A 
ENDBRANCH  10  11
ENDBRANCH   1  10
TORSDOF 2
ENDMDL
MODEL 8
REMARK VINA RESULT:    -5.094     21.733     22.480
REMARK INTER + INTRA:          -5.805
REMARK INTER:                  -5.669
REMARK INTRA:                  -0.136
REMARK UNBOUND:                -0.115
REMARK  Name = 1550473
REMARK  2 active torsions:
REMARK  status: ('A' for Active; 'I' for Inactive)
REMARK    1  A    between atoms: N_1  and  C_4
REMARK    2  A    between atoms: C_4  and  C_5
REMARK                            x       y       z     vdW  Elec       q    Type
REMARK                         _______ _______ _______ _____ _____    ______ ____
ROOT
ATOM      1  N   UNL     1     -15.111  19.781   2.530  0.00  0.00    -0.354 N 
ATOM      2  N   UNL     1     -17.420  19.604   2.538  0.00  0.00    -0.372 N 
ATOM      3  N   UNL     1     -16.161  17.698   2.750  0.00  0.00    -0.372 N 
ATOM      4  C   UNL     1     -16.215  19.026   2.606  0.00  0.00    +0.166 C 
ATOM      5  H   UNL     1     -15.219  20.779   2.390  0.00  0.00    +0.163 HD
ATOM      6  H   UNL     1     -18.271  19.060   2.596  0.00  0.00    +0.159 HD
ATOM      7  H   UNL     1     -17.526  20.607   2.444  0.00  0.00    +0.159 HD
ATOM      8  H   UNL     1     -15.282  17.200   2.802  0.00  0.00    +0.159 HD
ATOM      9  H   UNL     1     -17.001  17.135   2.798  0.00  0.00    +0.159 HD
ENDROOT
BRANCH   1  10
ATOM     10  C   UNL     1     -13.752  19.256   2.647  0.00  0.00    +0.151 C 
BRANCH  10  11
ATOM     11  C   UNL     1     -12.982  19.603   1.403  0.00  0.00    -0.028 A 
ATOM     12  C   UNL     1     -11.644  20.016   1.485  0.00  0.00    +0.005 A 
ATOM     13  C   UNL     1     -13.583  19.515   0.138  0.00  0.00    +0.005 A 
ATOM     14  C   UNL     1     -10.919  20.309   0.327  0.00  0.00    +0.000 A 
ATOM     15  C   UNL     1     -12.856  19.810  -1.016  0.00  0.00    +0.000 A 
ATOM     16  C   UNL     1     -11.524  20.204  -0.921  0.00  0.00    +0.000 A 
ENDBRANCH  10  11
ENDBRANCH   1  10
TORSDOF 2
ENDMDL
MODEL 9
REMARK VINA RESULT:    -4.960     14.669     15.826
REMARK INTER + INTRA:          -5.656
REMARK INTER:                  -5.515
REMARK INTRA:                  -0.140
REMARK UNBOUND:                -0.115
REMARK  Name = 1550473
REMARK  2 active torsions:
REMARK  status: ('A' for Active; 'I' for Inactive)
REMARK    1  A    between atoms: N_1  and  C_4
REMARK    2  A    between atoms: C_4  and  C_5
REMARK                            x       y       z     vdW  Elec       q    Type
REMARK                         _______ _______ _______ _____ _____    ______ ____
ROOT
ATOM      1  N   UNL     1      -7.571   2.013  14.914  0.00  0.00    -0.354 N 
ATOM      2  N   UNL     1      -8.424   3.840  16.053  0.00  0.00    -0.372 N 
ATOM      3  N   UNL     1      -9.871   2.458  14.931  0.00  0.00    -0.372 N 
ATOM      4  C   UNL     1      -8.619   2.757  15.291  0.00  0.00    +0.166 C 
ATOM      5  H   UNL     1      -6.643   2.310  15.195  0.00  0.00    +0.163 HD
ATOM      6  H   UNL     1      -9.195   4.419  16.356  0.00  0.00    +0.159 HD
ATOM      7  H   UNL     1      -7.500   4.109  16.371  0.00  0.00    +0.159 HD
ATOM      8  H   UNL     1     -10.085   1.658  14.352  0.00  0.00    +0.159 HD
ATOM      9  H   UNL     1     -10.656   3.032  15.215  0.00  0.00    +0.159 HD
ENDROOT
BRANCH   1  10
ATOM     10  C   UNL     1      -7.680   0.785  14.129  0.00  0.00    +0.151 C 
BRANCH  10  11
ATOM     11  C   UNL     1      -6.629   0.793  13.054  0.00  0.00    -0.028 A 
ATOM     12  C   UNL     1      -6.036   1.998  12.648  0.00  0.00    +0.005 A 
ATOM     13  C   UNL     1      -6.218  -0.400  12.441  0.00  0.00    +0.005 A 
ATOM     14  C   UNL     1      -5.038   2.003  11.671  0.00  0.00    +0.000 A 
ATOM     15  C   UNL     1      -5.222  -0.390  11.464  0.00  0.00    +0.000 A 
ATOM     16  C   UNL     1      -4.630   0.811  11.081  0.00  0.00    +0.000 A 
ENDBRANCH  10  11
ENDBRANCH   1  10
TORSDOF 2
ENDMDL
