MODEL 1
REMARK VINA RESULT:    -5.526      0.000      0.000
REMARK INTER + INTRA:          -6.294
REMARK INTER:                  -6.172
REMARK INTRA:                  -0.122
REMARK UNBOUND:                -0.122
REMARK  Name = 1550473
REMARK  2 active torsions:
REMARK  status: ('A' for Active; 'I' for Inactive)
REMARK    1  A    between atoms: N_1  and  C_4
REMARK    2  A    between atoms: C_4  and  C_5
REMARK                            x       y       z     vdW  Elec       q    Type
REMARK                         _______ _______ _______ _____ _____    ______ ____
ROOT
ATOM      1  N   UNL     1       0.966   4.899  -3.465  0.00  0.00    -0.354 N 
ATOM      2  N   UNL     1       1.922   6.743  -2.440  0.00  0.00    -0.372 N 
ATOM      3  N   UNL     1       2.229   6.444  -4.694  0.00  0.00    -0.372 N 
ATOM      4  C   UNL     1       1.700   6.017  -3.542  0.00  0.00    +0.166 C 
ATOM      5  H   UNL     1       0.619   4.613  -2.557  0.00  0.00    +0.163 HD
ATOM      6  H   UNL     1       2.469   7.593  -2.468  0.00  0.00    +0.159 HD
ATOM      7  H   UNL     1       1.535   6.479  -1.541  0.00  0.00    +0.159 HD
ATOM      8  H   UNL     1       2.103   5.938  -5.561  0.00  0.00    +0.159 HD
ATOM      9  H   UNL     1       2.789   7.286  -4.740  0.00  0.00    +0.159 HD
ENDROOT
BRANCH   1  10
ATOM     10  C   UNL     1       0.621   4.066  -4.616  0.00  0.00    +0.151 C 
BRANCH  10  11
ATOM     11  C   UNL     1       1.342   2.752  -4.504  0.00  0.00    -0.028 A 
ATOM     12  C   UNL     1       1.226   1.788  -5.517  0.00  0.00    +0.005 A 
ATOM     13  C   UNL     1       2.148   2.466  -3.392  0.00  0.00    +0.005 A 
ATOM     14  C   UNL     1       1.920   0.579  -5.428  0.00  0.00    +0.000 A 
ATOM     15  C   UNL     1       2.838   1.257  -3.306  0.00  0.00    +0.000 A 
ATOM     16  C   UNL     1       2.726   0.315  -4.326  0.00  0.00    +0.000 A 
ENDBRANCH  10  11
ENDBRANCH   1  10
TORSDOF 2
ENDMDL
MODEL 2
REMARK VINA RESULT:    -5.420      1.565      2.160
REMARK INTER + INTRA:          -6.175
REMARK INTER:                  -6.048
REMARK INTRA:                  -0.127
REMARK UNBOUND:                -0.122
REMARK  Name = 1550473
REMARK  2 active torsions:
REMARK  status: ('A' for Active; 'I' for Inactive)
REMARK    1  A    between atoms: N_1  and  C_4
REMARK    2  A    between atoms: C_4  and  C_5
REMARK                            x       y       z     vdW  Elec       q    Type
REMARK                         _______ _______ _______ _____ _____    ______ ____
ROOT
ATOM      1  N   UNL     1       0.848   3.561  -3.709  0.00  0.00    -0.354 N 
ATOM      2  N   UNL     1      -0.167   5.610  -3.336  0.00  0.00    -0.372 N 
ATOM      3  N   UNL     1      -0.024   4.818  -5.485  0.00  0.00    -0.372 N 
ATOM      4  C   UNL     1       0.226   4.649  -4.182  0.00  0.00    +0.166 C 
ATOM      5  H   UNL     1       1.035   3.508  -2.715  0.00  0.00    +0.163 HD
ATOM      6  H   UNL     1      -0.642   6.440  -3.663  0.00  0.00    +0.159 HD
ATOM      7  H   UNL     1      -0.020   5.532  -2.337  0.00  0.00    +0.159 HD
ATOM      8  H   UNL     1       0.252   4.133  -6.176  0.00  0.00    +0.159 HD
ATOM      9  H   UNL     1      -0.488   5.647  -5.833  0.00  0.00    +0.159 HD
ENDROOT
BRANCH   1  10
ATOM     10  C   UNL     1       1.268   2.434  -4.540  0.00  0.00    +0.151 C 
BRANCH  10  11
ATOM     11  C   UNL     1       2.417   1.732  -3.870  0.00  0.00    -0.028 A 
ATOM     12  C   UNL     1       2.719   0.399  -4.186  0.00  0.00    +0.005 A 
ATOM     13  C   UNL     1       3.212   2.396  -2.923  0.00  0.00    +0.005 A 
ATOM     14  C   UNL     1       3.804  -0.244  -3.587  0.00  0.00    +0.000 A 
ATOM     15  C   UNL     1       4.294   1.750  -2.326  0.00  0.00    +0.000 A 
ATOM     16  C   UNL     1       4.592   0.431  -2.660  0.00  0.00    +0.000 A 
ENDBRANCH  10  11
ENDBRANCH   1  10
TORSDOF 2
ENDMDL
MODEL 3
REMARK VINA RESULT:    -5.410      4.069      5.288
REMARK INTER + INTRA:          -6.164
REMARK INTER:                  -6.050
REMARK INTRA:                  -0.114
REMARK UNBOUND:                -0.122
REMARK  Name = 1550473
REMARK  2 active torsions:
REMARK  status: ('A' for Active; 'I' for Inactive)
REMARK    1  A    between atoms: N_1  and  C_4
REMARK    2  A    between atoms: C_4  and  C_5
REMARK                            x       y       z     vdW  Elec       q    Type
REMARK                         _______ _______ _______ _____ _____    ______ ____
ROOT
ATOM      1  N   UNL     1       4.532   0.116  -2.597  0.00  0.00    -0.354 N 
ATOM      2  N   UNL     1       6.400  -0.179  -1.260  0.00  0.00    -0.372 N 
ATOM      3  N   UNL     1       5.649  -1.943  -2.521  0.00  0.00    -0.372 N 
ATOM      4  C   UNL     1       5.514  -0.669  -2.136  0.00  0.00    +0.166 C 
ATOM      5  H   UNL     1       4.466   1.063  -2.243  0.00  0.00    +0.163 HD
ATOM      6  H   UNL     1       7.154  -0.747  -0.897  0.00  0.00    +0.159 HD
ATOM      7  H   UNL     1       6.359   0.782  -0.943  0.00  0.00    +0.159 HD
ATOM      8  H   UNL     1       5.010  -2.375  -3.175  0.00  0.00    +0.159 HD
ATOM      9  H   UNL     1       6.390  -2.530  -2.160  0.00  0.00    +0.159 HD
ENDROOT
BRANCH   1  10
ATOM     10  C   UNL     1       3.548  -0.305  -3.594  0.00  0.00    +0.151 C 
BRANCH  10  11
ATOM     11  C   UNL     1       2.687   0.872  -3.962  0.00  0.00    -0.028 A 
ATOM     12  C   UNL     1       2.154   0.988  -5.254  0.00  0.00    +0.005 A 
ATOM     13  C   UNL     1       2.396   1.872  -3.021  0.00  0.00    +0.005 A 
ATOM     14  C   UNL     1       1.330   2.065  -5.587  0.00  0.00    +0.000 A 
ATOM     15  C   UNL     1       1.574   2.946  -3.358  0.00  0.00    +0.000 A 
ATOM     16  C   UNL     1       1.039   3.041  -4.640  0.00  0.00    +0.000 A 
ENDBRANCH  10  11
ENDBRANCH   1  10
TORSDOF 2
ENDMDL
MODEL 4
REMARK VINA RESULT:    -5.293      2.424      3.096
REMARK INTER + INTRA:          -6.034
REMARK INTER:                  -5.860
REMARK INTRA:                  -0.174
REMARK UNBOUND:                -0.122
REMARK  Name = 1550473
REMARK  2 active torsions:
REMARK  status: ('A' for Active; 'I' for Inactive)
REMARK    1  A    between atoms: N_1  and  C_4
REMARK    2  A    between atoms: C_4  and  C_5
REMARK                            x       y       z     vdW  Elec       q    Type
REMARK                         _______ _______ _______ _____ _____    ______ ____
ROOT
ATOM      1  N   UNL     1       1.126   3.937  -7.315  0.00  0.00    -0.354 N 
ATOM      2  N   UNL     1      -0.439   5.644  -7.293  0.00  0.00    -0.372 N 
ATOM      3  N   UNL     1       1.743   6.132  -6.774  0.00  0.00    -0.372 N 
ATOM      4  C   UNL     1       0.823   5.228  -7.127  0.00  0.00    +0.166 C 
ATOM      5  H   UNL     1       0.378   3.296  -7.552  0.00  0.00    +0.163 HD
ATOM      6  H   UNL     1      -0.697   6.613  -7.161  0.00  0.00    +0.159 HD
ATOM      7  H   UNL     1      -1.176   5.010  -7.575  0.00  0.00    +0.159 HD
ATOM      8  H   UNL     1       2.711   5.881  -6.627  0.00  0.00    +0.159 HD
ATOM      9  H   UNL     1       1.501   7.104  -6.626  0.00  0.00    +0.159 HD
ENDROOT
BRANCH   1  10
ATOM     10  C   UNL     1       2.479   3.391  -7.212  0.00  0.00    +0.151 C 
BRANCH  10  11
ATOM     11  C   UNL     1       2.579   2.561  -5.962  0.00  0.00    -0.028 A 
ATOM     12  C   UNL     1       3.214   3.069  -4.820  0.00  0.00    +0.005 A 
ATOM     13  C   UNL     1       2.037   1.268  -5.913  0.00  0.00    +0.005 A 
ATOM     14  C   UNL     1       3.282   2.310  -3.649  0.00  0.00    +0.000 A 
ATOM     15  C   UNL     1       2.107   0.513  -4.742  0.00  0.00    +0.000 A 
ATOM     16  C   UNL     1       2.727   1.035  -3.610  0.00  0.00    +0.000 A 
ENDBRANCH  10  11
ENDBRANCH   1  10
TORSDOF 2
ENDMDL
MODEL 5
REMARK VINA RESULT:    -5.274      1.164      1.595
REMARK INTER + INTRA:          -6.013
REMARK INTER:                  -5.862
REMARK INTRA:                  -0.150
REMARK UNBOUND:                -0.122
REMARK  Name = 1550473
REMARK  2 active torsions:
REMARK  status: ('A' for Active; 'I' for Inactive)
REMARK    1  A    between atoms: N_1  and  C_4
REMARK    2  A    between atoms: C_4  and  C_5
REMARK                            x       y       z     vdW  Elec       q    Type
REMARK                         _______ _______ _______ _____ _____    ______ ____
ROOT
ATOM      1  N   UNL     1       1.978   5.298  -4.764  0.00  0.00    -0.354 N 
ATOM      2  N   UNL     1       0.465   6.999  -4.338  0.00  0.00    -0.372 N 
ATOM      3  N   UNL     1       1.810   6.257  -2.633  0.00  0.00    -0.372 N 
ATOM      4  C   UNL     1       1.429   6.173  -3.912  0.00  0.00    +0.166 C 
ATOM      5  H   UNL     1       1.624   5.263  -5.713  0.00  0.00    +0.163 HD
ATOM      6  H   UNL     1       0.034   7.672  -3.719  0.00  0.00    +0.159 HD
ATOM      7  H   UNL     1       0.145   6.994  -5.299  0.00  0.00    +0.159 HD
ATOM      8  H   UNL     1       2.527   5.658  -2.247  0.00  0.00    +0.159 HD
ATOM      9  H   UNL     1       1.382   6.916  -1.994  0.00  0.00    +0.159 HD
ENDROOT
BRANCH   1  10
ATOM     10  C   UNL     1       3.071   4.392  -4.415  0.00  0.00    +0.151 C 
BRANCH  10  11
ATOM     11  C   UNL     1       2.610   2.972  -4.599  0.00  0.00    -0.028 A 
ATOM     12  C   UNL     1       1.486   2.685  -5.389  0.00  0.00    +0.005 A 
ATOM     13  C   UNL     1       3.295   1.909  -3.992  0.00  0.00    +0.005 A 
ATOM     14  C   UNL     1       1.075   1.365  -5.585  0.00  0.00    +0.000 A 
ATOM     15  C   UNL     1       2.881   0.592  -4.190  0.00  0.00    +0.000 A 
ATOM     16  C   UNL     1       1.773   0.320  -4.988  0.00  0.00    +0.000 A 
ENDBRANCH  10  11
ENDBRANCH   1  10
TORSDOF 2
ENDMDL
MODEL 6
REMARK VINA RESULT:    -5.274      2.424      4.999
REMARK INTER + INTRA:          -6.012
REMARK INTER:                  -5.872
REMARK INTRA:                  -0.141
REMARK UNBOUND:                -0.122
REMARK  Name = 1550473
REMARK  2 active torsions:
REMARK  status: ('A' for Active; 'I' for Inactive)
REMARK    1  A    between atoms: N_1  and  C_4
REMARK    2  A    between atoms: C_4  and  C_5
REMARK                            x       y       z     vdW  Elec       q    Type
REMARK                         _______ _______ _______ _____ _____    ______ ____
ROOT
ATOM      1  N   UNL     1       2.344   2.759  -4.249  0.00  0.00    -0.354 N 
ATOM      2  N   UNL     1       1.985   0.479  -4.443  0.00  0.00    -0.372 N 
ATOM      3  N   UNL     1       2.041   1.419  -2.350  0.00  0.00    -0.372 N 
ATOM      4  C   UNL     1       2.126   1.567  -3.676  0.00  0.00    +0.166 C 
ATOM      5  H   UNL     1       2.428   2.800  -5.258  0.00  0.00    +0.163 HD
ATOM      6  H   UNL     1       1.816  -0.433  -4.039  0.00  0.00    +0.159 HD
ATOM      7  H   UNL     1       2.023   0.530  -5.453  0.00  0.00    +0.159 HD
ATOM      8  H   UNL     1       2.144   2.200  -1.716  0.00  0.00    +0.159 HD
ATOM      9  H   UNL     1       1.884   0.513  -1.927  0.00  0.00    +0.159 HD
ENDROOT
BRANCH   1  10
ATOM     10  C   UNL     1       2.458   4.014  -3.508  0.00  0.00    +0.151 C 
BRANCH  10  11
ATOM     11  C   UNL     1       1.476   5.005  -4.067  0.00  0.00    -0.028 A 
ATOM     12  C   UNL     1       1.876   6.318  -4.356  0.00  0.00    +0.005 A 
ATOM     13  C   UNL     1       0.145   4.637  -4.315  0.00  0.00    +0.005 A 
ATOM     14  C   UNL     1       0.972   7.231  -4.904  0.00  0.00    +0.000 A 
ATOM     15  C   UNL     1      -0.756   5.552  -4.861  0.00  0.00    +0.000 A 
ATOM     16  C   UNL     1      -0.341   6.848  -5.157  0.00  0.00    +0.000 A 
ENDBRANCH  10  11
ENDBRANCH   1  10
TORSDOF 2
ENDMDL
MODEL 7
REMARK VINA RESULT:    -5.272      1.689      2.479
REMARK INTER + INTRA:          -6.011
REMARK INTER:                  -5.882
REMARK INTRA:                  -0.129
REMARK UNBOUND:                -0.122
REMARK  Name = 1550473
REMARK  2 active torsions:
REMARK  status: ('A' for Active; 'I' for Inactive)
REMARK    1  A    between atoms: N_1  and  C_4
REMARK    2  A    between atoms: C_4  and  C_5
REMARK                            x       y       z     vdW  Elec       q    Type
REMARK                         _______ _______ _______ _____ _____    ______ ____
ROOT
ATOM      1  N   UNL     1      -0.100   5.202  -5.478  0.00  0.00    -0.354 N 
ATOM      2  N   UNL     1       0.088   7.096  -6.797  0.00  0.00    -0.372 N 
ATOM      3  N   UNL     1       0.135   7.325  -4.515  0.00  0.00    -0.372 N 
ATOM      4  C   UNL     1       0.040   6.530  -5.586  0.00  0.00    +0.166 C 
ATOM      5  H   UNL     1      -0.197   4.657  -6.328  0.00  0.00    +0.163 HD
ATOM      6  H   UNL     1       0.196   8.095  -6.910  0.00  0.00    +0.159 HD
ATOM      7  H   UNL     1       0.037   6.545  -7.646  0.00  0.00    +0.159 HD
ATOM      8  H   UNL     1       0.100   6.961  -3.572  0.00  0.00    +0.159 HD
ATOM      9  H   UNL     1       0.232   8.329  -4.607  0.00  0.00    +0.159 HD
ENDROOT
BRANCH   1  10
ATOM     10  C   UNL     1      -0.109   4.481  -4.206  0.00  0.00    +0.151 C 
BRANCH  10  11
ATOM     11  C   UNL     1       0.826   3.307  -4.300  0.00  0.00    -0.028 A 
ATOM     12  C   UNL     1       1.584   2.910  -3.189  0.00  0.00    +0.005 A 
ATOM     13  C   UNL     1       0.954   2.583  -5.496  0.00  0.00    +0.005 A 
ATOM     14  C   UNL     1       2.431   1.801  -3.267  0.00  0.00    +0.000 A 
ATOM     15  C   UNL     1       1.801   1.477  -5.570  0.00  0.00    +0.000 A 
ATOM     16  C   UNL     1       2.537   1.085  -4.454  0.00  0.00    +0.000 A 
ENDBRANCH  10  11
ENDBRANCH   1  10
TORSDOF 2
ENDMDL
MODEL 8
REMARK VINA RESULT:    -5.209      2.539      3.765
REMARK INTER + INTRA:          -5.940
REMARK INTER:                  -5.786
REMARK INTRA:                  -0.154
REMARK UNBOUND:                -0.122
REMARK  Name = 1550473
REMARK  2 active torsions:
REMARK  status: ('A' for Active; 'I' for Inactive)
REMARK    1  A    between atoms: N_1  and  C_4
REMARK    2  A    between atoms: C_4  and  C_5
REMARK                            x       y       z     vdW  Elec       q    Type
REMARK                         _______ _______ _______ _____ _____    ______ ____
ROOT
ATOM      1  N   UNL     1       2.203   1.563  -5.811  0.00  0.00    -0.354 N 
ATOM      2  N   UNL     1       2.012   3.375  -7.241  0.00  0.00    -0.372 N 
ATOM      3  N   UNL     1       0.740   3.330  -5.331  0.00  0.00    -0.372 N 
ATOM      4  C   UNL     1       1.651   2.745  -6.117  0.00  0.00    +0.166 C 
ATOM      5  H   UNL     1       2.865   1.158  -6.463  0.00  0.00    +0.163 HD
ATOM      6  H   UNL     1       1.615   4.270  -7.496  0.00  0.00    +0.159 HD
ATOM      7  H   UNL     1       2.708   2.990  -7.868  0.00  0.00    +0.159 HD
ATOM      8  H   UNL     1       0.421   2.904  -4.472  0.00  0.00    +0.159 HD
ATOM      9  H   UNL     1       0.323   4.220  -5.575  0.00  0.00    +0.159 HD
ENDROOT
BRANCH   1  10
ATOM     10  C   UNL     1       1.919   0.820  -4.585  0.00  0.00    +0.151 C 
BRANCH  10  11
ATOM     11  C   UNL     1       3.158   0.785  -3.734  0.00  0.00    -0.028 A 
ATOM     12  C   UNL     1       3.842  -0.421  -3.523  0.00  0.00    +0.005 A 
ATOM     13  C   UNL     1       3.656   1.955  -3.140  0.00  0.00    +0.005 A 
ATOM     14  C   UNL     1       5.010  -0.450  -2.757  0.00  0.00    +0.000 A 
ATOM     15  C   UNL     1       4.823   1.922  -2.376  0.00  0.00    +0.000 A 
ATOM     16  C   UNL     1       5.500   0.720  -2.186  0.00  0.00    +0.000 A 
ENDBRANCH  10  11
ENDBRANCH   1  10
TORSDOF 2
ENDMDL
MODEL 9
REMARK VINA RESULT:    -5.195      3.628      4.858
REMARK INTER + INTRA:          -5.924
REMARK INTER:                  -5.780
REMARK INTRA:                  -0.144
REMARK UNBOUND:                -0.122
REMARK  Name = 1550473
REMARK  2 active torsions:
REMARK  status: ('A' for Active; 'I' for Inactive)
REMARK    1  A    between atoms: N_1  and  C_4
REMARK    2  A    between atoms: C_4  and  C_5
REMARK                            x       y       z     vdW  Elec       q    Type
REMARK                         _______ _______ _______ _____ _____    ______ ____
ROOT
ATOM      1  N   UNL     1       4.523   1.375  -2.305  0.00  0.00    -0.354 N 
ATOM      2  N   UNL     1       5.807  -0.553  -2.269  0.00  0.00    -0.372 N 
ATOM      3  N   UNL     1       3.521  -0.743  -2.280  0.00  0.00    -0.372 N 
ATOM      4  C   UNL     1       4.606   0.038  -2.284  0.00  0.00    +0.166 C 
ATOM      5  H   UNL     1       5.383   1.911  -2.277  0.00  0.00    +0.163 HD
ATOM      6  H   UNL     1       5.901  -1.559  -2.257  0.00  0.00    +0.159 HD
ATOM      7  H   UNL     1       6.665  -0.015  -2.287  0.00  0.00    +0.159 HD
ATOM      8  H   UNL     1       2.585  -0.360  -2.285  0.00  0.00    +0.159 HD
ATOM      9  H   UNL     1       3.594  -1.753  -2.256  0.00  0.00    +0.159 HD
ENDROOT
BRANCH   1  10
ATOM     10  C   UNL     1       3.265   2.115  -2.377  0.00  0.00    +0.151 C 
BRANCH  10  11
ATOM     11  C   UNL     1       2.921   2.358  -3.821  0.00  0.00    -0.028 A 
ATOM     12  C   UNL     1       3.594   3.344  -4.557  0.00  0.00    +0.005 A 
ATOM     13  C   UNL     1       1.926   1.602  -4.460  0.00  0.00    +0.005 A 
ATOM     14  C   UNL     1       3.295   3.550  -5.906  0.00  0.00    +0.000 A 
ATOM     15  C   UNL     1       1.630   1.811  -5.807  0.00  0.00    +0.000 A 
ATOM     16  C   UNL     1       2.317   2.783  -6.530  0.00  0.00    +0.000 A 
ENDBRANCH  10  11
ENDBRANCH   1  10
TORSDOF 2
ENDMDL
