MODEL 1
REMARK VINA RESULT:    -5.731      0.000      0.000
REMARK INTER + INTRA:          -6.511
REMARK INTER:                  -6.401
REMARK INTRA:                  -0.110
REMARK UNBOUND:                -0.110
REMARK  Name = 1550473
REMARK  2 active torsions:
REMARK  status: ('A' for Active; 'I' for Inactive)
REMARK    1  A    between atoms: N_1  and  C_4
REMARK    2  A    between atoms: C_4  and  C_5
REMARK                            x       y       z     vdW  Elec       q    Type
REMARK                         _______ _______ _______ _____ _____    ______ ____
ROOT
ATOM      1  N   UNL     1      -4.694  -0.644   2.017  0.00  0.00    -0.354 N 
ATOM      2  N   UNL     1      -5.372   1.485   2.627  0.00  0.00    -0.372 N 
ATOM      3  N   UNL     1      -3.200   0.858   3.018  0.00  0.00    -0.372 N 
ATOM      4  C   UNL     1      -4.415   0.553   2.551  0.00  0.00    +0.166 C 
ATOM      5  H   UNL     1      -5.643  -0.823   1.708  0.00  0.00    +0.163 HD
ATOM      6  H   UNL     1      -5.190   2.398   3.022  0.00  0.00    +0.159 HD
ATOM      7  H   UNL     1      -6.307   1.319   2.276  0.00  0.00    +0.159 HD
ATOM      8  H   UNL     1      -2.435   0.196   2.996  0.00  0.00    +0.159 HD
ATOM      9  H   UNL     1      -3.001   1.762   3.428  0.00  0.00    +0.159 HD
ENDROOT
BRANCH   1  10
ATOM     10  C   UNL     1      -3.710  -1.710   1.839  0.00  0.00    +0.151 C 
BRANCH  10  11
ATOM     11  C   UNL     1      -4.172  -2.626   0.739  0.00  0.00    -0.028 A 
ATOM     12  C   UNL     1      -4.351  -2.141  -0.564  0.00  0.00    +0.005 A 
ATOM     13  C   UNL     1      -4.426  -3.983   0.994  0.00  0.00    +0.005 A 
ATOM     14  C   UNL     1      -4.751  -2.998  -1.592  0.00  0.00    +0.000 A 
ATOM     15  C   UNL     1      -4.826  -4.835  -0.035  0.00  0.00    +0.000 A 
ATOM     16  C   UNL     1      -4.986  -4.343  -1.328  0.00  0.00    +0.000 A 
ENDBRANCH  10  11
ENDBRANCH   1  10
TORSDOF 2
ENDMDL
MODEL 2
REMARK VINA RESULT:    -5.676      2.347      2.857
REMARK INTER + INTRA:          -6.450
REMARK INTER:                  -6.322
REMARK INTRA:                  -0.128
REMARK UNBOUND:                -0.110
REMARK  Name = 1550473
REMARK  2 active torsions:
REMARK  status: ('A' for Active; 'I' for Inactive)
REMARK    1  A    between atoms: N_1  and  C_4
REMARK    2  A    between atoms: C_4  and  C_5
REMARK                            x       y       z     vdW  Elec       q    Type
REMARK                         _______ _______ _______ _____ _____    ______ ____
ROOT
ATOM      1  N   UNL     1      -2.613  -3.637   2.442  0.00  0.00    -0.354 N 
ATOM      2  N   UNL     1      -0.657  -2.753   3.314  0.00  0.00    -0.372 N 
ATOM      3  N   UNL     1      -2.662  -1.806   3.904  0.00  0.00    -0.372 N 
ATOM      4  C   UNL     1      -1.992  -2.736   3.215  0.00  0.00    +0.166 C 
ATOM      5  H   UNL     1      -2.046  -4.297   1.922  0.00  0.00    +0.163 HD
ATOM      6  H   UNL     1      -0.162  -2.088   3.892  0.00  0.00    +0.159 HD
ATOM      7  H   UNL     1      -0.096  -3.443   2.829  0.00  0.00    +0.159 HD
ATOM      8  H   UNL     1      -3.670  -1.736   3.868  0.00  0.00    +0.159 HD
ATOM      9  H   UNL     1      -2.183  -1.124   4.479  0.00  0.00    +0.159 HD
ENDROOT
BRANCH   1  10
ATOM     10  C   UNL     1      -4.065  -3.738   2.309  0.00  0.00    +0.151 C 
BRANCH  10  11
ATOM     11  C   UNL     1      -4.416  -3.878   0.853  0.00  0.00    -0.028 A 
ATOM     12  C   UNL     1      -4.390  -2.762   0.004  0.00  0.00    +0.005 A 
ATOM     13  C   UNL     1      -4.770  -5.125   0.316  0.00  0.00    +0.005 A 
ATOM     14  C   UNL     1      -4.686  -2.897  -1.354  0.00  0.00    +0.000 A 
ATOM     15  C   UNL     1      -5.066  -5.256  -1.041  0.00  0.00    +0.000 A 
ATOM     16  C   UNL     1      -5.022  -4.142  -1.876  0.00  0.00    +0.000 A 
ENDBRANCH  10  11
ENDBRANCH   1  10
TORSDOF 2
ENDMDL
MODEL 3
REMARK VINA RESULT:    -5.446      2.685      3.568
REMARK INTER + INTRA:          -6.193
REMARK INTER:                  -6.056
REMARK INTRA:                  -0.137
REMARK UNBOUND:                -0.110
REMARK  Name = 1550473
REMARK  2 active torsions:
REMARK  status: ('A' for Active; 'I' for Inactive)
REMARK    1  A    between atoms: N_1  and  C_4
REMARK    2  A    between atoms: C_4  and  C_5
REMARK                            x       y       z     vdW  Elec       q    Type
REMARK                         _______ _______ _______ _____ _____    ______ ____
ROOT
ATOM      1  N   UNL     1      -3.063  -3.801   2.082  0.00  0.00    -0.354 N 
ATOM      2  N   UNL     1      -2.588  -5.082   3.953  0.00  0.00    -0.372 N 
ATOM      3  N   UNL     1      -4.190  -3.446   4.106  0.00  0.00    -0.372 N 
ATOM      4  C   UNL     1      -3.285  -4.099   3.369  0.00  0.00    +0.166 C 
ATOM      5  H   UNL     1      -2.342  -4.313   1.587  0.00  0.00    +0.163 HD
ATOM      6  H   UNL     1      -2.737  -5.332   4.921  0.00  0.00    +0.159 HD
ATOM      7  H   UNL     1      -1.901  -5.623   3.443  0.00  0.00    +0.159 HD
ATOM      8  H   UNL     1      -4.745  -2.690   3.727  0.00  0.00    +0.159 HD
ATOM      9  H   UNL     1      -4.345  -3.674   5.080  0.00  0.00    +0.159 HD
ENDROOT
BRANCH   1  10
ATOM     10  C   UNL     1      -3.805  -2.785   1.338  0.00  0.00    +0.151 C 
BRANCH  10  11
ATOM     11  C   UNL     1      -4.275  -3.375   0.037  0.00  0.00    -0.028 A 
ATOM     12  C   UNL     1      -4.494  -4.755  -0.081  0.00  0.00    +0.005 A 
ATOM     13  C   UNL     1      -4.507  -2.558  -1.080  0.00  0.00    +0.005 A 
ATOM     14  C   UNL     1      -4.959  -5.299  -1.281  0.00  0.00    +0.000 A 
ATOM     15  C   UNL     1      -4.969  -3.105  -2.277  0.00  0.00    +0.000 A 
ATOM     16  C   UNL     1      -5.198  -4.476  -2.376  0.00  0.00    +0.000 A 
ENDBRANCH  10  11
ENDBRANCH   1  10
TORSDOF 2
ENDMDL
MODEL 4
REMARK VINA RESULT:    -5.405      3.937      5.058
REMARK INTER + INTRA:          -6.147
REMARK INTER:                  -6.023
REMARK INTRA:                  -0.124
REMARK UNBOUND:                -0.110
REMARK  Name = 1550473
REMARK  2 active torsions:
REMARK  status: ('A' for Active; 'I' for Inactive)
REMARK    1  A    between atoms: N_1  and  C_4
REMARK    2  A    between atoms: C_4  and  C_5
REMARK                            x       y       z     vdW  Elec       q    Type
REMARK                         _______ _______ _______ _____ _____    ______ ____
ROOT
ATOM      1  N   UNL     1      -3.185  -6.159   2.570  0.00  0.00    -0.354 N 
ATOM      2  N   UNL     1      -2.523  -8.191   3.462  0.00  0.00    -0.372 N 
ATOM      3  N   UNL     1      -3.914  -6.842   4.690  0.00  0.00    -0.372 N 
ATOM      4  C   UNL     1      -3.213  -7.049   3.571  0.00  0.00    +0.166 C 
ATOM      5  H   UNL     1      -2.610  -6.362   1.761  0.00  0.00    +0.163 HD
ATOM      6  H   UNL     1      -2.528  -8.884   4.199  0.00  0.00    +0.159 HD
ATOM      7  H   UNL     1      -1.986  -8.412   2.632  0.00  0.00    +0.159 HD
ATOM      8  H   UNL     1      -4.452  -5.997   4.837  0.00  0.00    +0.159 HD
ATOM      9  H   UNL     1      -3.922  -7.517   5.444  0.00  0.00    +0.159 HD
ENDROOT
BRANCH   1  10
ATOM     10  C   UNL     1      -3.944  -4.909   2.566  0.00  0.00    +0.151 C 
BRANCH  10  11
ATOM     11  C   UNL     1      -4.305  -4.558   1.149  0.00  0.00    -0.028 A 
ATOM     12  C   UNL     1      -4.171  -3.241   0.686  0.00  0.00    +0.005 A 
ATOM     13  C   UNL     1      -4.775  -5.539   0.263  0.00  0.00    +0.005 A 
ATOM     14  C   UNL     1      -4.478  -2.920  -0.639  0.00  0.00    +0.000 A 
ATOM     15  C   UNL     1      -5.081  -5.215  -1.059  0.00  0.00    +0.000 A 
ATOM     16  C   UNL     1      -4.930  -3.906  -1.510  0.00  0.00    +0.000 A 
ENDBRANCH  10  11
ENDBRANCH   1  10
TORSDOF 2
ENDMDL
MODEL 5
REMARK VINA RESULT:    -4.937     24.555     25.481
REMARK INTER + INTRA:          -5.624
REMARK INTER:                  -5.497
REMARK INTRA:                  -0.128
REMARK UNBOUND:                -0.110
REMARK  Name = 1550473
REMARK  2 active torsions:
REMARK  status: ('A' for Active; 'I' for Inactive)
REMARK    1  A    between atoms: N_1  and  C_4
REMARK    2  A    between atoms: C_4  and  C_5
REMARK                            x       y       z     vdW  Elec       q    Type
REMARK                         _______ _______ _______ _____ _____    ______ ____
ROOT
ATOM      1  N   UNL     1       3.843   1.901  25.259  0.00  0.00    -0.354 N 
ATOM      2  N   UNL     1       3.899   1.693  27.565  0.00  0.00    -0.372 N 
ATOM      3  N   UNL     1       5.758   1.108  26.353  0.00  0.00    -0.372 N 
ATOM      4  C   UNL     1       4.502   1.567  26.377  0.00  0.00    +0.166 C 
ATOM      5  H   UNL     1       2.883   2.214  25.342  0.00  0.00    +0.163 HD
ATOM      6  H   UNL     1       4.373   1.453  28.426  0.00  0.00    +0.159 HD
ATOM      7  H   UNL     1       2.955   2.050  27.648  0.00  0.00    +0.159 HD
ATOM      8  H   UNL     1       6.267   0.984  25.488  0.00  0.00    +0.159 HD
ATOM      9  H   UNL     1       6.244   0.851  27.203  0.00  0.00    +0.159 HD
ENDROOT
BRANCH   1  10
ATOM     10  C   UNL     1       4.427   1.852  23.920  0.00  0.00    +0.151 C 
BRANCH  10  11
ATOM     11  C   UNL     1       4.161   3.156  23.220  0.00  0.00    -0.028 A 
ATOM     12  C   UNL     1       2.906   3.775  23.320  0.00  0.00    +0.005 A 
ATOM     13  C   UNL     1       5.161   3.782  22.460  0.00  0.00    +0.005 A 
ATOM     14  C   UNL     1       2.668   5.001  22.695  0.00  0.00    +0.000 A 
ATOM     15  C   UNL     1       4.919   5.006  21.837  0.00  0.00    +0.000 A 
ATOM     16  C   UNL     1       3.673   5.616  21.957  0.00  0.00    +0.000 A 
ENDBRANCH  10  11
ENDBRANCH   1  10
TORSDOF 2
ENDMDL
MODEL 6
REMARK VINA RESULT:    -4.658     23.399     24.304
REMARK INTER + INTRA:          -5.312
REMARK INTER:                  -5.201
REMARK INTRA:                  -0.111
REMARK UNBOUND:                -0.110
REMARK  Name = 1550473
REMARK  2 active torsions:
REMARK  status: ('A' for Active; 'I' for Inactive)
REMARK    1  A    between atoms: N_1  and  C_4
REMARK    2  A    between atoms: C_4  and  C_5
REMARK                            x       y       z     vdW  Elec       q    Type
REMARK                         _______ _______ _______ _____ _____    ______ ____
ROOT
ATOM      1  N   UNL     1       3.310   4.592  23.337  0.00  0.00    -0.354 N 
ATOM      2  N   UNL     1       2.238   6.644  23.250  0.00  0.00    -0.372 N 
ATOM      3  N   UNL     1       3.485   5.967  21.447  0.00  0.00    -0.372 N 
ATOM      4  C   UNL     1       3.019   5.721  22.676  0.00  0.00    +0.166 C 
ATOM      5  H   UNL     1       2.950   4.480  24.278  0.00  0.00    +0.163 HD
ATOM      6  H   UNL     1       1.999   7.504  22.774  0.00  0.00    +0.159 HD
ATOM      7  H   UNL     1       1.843   6.508  24.172  0.00  0.00    +0.159 HD
ATOM      8  H   UNL     1       4.084   5.313  20.961  0.00  0.00    +0.159 HD
ATOM      9  H   UNL     1       3.266   6.826  20.959  0.00  0.00    +0.159 HD
ENDROOT
BRANCH   1  10
ATOM     10  C   UNL     1       4.107   3.501  22.780  0.00  0.00    +0.151 C 
BRANCH  10  11
ATOM     11  C   UNL     1       3.620   2.197  23.350  0.00  0.00    -0.028 A 
ATOM     12  C   UNL     1       4.403   1.487  24.273  0.00  0.00    +0.005 A 
ATOM     13  C   UNL     1       2.375   1.669  22.976  0.00  0.00    +0.005 A 
ATOM     14  C   UNL     1       3.938   0.291  24.825  0.00  0.00    +0.000 A 
ATOM     15  C   UNL     1       1.915   0.474  23.529  0.00  0.00    +0.000 A 
ATOM     16  C   UNL     1       2.696  -0.213  24.455  0.00  0.00    +0.000 A 
ENDBRANCH  10  11
ENDBRANCH   1  10
TORSDOF 2
ENDMDL
MODEL 7
REMARK VINA RESULT:    -4.601     24.269     25.872
REMARK INTER + INTRA:          -5.249
REMARK INTER:                  -5.089
REMARK INTRA:                  -0.159
REMARK UNBOUND:                -0.110
REMARK  Name = 1550473
REMARK  2 active torsions:
REMARK  status: ('A' for Active; 'I' for Inactive)
REMARK    1  A    between atoms: N_1  and  C_4
REMARK    2  A    between atoms: C_4  and  C_5
REMARK                            x       y       z     vdW  Elec       q    Type
REMARK                         _______ _______ _______ _____ _____    ______ ____
ROOT
ATOM      1  N   UNL     1     -11.014  -7.377 -24.420  0.00  0.00    -0.354 N 
ATOM      2  N   UNL     1     -12.960  -8.614 -24.627  0.00  0.00    -0.372 N 
ATOM      3  N   UNL     1     -11.671  -8.883 -22.749  0.00  0.00    -0.372 N 
ATOM      4  C   UNL     1     -11.868  -8.284 -23.928  0.00  0.00    +0.166 C 
ATOM      5  H   UNL     1     -11.204  -6.982 -25.333  0.00  0.00    +0.163 HD
ATOM      6  H   UNL     1     -13.625  -9.293 -24.281  0.00  0.00    +0.159 HD
ATOM      7  H   UNL     1     -13.172  -8.184 -25.519  0.00  0.00    +0.159 HD
ATOM      8  H   UNL     1     -10.863  -8.682 -22.175  0.00  0.00    +0.159 HD
ATOM      9  H   UNL     1     -12.318  -9.573 -22.390  0.00  0.00    +0.159 HD
ENDROOT
BRANCH   1  10
ATOM     10  C   UNL     1      -9.823  -6.908 -23.713  0.00  0.00    +0.151 C 
BRANCH  10  11
ATOM     11  C   UNL     1     -10.037  -5.483 -23.282  0.00  0.00    -0.028 A 
ATOM     12  C   UNL     1     -10.010  -5.139 -21.923  0.00  0.00    +0.005 A 
ATOM     13  C   UNL     1     -10.260  -4.472 -24.229  0.00  0.00    +0.005 A 
ATOM     14  C   UNL     1     -10.179  -3.810 -21.524  0.00  0.00    +0.000 A 
ATOM     15  C   UNL     1     -10.429  -3.147 -23.827  0.00  0.00    +0.000 A 
ATOM     16  C   UNL     1     -10.386  -2.816 -22.475  0.00  0.00    +0.000 A 
ENDBRANCH  10  11
ENDBRANCH   1  10
TORSDOF 2
ENDMDL
MODEL 8
REMARK VINA RESULT:    -4.570     23.849     24.936
REMARK INTER + INTRA:          -5.214
REMARK INTER:                  -5.109
REMARK INTRA:                  -0.105
REMARK UNBOUND:                -0.110
REMARK  Name = 1550473
REMARK  2 active torsions:
REMARK  status: ('A' for Active; 'I' for Inactive)
REMARK    1  A    between atoms: N_1  and  C_4
REMARK    2  A    between atoms: C_4  and  C_5
REMARK                            x       y       z     vdW  Elec       q    Type
REMARK                         _______ _______ _______ _____ _____    ______ ____
ROOT
ATOM      1  N   UNL     1     -10.931  -2.382 -22.471  0.00  0.00    -0.354 N 
ATOM      2  N   UNL     1     -11.760  -4.178 -21.266  0.00  0.00    -0.372 N 
ATOM      3  N   UNL     1     -12.584  -3.778 -23.370  0.00  0.00    -0.372 N 
ATOM      4  C   UNL     1     -11.754  -3.434 -22.379  0.00  0.00    +0.166 C 
ATOM      5  H   UNL     1     -10.348  -2.155 -21.672  0.00  0.00    +0.163 HD
ATOM      6  H   UNL     1     -12.368  -4.980 -21.170  0.00  0.00    +0.159 HD
ATOM      7  H   UNL     1     -11.144  -3.977 -20.488  0.00  0.00    +0.159 HD
ATOM      8  H   UNL     1     -12.632  -3.255 -24.234  0.00  0.00    +0.159 HD
ATOM      9  H   UNL     1     -13.208  -4.571 -23.288  0.00  0.00    +0.159 HD
ENDROOT
BRANCH   1  10
ATOM     10  C   UNL     1     -10.808  -1.540 -23.659  0.00  0.00    +0.151 C 
BRANCH  10  11
ATOM     11  C   UNL     1     -10.110  -0.262 -23.286  0.00  0.00    -0.028 A 
ATOM     12  C   UNL     1     -10.654   0.979 -23.648  0.00  0.00    +0.005 A 
ATOM     13  C   UNL     1      -8.905  -0.284 -22.566  0.00  0.00    +0.005 A 
ATOM     14  C   UNL     1     -10.021   2.168 -23.275  0.00  0.00    +0.000 A 
ATOM     15  C   UNL     1      -8.276   0.904 -22.197  0.00  0.00    +0.000 A 
ATOM     16  C   UNL     1      -8.835   2.130 -22.550  0.00  0.00    +0.000 A 
ENDBRANCH  10  11
ENDBRANCH   1  10
TORSDOF 2
ENDMDL
MODEL 9
REMARK VINA RESULT:    -4.453      3.048      5.031
REMARK INTER + INTRA:          -5.083
REMARK INTER:                  -4.989
REMARK INTRA:                  -0.094
REMARK UNBOUND:                -0.110
REMARK  Name = 1550473
REMARK  2 active torsions:
REMARK  status: ('A' for Active; 'I' for Inactive)
REMARK    1  A    between atoms: N_1  and  C_4
REMARK    2  A    between atoms: C_4  and  C_5
REMARK                            x       y       z     vdW  Elec       q    Type
REMARK                         _______ _______ _______ _____ _____    ______ ____
ROOT
ATOM      1  N   UNL     1      -2.960  -3.896   1.484  0.00  0.00    -0.354 N 
ATOM      2  N   UNL     1      -3.080  -5.000  -0.549  0.00  0.00    -0.372 N 
ATOM      3  N   UNL     1      -4.787  -5.267   0.961  0.00  0.00    -0.372 N 
ATOM      4  C   UNL     1      -3.611  -4.715   0.647  0.00  0.00    +0.166 C 
ATOM      5  H   UNL     1      -2.057  -3.534   1.198  0.00  0.00    +0.163 HD
ATOM      6  H   UNL     1      -3.550  -5.611  -1.203  0.00  0.00    +0.159 HD
ATOM      7  H   UNL     1      -2.200  -4.600  -0.850  0.00  0.00    +0.159 HD
ATOM      8  H   UNL     1      -5.238  -5.097   1.850  0.00  0.00    +0.159 HD
ATOM      9  H   UNL     1      -5.267  -5.891   0.324  0.00  0.00    +0.159 HD
ENDROOT
BRANCH   1  10
ATOM     10  C   UNL     1      -3.477  -3.480   2.786  0.00  0.00    +0.151 C 
BRANCH  10  11
ATOM     11  C   UNL     1      -3.837  -2.021   2.728  0.00  0.00    -0.028 A 
ATOM     12  C   UNL     1      -4.624  -1.523   1.679  0.00  0.00    +0.005 A 
ATOM     13  C   UNL     1      -3.400  -1.132   3.723  0.00  0.00    +0.005 A 
ATOM     14  C   UNL     1      -4.984  -0.174   1.641  0.00  0.00    +0.000 A 
ATOM     15  C   UNL     1      -3.761   0.214   3.680  0.00  0.00    +0.000 A 
ATOM     16  C   UNL     1      -4.555   0.692   2.641  0.00  0.00    +0.000 A 
ENDBRANCH  10  11
ENDBRANCH   1  10
TORSDOF 2
ENDMDL
