MODEL 1
REMARK VINA RESULT:    -6.152      0.000      0.000
REMARK INTER + INTRA:          -7.009
REMARK INTER:                  -6.871
REMARK INTRA:                  -0.138
REMARK UNBOUND:                -0.138
REMARK  Name = 1550473
REMARK  2 active torsions:
REMARK  status: ('A' for Active; 'I' for Inactive)
REMARK    1  A    between atoms: N_1  and  C_4
REMARK    2  A    between atoms: C_4  and  C_5
REMARK                            x       y       z     vdW  Elec       q    Type
REMARK                         _______ _______ _______ _____ _____    ______ ____
ROOT
ATOM      1  N   UNL     1      -7.129  -7.171  -5.079  0.00  0.00    -0.354 N 
ATOM      2  N   UNL     1      -9.199  -6.156  -4.851  0.00  0.00    -0.372 N 
ATOM      3  N   UNL     1      -9.092  -8.271  -5.734  0.00  0.00    -0.372 N 
ATOM      4  C   UNL     1      -8.461  -7.208  -5.224  0.00  0.00    +0.166 C 
ATOM      5  H   UNL     1      -6.709  -6.324  -4.715  0.00  0.00    +0.163 HD
ATOM      6  H   UNL     1     -10.206  -6.157  -4.946  0.00  0.00    +0.159 HD
ATOM      7  H   UNL     1      -8.780  -5.329  -4.445  0.00  0.00    +0.159 HD
ATOM      8  H   UNL     1      -8.592  -9.095  -6.040  0.00  0.00    +0.159 HD
ATOM      9  H   UNL     1     -10.098  -8.287  -5.847  0.00  0.00    +0.159 HD
ENDROOT
BRANCH   1  10
ATOM     10  C   UNL     1      -6.240  -8.284  -5.404  0.00  0.00    +0.151 C 
BRANCH  10  11
ATOM     11  C   UNL     1      -5.229  -7.825  -6.419  0.00  0.00    -0.028 A 
ATOM     12  C   UNL     1      -4.914  -8.630  -7.524  0.00  0.00    +0.005 A 
ATOM     13  C   UNL     1      -4.587  -6.585  -6.285  0.00  0.00    +0.005 A 
ATOM     14  C   UNL     1      -3.998  -8.191  -8.483  0.00  0.00    +0.000 A 
ATOM     15  C   UNL     1      -3.673  -6.151  -7.244  0.00  0.00    +0.000 A 
ATOM     16  C   UNL     1      -3.380  -6.953  -8.344  0.00  0.00    +0.000 A 
ENDBRANCH  10  11
ENDBRANCH   1  10
TORSDOF 2
ENDMDL
MODEL 2
REMARK VINA RESULT:    -4.921     16.312     17.367
REMARK INTER + INTRA:          -5.634
REMARK INTER:                  -5.495
REMARK INTRA:                  -0.139
REMARK UNBOUND:                -0.138
REMARK  Name = 1550473
REMARK  2 active torsions:
REMARK  status: ('A' for Active; 'I' for Inactive)
REMARK    1  A    between atoms: N_1  and  C_4
REMARK    2  A    between atoms: C_4  and  C_5
REMARK                            x       y       z     vdW  Elec       q    Type
REMARK                         _______ _______ _______ _____ _____    ______ ____
ROOT
ATOM      1  N   UNL     1      -7.445   8.836  -7.845  0.00  0.00    -0.354 N 
ATOM      2  N   UNL     1      -7.257   6.822  -6.717  0.00  0.00    -0.372 N 
ATOM      3  N   UNL     1      -9.241   7.970  -6.613  0.00  0.00    -0.372 N 
ATOM      4  C   UNL     1      -7.985   7.890  -7.065  0.00  0.00    +0.166 C 
ATOM      5  H   UNL     1      -6.478   8.731  -8.129  0.00  0.00    +0.163 HD
ATOM      6  H   UNL     1      -7.638   6.090  -6.133  0.00  0.00    +0.159 HD
ATOM      7  H   UNL     1      -6.306   6.697  -7.041  0.00  0.00    +0.159 HD
ATOM      8  H   UNL     1      -9.841   8.753  -6.834  0.00  0.00    +0.159 HD
ATOM      9  H   UNL     1      -9.637   7.253  -6.017  0.00  0.00    +0.159 HD
ENDROOT
BRANCH   1  10
ATOM     10  C   UNL     1      -8.170  10.011  -8.324  0.00  0.00    +0.151 C 
BRANCH  10  11
ATOM     11  C   UNL     1      -8.057  10.081  -9.822  0.00  0.00    -0.028 A 
ATOM     12  C   UNL     1      -9.057  10.703 -10.584  0.00  0.00    +0.005 A 
ATOM     13  C   UNL     1      -6.949   9.532 -10.486  0.00  0.00    +0.005 A 
ATOM     14  C   UNL     1      -8.938  10.794 -11.973  0.00  0.00    +0.000 A 
ATOM     15  C   UNL     1      -6.834   9.624 -11.873  0.00  0.00    +0.000 A 
ATOM     16  C   UNL     1      -7.828  10.257 -12.615  0.00  0.00    +0.000 A 
ENDBRANCH  10  11
ENDBRANCH   1  10
TORSDOF 2
ENDMDL
MODEL 3
REMARK VINA RESULT:    -4.898     15.270     16.522
REMARK INTER + INTRA:          -5.608
REMARK INTER:                  -5.481
REMARK INTRA:                  -0.127
REMARK UNBOUND:                -0.138
REMARK  Name = 1550473
REMARK  2 active torsions:
REMARK  status: ('A' for Active; 'I' for Inactive)
REMARK    1  A    between atoms: N_1  and  C_4
REMARK    2  A    between atoms: C_4  and  C_5
REMARK                            x       y       z     vdW  Elec       q    Type
REMARK                         _______ _______ _______ _____ _____    ______ ____
ROOT
ATOM      1  N   UNL     1      -9.455   7.729  -7.385  0.00  0.00    -0.354 N 
ATOM      2  N   UNL     1      -7.465   7.060  -6.407  0.00  0.00    -0.372 N 
ATOM      3  N   UNL     1      -7.445   8.840  -7.855  0.00  0.00    -0.372 N 
ATOM      4  C   UNL     1      -8.134   7.883  -7.224  0.00  0.00    +0.166 C 
ATOM      5  H   UNL     1      -9.914   6.965  -6.902  0.00  0.00    +0.163 HD
ATOM      6  H   UNL     1      -6.469   7.153  -6.262  0.00  0.00    +0.159 HD
ATOM      7  H   UNL     1      -7.934   6.326  -5.889  0.00  0.00    +0.159 HD
ATOM      8  H   UNL     1      -7.890   9.489  -8.490  0.00  0.00    +0.159 HD
ATOM      9  H   UNL     1      -6.446   8.942  -7.732  0.00  0.00    +0.159 HD
ENDROOT
BRANCH   1  10
ATOM     10  C   UNL     1     -10.285   8.605  -8.210  0.00  0.00    +0.151 C 
BRANCH  10  11
ATOM     11  C   UNL     1     -11.562   7.890  -8.556  0.00  0.00    -0.028 A 
ATOM     12  C   UNL     1     -11.711   6.524  -8.275  0.00  0.00    +0.005 A 
ATOM     13  C   UNL     1     -12.629   8.574  -9.159  0.00  0.00    +0.005 A 
ATOM     14  C   UNL     1     -12.908   5.866  -8.568  0.00  0.00    +0.000 A 
ATOM     15  C   UNL     1     -13.822   7.913  -9.451  0.00  0.00    +0.000 A 
ATOM     16  C   UNL     1     -13.962   6.559  -9.153  0.00  0.00    +0.000 A 
ENDBRANCH  10  11
ENDBRANCH   1  10
TORSDOF 2
ENDMDL
MODEL 4
REMARK VINA RESULT:    -4.819      2.259      5.474
REMARK INTER + INTRA:          -5.520
REMARK INTER:                  -5.424
REMARK INTRA:                  -0.095
REMARK UNBOUND:                -0.138
REMARK  Name = 1550473
REMARK  2 active torsions:
REMARK  status: ('A' for Active; 'I' for Inactive)
REMARK    1  A    between atoms: N_1  and  C_4
REMARK    2  A    between atoms: C_4  and  C_5
REMARK                            x       y       z     vdW  Elec       q    Type
REMARK                         _______ _______ _______ _____ _____    ______ ____
ROOT
ATOM      1  N   UNL     1      -6.313  -6.602  -5.764  0.00  0.00    -0.354 N 
ATOM      2  N   UNL     1      -4.116  -7.333  -5.783  0.00  0.00    -0.372 N 
ATOM      3  N   UNL     1      -5.128  -6.812  -7.775  0.00  0.00    -0.372 N 
ATOM      4  C   UNL     1      -5.201  -6.911  -6.444  0.00  0.00    +0.166 C 
ATOM      5  H   UNL     1      -6.313  -6.727  -4.758  0.00  0.00    +0.163 HD
ATOM      6  H   UNL     1      -3.261  -7.570  -6.269  0.00  0.00    +0.159 HD
ATOM      7  H   UNL     1      -4.104  -7.413  -4.774  0.00  0.00    +0.159 HD
ATOM      8  H   UNL     1      -5.914  -6.505  -8.333  0.00  0.00    +0.159 HD
ATOM      9  H   UNL     1      -4.285  -7.056  -8.280  0.00  0.00    +0.159 HD
ENDROOT
BRANCH   1  10
ATOM     10  C   UNL     1      -7.531  -6.081  -6.383  0.00  0.00    +0.151 C 
BRANCH  10  11
ATOM     11  C   UNL     1      -8.663  -6.180  -5.398  0.00  0.00    -0.028 A 
ATOM     12  C   UNL     1      -9.715  -7.082  -5.611  0.00  0.00    +0.005 A 
ATOM     13  C   UNL     1      -8.686  -5.378  -4.247  0.00  0.00    +0.005 A 
ATOM     14  C   UNL     1     -10.752  -7.196  -4.681  0.00  0.00    +0.000 A 
ATOM     15  C   UNL     1      -9.723  -5.493  -3.321  0.00  0.00    +0.000 A 
ATOM     16  C   UNL     1     -10.755  -6.404  -3.538  0.00  0.00    +0.000 A 
ENDBRANCH  10  11
ENDBRANCH   1  10
TORSDOF 2
ENDMDL
MODEL 5
REMARK VINA RESULT:    -4.782     34.153     34.924
REMARK INTER + INTRA:          -5.479
REMARK INTER:                  -5.386
REMARK INTRA:                  -0.093
REMARK UNBOUND:                -0.138
REMARK  Name = 1550473
REMARK  2 active torsions:
REMARK  status: ('A' for Active; 'I' for Inactive)
REMARK    1  A    between atoms: N_1  and  C_4
REMARK    2  A    between atoms: C_4  and  C_5
REMARK                            x       y       z     vdW  Elec       q    Type
REMARK                         _______ _______ _______ _____ _____    ______ ____
ROOT
ATOM      1  N   UNL     1       8.152  19.176  10.174  0.00  0.00    -0.354 N 
ATOM      2  N   UNL     1       6.118  19.390   9.086  0.00  0.00    -0.372 N 
ATOM      3  N   UNL     1       6.837  21.098  10.439  0.00  0.00    -0.372 N 
ATOM      4  C   UNL     1       7.049  19.889   9.908  0.00  0.00    +0.166 C 
ATOM      5  H   UNL     1       8.239  18.253   9.764  0.00  0.00    +0.163 HD
ATOM      6  H   UNL     1       5.277  19.906   8.864  0.00  0.00    +0.159 HD
ATOM      7  H   UNL     1       6.229  18.487   8.641  0.00  0.00    +0.159 HD
ATOM      8  H   UNL     1       7.498  21.528  11.071  0.00  0.00    +0.159 HD
ATOM      9  H   UNL     1       5.997  21.625  10.238  0.00  0.00    +0.159 HD
ENDROOT
BRANCH   1  10
ATOM     10  C   UNL     1       9.250  19.651  11.013  0.00  0.00    +0.151 C 
BRANCH  10  11
ATOM     11  C   UNL     1      10.099  18.479  11.422  0.00  0.00    -0.028 A 
ATOM     12  C   UNL     1      11.146  18.037  10.601  0.00  0.00    +0.005 A 
ATOM     13  C   UNL     1       9.863  17.809  12.632  0.00  0.00    +0.005 A 
ATOM     14  C   UNL     1      11.954  16.967  10.995  0.00  0.00    +0.000 A 
ATOM     15  C   UNL     1      10.671  16.741  13.022  0.00  0.00    +0.000 A 
ATOM     16  C   UNL     1      11.718  16.322  12.204  0.00  0.00    +0.000 A 
ENDBRANCH  10  11
ENDBRANCH   1  10
TORSDOF 2
ENDMDL
MODEL 6
REMARK VINA RESULT:    -4.768     28.168     29.465
REMARK INTER + INTRA:          -5.463
REMARK INTER:                  -5.363
REMARK INTRA:                  -0.101
REMARK UNBOUND:                -0.138
REMARK  Name = 1550473
REMARK  2 active torsions:
REMARK  status: ('A' for Active; 'I' for Inactive)
REMARK    1  A    between atoms: N_1  and  C_4
REMARK    2  A    between atoms: C_4  and  C_5
REMARK                            x       y       z     vdW  Elec       q    Type
REMARK                         _______ _______ _______ _____ _____    ______ ____
ROOT
ATOM      1  N   UNL     1      13.853   9.503   5.947  0.00  0.00    -0.354 N 
ATOM      2  N   UNL     1      12.789   8.370   7.664  0.00  0.00    -0.372 N 
ATOM      3  N   UNL     1      13.837   7.160   6.020  0.00  0.00    -0.372 N 
ATOM      4  C   UNL     1      13.501   8.349   6.531  0.00  0.00    +0.166 C 
ATOM      5  H   UNL     1      13.541  10.370   6.368  0.00  0.00    +0.163 HD
ATOM      6  H   UNL     1      12.512   7.516   8.129  0.00  0.00    +0.159 HD
ATOM      7  H   UNL     1      12.518   9.239   8.107  0.00  0.00    +0.159 HD
ATOM      8  H   UNL     1      14.368   7.076   5.164  0.00  0.00    +0.159 HD
ATOM      9  H   UNL     1      13.559   6.294   6.464  0.00  0.00    +0.159 HD
ENDROOT
BRANCH   1  10
ATOM     10  C   UNL     1      14.673   9.591   4.740  0.00  0.00    +0.151 C 
BRANCH  10  11
ATOM     11  C   UNL     1      14.619  10.997   4.211  0.00  0.00    -0.028 A 
ATOM     12  C   UNL     1      14.976  12.080   5.028  0.00  0.00    +0.005 A 
ATOM     13  C   UNL     1      14.217  11.254   2.891  0.00  0.00    +0.005 A 
ATOM     14  C   UNL     1      14.954  13.384   4.528  0.00  0.00    +0.000 A 
ATOM     15  C   UNL     1      14.196  12.558   2.396  0.00  0.00    +0.000 A 
ATOM     16  C   UNL     1      14.567  13.622   3.213  0.00  0.00    +0.000 A 
ENDBRANCH  10  11
ENDBRANCH   1  10
TORSDOF 2
ENDMDL
MODEL 7
REMARK VINA RESULT:    -4.712      6.673      8.315
REMARK INTER + INTRA:          -5.401
REMARK INTER:                  -5.256
REMARK INTRA:                  -0.145
REMARK UNBOUND:                -0.138
REMARK  Name = 1550473
REMARK  2 active torsions:
REMARK  status: ('A' for Active; 'I' for Inactive)
REMARK    1  A    between atoms: N_1  and  C_4
REMARK    2  A    between atoms: C_4  and  C_5
REMARK                            x       y       z     vdW  Elec       q    Type
REMARK                         _______ _______ _______ _____ _____    ______ ____
ROOT
ATOM      1  N   UNL     1      -9.917  -2.703   0.473  0.00  0.00    -0.354 N 
ATOM      2  N   UNL     1      -8.235  -1.781   1.771  0.00  0.00    -0.372 N 
ATOM      3  N   UNL     1      -8.997  -0.612  -0.050  0.00  0.00    -0.372 N 
ATOM      4  C   UNL     1      -9.061  -1.703   0.721  0.00  0.00    +0.166 C 
ATOM      5  H   UNL     1      -9.895  -3.516   1.078  0.00  0.00    +0.163 HD
ATOM      6  H   UNL     1      -7.580  -1.041   1.985  0.00  0.00    +0.159 HD
ATOM      7  H   UNL     1      -8.247  -2.575   2.400  0.00  0.00    +0.159 HD
ATOM      8  H   UNL     1      -9.589  -0.494  -0.861  0.00  0.00    +0.159 HD
ATOM      9  H   UNL     1      -8.341   0.135   0.141  0.00  0.00    +0.159 HD
ENDROOT
BRANCH   1  10
ATOM     10  C   UNL     1     -10.895  -2.692  -0.613  0.00  0.00    +0.151 C 
BRANCH  10  11
ATOM     11  C   UNL     1     -10.536  -3.760  -1.609  0.00  0.00    -0.028 A 
ATOM     12  C   UNL     1     -11.425  -4.811  -1.878  0.00  0.00    +0.005 A 
ATOM     13  C   UNL     1      -9.310  -3.723  -2.291  0.00  0.00    +0.005 A 
ATOM     14  C   UNL     1     -11.104  -5.786  -2.825  0.00  0.00    +0.000 A 
ATOM     15  C   UNL     1      -8.993  -4.700  -3.235  0.00  0.00    +0.000 A 
ATOM     16  C   UNL     1      -9.891  -5.730  -3.504  0.00  0.00    +0.000 A 
ENDBRANCH  10  11
ENDBRANCH   1  10
TORSDOF 2
ENDMDL
MODEL 8
REMARK VINA RESULT:    -4.573     11.804     12.884
REMARK INTER + INTRA:          -5.245
REMARK INTER:                  -5.127
REMARK INTRA:                  -0.118
REMARK UNBOUND:                -0.138
REMARK  Name = 1550473
REMARK  2 active torsions:
REMARK  status: ('A' for Active; 'I' for Inactive)
REMARK    1  A    between atoms: N_1  and  C_4
REMARK    2  A    between atoms: C_4  and  C_5
REMARK                            x       y       z     vdW  Elec       q    Type
REMARK                         _______ _______ _______ _____ _____    ______ ____
ROOT
ATOM      1  N   UNL     1      -4.035 -18.591  -1.929  0.00  0.00    -0.354 N 
ATOM      2  N   UNL     1      -3.492 -18.245   0.296  0.00  0.00    -0.372 N 
ATOM      3  N   UNL     1      -2.305 -19.797  -0.907  0.00  0.00    -0.372 N 
ATOM      4  C   UNL     1      -3.279 -18.882  -0.862  0.00  0.00    +0.166 C 
ATOM      5  H   UNL     1      -4.777 -17.909  -1.822  0.00  0.00    +0.163 HD
ATOM      6  H   UNL     1      -2.936 -18.441   1.117  0.00  0.00    +0.159 HD
ATOM      7  H   UNL     1      -4.205 -17.531   0.388  0.00  0.00    +0.159 HD
ATOM      8  H   UNL     1      -2.097 -20.317  -1.749  0.00  0.00    +0.159 HD
ATOM      9  H   UNL     1      -1.745 -20.015  -0.092  0.00  0.00    +0.159 HD
ENDROOT
BRANCH   1  10
ATOM     10  C   UNL     1      -3.849 -19.188  -3.250  0.00  0.00    +0.151 C 
BRANCH  10  11
ATOM     11  C   UNL     1      -5.181 -19.277  -3.941  0.00  0.00    -0.028 A 
ATOM     12  C   UNL     1      -6.226 -20.026  -3.381  0.00  0.00    +0.005 A 
ATOM     13  C   UNL     1      -5.408 -18.608  -5.154  0.00  0.00    +0.005 A 
ATOM     14  C   UNL     1      -7.473 -20.084  -4.008  0.00  0.00    +0.000 A 
ATOM     15  C   UNL     1      -6.654 -18.669  -5.777  0.00  0.00    +0.000 A 
ATOM     16  C   UNL     1      -7.687 -19.405  -5.202  0.00  0.00    +0.000 A 
ENDBRANCH  10  11
ENDBRANCH   1  10
TORSDOF 2
ENDMDL
MODEL 9
REMARK VINA RESULT:    -4.498     32.824     33.446
REMARK INTER + INTRA:          -5.161
REMARK INTER:                  -5.038
REMARK INTRA:                  -0.123
REMARK UNBOUND:                -0.138
REMARK  Name = 1550473
REMARK  2 active torsions:
REMARK  status: ('A' for Active; 'I' for Inactive)
REMARK    1  A    between atoms: N_1  and  C_4
REMARK    2  A    between atoms: C_4  and  C_5
REMARK                            x       y       z     vdW  Elec       q    Type
REMARK                         _______ _______ _______ _____ _____    ______ ____
ROOT
ATOM      1  N   UNL     1      -1.417  19.075  13.697  0.00  0.00    -0.354 N 
ATOM      2  N   UNL     1       0.688  18.511  14.480  0.00  0.00    -0.372 N 
ATOM      3  N   UNL     1      -1.088  18.449  15.931  0.00  0.00    -0.372 N 
ATOM      4  C   UNL     1      -0.621  18.682  14.700  0.00  0.00    +0.166 C 
ATOM      5  H   UNL     1      -0.997  19.264  12.794  0.00  0.00    +0.163 HD
ATOM      6  H   UNL     1       1.313  18.212  15.216  0.00  0.00    +0.159 HD
ATOM      7  H   UNL     1       1.098  18.657  13.565  0.00  0.00    +0.159 HD
ATOM      8  H   UNL     1      -2.065  18.566  16.164  0.00  0.00    +0.159 HD
ATOM      9  H   UNL     1      -0.476  18.161  16.684  0.00  0.00    +0.159 HD
ENDROOT
BRANCH   1  10
ATOM     10  C   UNL     1      -2.865  19.239  13.818  0.00  0.00    +0.151 C 
BRANCH  10  11
ATOM     11  C   UNL     1      -3.420  19.695  12.497  0.00  0.00    -0.028 A 
ATOM     12  C   UNL     1      -2.570  19.901  11.401  0.00  0.00    +0.005 A 
ATOM     13  C   UNL     1      -4.796  19.918  12.334  0.00  0.00    +0.005 A 
ATOM     14  C   UNL     1      -3.089  20.297  10.165  0.00  0.00    +0.000 A 
ATOM     15  C   UNL     1      -5.310  20.314  11.099  0.00  0.00    +0.000 A 
ATOM     16  C   UNL     1      -4.456  20.500  10.014  0.00  0.00    +0.000 A 
ENDBRANCH  10  11
ENDBRANCH   1  10
TORSDOF 2
ENDMDL
