MODEL 1
REMARK VINA RESULT:    -6.192      0.000      0.000
REMARK INTER + INTRA:          -7.055
REMARK INTER:                  -6.916
REMARK INTRA:                  -0.139
REMARK UNBOUND:                -0.139
REMARK  Name = 1550473
REMARK  2 active torsions:
REMARK  status: ('A' for Active; 'I' for Inactive)
REMARK    1  A    between atoms: N_1  and  C_4
REMARK    2  A    between atoms: C_4  and  C_5
REMARK                            x       y       z     vdW  Elec       q    Type
REMARK                         _______ _______ _______ _____ _____    ______ ____
ROOT
ATOM      1  N   UNL     1      -4.522  -5.449  -9.418  0.00  0.00    -0.354 N 
ATOM      2  N   UNL     1      -2.472  -5.186  -8.374  0.00  0.00    -0.372 N 
ATOM      3  N   UNL     1      -2.815  -7.030  -9.696  0.00  0.00    -0.372 N 
ATOM      4  C   UNL     1      -3.283  -5.893  -9.171  0.00  0.00    +0.166 C 
ATOM      5  H   UNL     1      -4.827  -4.595  -8.966  0.00  0.00    +0.163 HD
ATOM      6  H   UNL     1      -1.530  -5.494  -8.172  0.00  0.00    +0.159 HD
ATOM      7  H   UNL     1      -2.763  -4.309  -7.960  0.00  0.00    +0.159 HD
ATOM      8  H   UNL     1      -3.379  -7.613 -10.300  0.00  0.00    +0.159 HD
ATOM      9  H   UNL     1      -1.879  -7.361  -9.495  0.00  0.00    +0.159 HD
ENDROOT
BRANCH   1  10
ATOM     10  C   UNL     1      -5.465  -6.116 -10.314  0.00  0.00    +0.151 C 
BRANCH  10  11
ATOM     11  C   UNL     1      -6.693  -6.503  -9.536  0.00  0.00    -0.028 A 
ATOM     12  C   UNL     1      -7.130  -7.835  -9.512  0.00  0.00    +0.005 A 
ATOM     13  C   UNL     1      -7.419  -5.542  -8.816  0.00  0.00    +0.005 A 
ATOM     14  C   UNL     1      -8.253  -8.200  -8.765  0.00  0.00    +0.000 A 
ATOM     15  C   UNL     1      -8.540  -5.910  -8.072  0.00  0.00    +0.000 A 
ATOM     16  C   UNL     1      -8.955  -7.239  -8.045  0.00  0.00    +0.000 A 
ENDBRANCH  10  11
ENDBRANCH   1  10
TORSDOF 2
ENDMDL
MODEL 2
REMARK VINA RESULT:    -5.511      2.616      3.297
REMARK INTER + INTRA:          -6.295
REMARK INTER:                  -6.148
REMARK INTRA:                  -0.146
REMARK UNBOUND:                -0.139
REMARK  Name = 1550473
REMARK  2 active torsions:
REMARK  status: ('A' for Active; 'I' for Inactive)
REMARK    1  A    between atoms: N_1  and  C_4
REMARK    2  A    between atoms: C_4  and  C_5
REMARK                            x       y       z     vdW  Elec       q    Type
REMARK                         _______ _______ _______ _____ _____    ______ ____
ROOT
ATOM      1  N   UNL     1      -6.869  -6.953  -9.704  0.00  0.00    -0.354 N 
ATOM      2  N   UNL     1      -4.956  -6.006 -10.602  0.00  0.00    -0.372 N 
ATOM      3  N   UNL     1      -5.262  -8.272 -10.787  0.00  0.00    -0.372 N 
ATOM      4  C   UNL     1      -5.707  -7.086 -10.359  0.00  0.00    +0.166 C 
ATOM      5  H   UNL     1      -7.135  -6.031  -9.379  0.00  0.00    +0.163 HD
ATOM      6  H   UNL     1      -4.077  -6.075 -11.097  0.00  0.00    +0.159 HD
ATOM      7  H   UNL     1      -5.247  -5.079 -10.317  0.00  0.00    +0.159 HD
ATOM      8  H   UNL     1      -5.780  -9.127 -10.629  0.00  0.00    +0.159 HD
ATOM      9  H   UNL     1      -4.380  -8.363 -11.273  0.00  0.00    +0.159 HD
ENDROOT
BRANCH   1  10
ATOM     10  C   UNL     1      -7.787  -8.058  -9.435  0.00  0.00    +0.151 C 
BRANCH  10  11
ATOM     11  C   UNL     1      -9.138  -7.724 -10.005  0.00  0.00    -0.028 A 
ATOM     12  C   UNL     1      -9.357  -7.765 -11.389  0.00  0.00    +0.005 A 
ATOM     13  C   UNL     1     -10.205  -7.370  -9.164  0.00  0.00    +0.005 A 
ATOM     14  C   UNL     1     -10.620  -7.483 -11.917  0.00  0.00    +0.000 A 
ATOM     15  C   UNL     1     -11.464  -7.089  -9.694  0.00  0.00    +0.000 A 
ATOM     16  C   UNL     1     -11.672  -7.148 -11.070  0.00  0.00    +0.000 A 
ENDBRANCH  10  11
ENDBRANCH   1  10
TORSDOF 2
ENDMDL
MODEL 3
REMARK VINA RESULT:    -5.209      1.312      2.150
REMARK INTER + INTRA:          -5.957
REMARK INTER:                  -5.856
REMARK INTRA:                  -0.101
REMARK UNBOUND:                -0.139
REMARK  Name = 1550473
REMARK  2 active torsions:
REMARK  status: ('A' for Active; 'I' for Inactive)
REMARK    1  A    between atoms: N_1  and  C_4
REMARK    2  A    between atoms: C_4  and  C_5
REMARK                            x       y       z     vdW  Elec       q    Type
REMARK                         _______ _______ _______ _____ _____    ______ ____
ROOT
ATOM      1  N   UNL     1      -5.431  -4.702 -10.673  0.00  0.00    -0.354 N 
ATOM      2  N   UNL     1      -3.168  -5.072 -10.994  0.00  0.00    -0.372 N 
ATOM      3  N   UNL     1      -3.890  -4.324  -8.949  0.00  0.00    -0.372 N 
ATOM      4  C   UNL     1      -4.178  -4.696 -10.201  0.00  0.00    +0.166 C 
ATOM      5  H   UNL     1      -5.580  -4.965 -11.640  0.00  0.00    +0.163 HD
ATOM      6  H   UNL     1      -2.212  -5.081 -10.664  0.00  0.00    +0.159 HD
ATOM      7  H   UNL     1      -3.324  -5.379 -11.946  0.00  0.00    +0.159 HD
ATOM      8  H   UNL     1      -4.607  -4.023  -8.301  0.00  0.00    +0.159 HD
ATOM      9  H   UNL     1      -2.938  -4.315  -8.604  0.00  0.00    +0.159 HD
ENDROOT
BRANCH   1  10
ATOM     10  C   UNL     1      -6.608  -4.362  -9.875  0.00  0.00    +0.151 C 
BRANCH  10  11
ATOM     11  C   UNL     1      -7.200  -5.624  -9.311  0.00  0.00    -0.028 A 
ATOM     12  C   UNL     1      -8.012  -5.580  -8.168  0.00  0.00    +0.005 A 
ATOM     13  C   UNL     1      -6.958  -6.865  -9.917  0.00  0.00    +0.005 A 
ATOM     14  C   UNL     1      -8.587  -6.748  -7.661  0.00  0.00    +0.000 A 
ATOM     15  C   UNL     1      -7.533  -8.029  -9.408  0.00  0.00    +0.000 A 
ATOM     16  C   UNL     1      -8.350  -7.970  -8.281  0.00  0.00    +0.000 A 
ENDBRANCH  10  11
ENDBRANCH   1  10
TORSDOF 2
ENDMDL
MODEL 4
REMARK VINA RESULT:    -4.955      2.737      3.544
REMARK INTER + INTRA:          -5.674
REMARK INTER:                  -5.520
REMARK INTRA:                  -0.153
REMARK UNBOUND:                -0.139
REMARK  Name = 1550473
REMARK  2 active torsions:
REMARK  status: ('A' for Active; 'I' for Inactive)
REMARK    1  A    between atoms: N_1  and  C_4
REMARK    2  A    between atoms: C_4  and  C_5
REMARK                            x       y       z     vdW  Elec       q    Type
REMARK                         _______ _______ _______ _____ _____    ______ ____
ROOT
ATOM      1  N   UNL     1      -7.121  -8.278  -9.823  0.00  0.00    -0.354 N 
ATOM      2  N   UNL     1      -6.156  -9.677 -11.396  0.00  0.00    -0.372 N 
ATOM      3  N   UNL     1      -5.776  -7.419 -11.539  0.00  0.00    -0.372 N 
ATOM      4  C   UNL     1      -6.357  -8.446 -10.910  0.00  0.00    +0.166 C 
ATOM      5  H   UNL     1      -7.557  -9.094  -9.410  0.00  0.00    +0.163 HD
ATOM      6  H   UNL     1      -5.582  -9.836 -12.213  0.00  0.00    +0.159 HD
ATOM      7  H   UNL     1      -6.556 -10.496 -10.954  0.00  0.00    +0.159 HD
ATOM      8  H   UNL     1      -5.893  -6.465 -11.226  0.00  0.00    +0.159 HD
ATOM      9  H   UNL     1      -5.207  -7.556 -12.365  0.00  0.00    +0.159 HD
ENDROOT
BRANCH   1  10
ATOM     10  C   UNL     1      -7.358  -6.985  -9.182  0.00  0.00    +0.151 C 
BRANCH  10  11
ATOM     11  C   UNL     1      -8.804  -6.609  -9.357  0.00  0.00    -0.028 A 
ATOM     12  C   UNL     1      -9.800  -7.595  -9.364  0.00  0.00    +0.005 A 
ATOM     13  C   UNL     1      -9.184  -5.267  -9.509  0.00  0.00    +0.005 A 
ATOM     14  C   UNL     1     -11.146  -7.244  -9.495  0.00  0.00    +0.000 A 
ATOM     15  C   UNL     1     -10.528  -4.919  -9.641  0.00  0.00    +0.000 A 
ATOM     16  C   UNL     1     -11.509  -5.908  -9.632  0.00  0.00    +0.000 A 
ENDBRANCH  10  11
ENDBRANCH   1  10
TORSDOF 2
ENDMDL
MODEL 5
REMARK VINA RESULT:    -4.952      2.464      3.469
REMARK INTER + INTRA:          -5.670
REMARK INTER:                  -5.488
REMARK INTRA:                  -0.182
REMARK UNBOUND:                -0.139
REMARK  Name = 1550473
REMARK  2 active torsions:
REMARK  status: ('A' for Active; 'I' for Inactive)
REMARK    1  A    between atoms: N_1  and  C_4
REMARK    2  A    between atoms: C_4  and  C_5
REMARK                            x       y       z     vdW  Elec       q    Type
REMARK                         _______ _______ _______ _____ _____    ______ ____
ROOT
ATOM      1  N   UNL     1      -6.145  -5.815 -11.902  0.00  0.00    -0.354 N 
ATOM      2  N   UNL     1      -6.943  -6.003 -14.068  0.00  0.00    -0.372 N 
ATOM      3  N   UNL     1      -5.995  -7.840 -13.071  0.00  0.00    -0.372 N 
ATOM      4  C   UNL     1      -6.355  -6.554 -12.999  0.00  0.00    +0.166 C 
ATOM      5  H   UNL     1      -6.413  -4.837 -11.922  0.00  0.00    +0.163 HD
ATOM      6  H   UNL     1      -7.117  -6.537 -14.909  0.00  0.00    +0.159 HD
ATOM      7  H   UNL     1      -7.252  -5.039 -14.068  0.00  0.00    +0.159 HD
ATOM      8  H   UNL     1      -5.542  -8.313 -12.301  0.00  0.00    +0.159 HD
ATOM      9  H   UNL     1      -6.151  -8.388 -13.908  0.00  0.00    +0.159 HD
ENDROOT
BRANCH   1  10
ATOM     10  C   UNL     1      -5.561  -6.333 -10.666  0.00  0.00    +0.151 C 
BRANCH  10  11
ATOM     11  C   UNL     1      -6.658  -6.566  -9.664  0.00  0.00    -0.028 A 
ATOM     12  C   UNL     1      -7.191  -5.497  -8.931  0.00  0.00    +0.005 A 
ATOM     13  C   UNL     1      -7.172  -7.854  -9.449  0.00  0.00    +0.005 A 
ATOM     14  C   UNL     1      -8.231  -5.708  -8.022  0.00  0.00    +0.000 A 
ATOM     15  C   UNL     1      -8.210  -8.061  -8.540  0.00  0.00    +0.000 A 
ATOM     16  C   UNL     1      -8.740  -6.988  -7.829  0.00  0.00    +0.000 A 
ENDBRANCH  10  11
ENDBRANCH   1  10
TORSDOF 2
ENDMDL
MODEL 6
REMARK VINA RESULT:    -4.894      4.976      6.345
REMARK INTER + INTRA:          -5.605
REMARK INTER:                  -5.435
REMARK INTRA:                  -0.170
REMARK UNBOUND:                -0.139
REMARK  Name = 1550473
REMARK  2 active torsions:
REMARK  status: ('A' for Active; 'I' for Inactive)
REMARK    1  A    between atoms: N_1  and  C_4
REMARK    2  A    between atoms: C_4  and  C_5
REMARK                            x       y       z     vdW  Elec       q    Type
REMARK                         _______ _______ _______ _____ _____    ______ ____
ROOT
ATOM      1  N   UNL     1     -11.275  -4.979 -11.314  0.00  0.00    -0.354 N 
ATOM      2  N   UNL     1     -11.464  -4.950 -13.622  0.00  0.00    -0.372 N 
ATOM      3  N   UNL     1     -12.831  -6.342 -12.415  0.00  0.00    -0.372 N 
ATOM      4  C   UNL     1     -11.858  -5.426 -12.434  0.00  0.00    +0.166 C 
ATOM      5  H   UNL     1     -10.522  -4.307 -11.398  0.00  0.00    +0.163 HD
ATOM      6  H   UNL     1     -11.887  -5.266 -14.484  0.00  0.00    +0.159 HD
ATOM      7  H   UNL     1     -10.743  -4.244 -13.700  0.00  0.00    +0.159 HD
ATOM      8  H   UNL     1     -13.170  -6.746 -11.551  0.00  0.00    +0.159 HD
ATOM      9  H   UNL     1     -13.259  -6.679 -13.268  0.00  0.00    +0.159 HD
ENDROOT
BRANCH   1  10
ATOM     10  C   UNL     1     -11.667  -5.394  -9.968  0.00  0.00    +0.151 C 
BRANCH  10  11
ATOM     11  C   UNL     1     -10.556  -6.205  -9.361  0.00  0.00    -0.028 A 
ATOM     12  C   UNL     1      -9.582  -5.592  -8.559  0.00  0.00    +0.005 A 
ATOM     13  C   UNL     1     -10.474  -7.589  -9.580  0.00  0.00    +0.005 A 
ATOM     14  C   UNL     1      -8.567  -6.351  -7.970  0.00  0.00    +0.000 A 
ATOM     15  C   UNL     1      -9.459  -8.343  -8.991  0.00  0.00    +0.000 A 
ATOM     16  C   UNL     1      -8.507  -7.724  -8.184  0.00  0.00    +0.000 A 
ENDBRANCH  10  11
ENDBRANCH   1  10
TORSDOF 2
ENDMDL
MODEL 7
REMARK VINA RESULT:    -4.758      5.204      6.123
REMARK INTER + INTRA:          -5.453
REMARK INTER:                  -5.304
REMARK INTRA:                  -0.150
REMARK UNBOUND:                -0.139
REMARK  Name = 1550473
REMARK  2 active torsions:
REMARK  status: ('A' for Active; 'I' for Inactive)
REMARK    1  A    between atoms: N_1  and  C_4
REMARK    2  A    between atoms: C_4  and  C_5
REMARK                            x       y       z     vdW  Elec       q    Type
REMARK                         _______ _______ _______ _____ _____    ______ ____
ROOT
ATOM      1  N   UNL     1     -11.959  -5.721 -10.853  0.00  0.00    -0.354 N 
ATOM      2  N   UNL     1     -12.270  -4.023 -12.398  0.00  0.00    -0.372 N 
ATOM      3  N   UNL     1     -11.523  -6.066 -13.130  0.00  0.00    -0.372 N 
ATOM      4  C   UNL     1     -11.914  -5.283 -12.119  0.00  0.00    +0.166 C 
ATOM      5  H   UNL     1     -12.235  -5.069 -10.128  0.00  0.00    +0.163 HD
ATOM      6  H   UNL     1     -12.249  -3.666 -13.344  0.00  0.00    +0.159 HD
ATOM      7  H   UNL     1     -12.590  -3.388 -11.677  0.00  0.00    +0.159 HD
ATOM      8  H   UNL     1     -11.236  -7.025 -12.985  0.00  0.00    +0.159 HD
ATOM      9  H   UNL     1     -11.485  -5.723 -14.082  0.00  0.00    +0.159 HD
ENDROOT
BRANCH   1  10
ATOM     10  C   UNL     1     -11.644  -7.090 -10.450  0.00  0.00    +0.151 C 
BRANCH  10  11
ATOM     11  C   UNL     1     -10.478  -7.067  -9.500  0.00  0.00    -0.028 A 
ATOM     12  C   UNL     1      -9.785  -8.247  -9.195  0.00  0.00    +0.005 A 
ATOM     13  C   UNL     1     -10.059  -5.866  -8.907  0.00  0.00    +0.005 A 
ATOM     14  C   UNL     1      -8.683  -8.221  -8.336  0.00  0.00    +0.000 A 
ATOM     15  C   UNL     1      -8.959  -5.845  -8.049  0.00  0.00    +0.000 A 
ATOM     16  C   UNL     1      -8.270  -7.022  -7.766  0.00  0.00    +0.000 A 
ENDBRANCH  10  11
ENDBRANCH   1  10
TORSDOF 2
ENDMDL
MODEL 8
REMARK VINA RESULT:    -4.732     21.693     23.223
REMARK INTER + INTRA:          -5.424
REMARK INTER:                  -5.297
REMARK INTRA:                  -0.128
REMARK UNBOUND:                -0.139
REMARK  Name = 1550473
REMARK  2 active torsions:
REMARK  status: ('A' for Active; 'I' for Inactive)
REMARK    1  A    between atoms: N_1  and  C_4
REMARK    2  A    between atoms: C_4  and  C_5
REMARK                            x       y       z     vdW  Elec       q    Type
REMARK                         _______ _______ _______ _____ _____    ______ ____
ROOT
ATOM      1  N   UNL     1      13.509   8.257  -9.611  0.00  0.00    -0.354 N 
ATOM      2  N   UNL     1      15.544   9.014 -10.418  0.00  0.00    -0.372 N 
ATOM      3  N   UNL     1      14.936   6.836 -10.811  0.00  0.00    -0.372 N 
ATOM      4  C   UNL     1      14.650   8.028 -10.275  0.00  0.00    +0.166 C 
ATOM      5  H   UNL     1      13.365   9.173  -9.203  0.00  0.00    +0.163 HD
ATOM      6  H   UNL     1      16.412   8.872 -10.917  0.00  0.00    +0.159 HD
ATOM      7  H   UNL     1      15.377   9.942 -10.049  0.00  0.00    +0.159 HD
ATOM      8  H   UNL     1      14.306   6.049 -10.733  0.00  0.00    +0.159 HD
ATOM      9  H   UNL     1      15.805   6.671 -11.304  0.00  0.00    +0.159 HD
ENDROOT
BRANCH   1  10
ATOM     10  C   UNL     1      12.446   7.267  -9.446  0.00  0.00    +0.151 C 
BRANCH  10  11
ATOM     11  C   UNL     1      11.153   7.978  -9.156  0.00  0.00    -0.028 A 
ATOM     12  C   UNL     1      11.072   9.375  -9.250  0.00  0.00    +0.005 A 
ATOM     13  C   UNL     1      10.004   7.260  -8.791  0.00  0.00    +0.005 A 
ATOM     14  C   UNL     1       9.864  10.034  -9.009  0.00  0.00    +0.000 A 
ATOM     15  C   UNL     1       8.800   7.921  -8.550  0.00  0.00    +0.000 A 
ATOM     16  C   UNL     1       8.730   9.308  -8.662  0.00  0.00    +0.000 A 
ENDBRANCH  10  11
ENDBRANCH   1  10
TORSDOF 2
ENDMDL
MODEL 9
REMARK VINA RESULT:    -4.609     25.908     26.413
REMARK INTER + INTRA:          -5.287
REMARK INTER:                  -5.159
REMARK INTRA:                  -0.128
REMARK UNBOUND:                -0.139
REMARK  Name = 1550473
REMARK  2 active torsions:
REMARK  status: ('A' for Active; 'I' for Inactive)
REMARK    1  A    between atoms: N_1  and  C_4
REMARK    2  A    between atoms: C_4  and  C_5
REMARK                            x       y       z     vdW  Elec       q    Type
REMARK                         _______ _______ _______ _____ _____    ______ ____
ROOT
ATOM      1  N   UNL     1      19.347  -1.420  -3.133  0.00  0.00    -0.354 N 
ATOM      2  N   UNL     1      20.148  -3.372  -4.088  0.00  0.00    -0.372 N 
ATOM      3  N   UNL     1      18.570  -2.150  -5.220  0.00  0.00    -0.372 N 
ATOM      4  C   UNL     1      19.348  -2.300  -4.143  0.00  0.00    +0.166 C 
ATOM      5  H   UNL     1      19.937  -1.606  -2.331  0.00  0.00    +0.163 HD
ATOM      6  H   UNL     1      20.173  -4.051  -4.836  0.00  0.00    +0.159 HD
ATOM      7  H   UNL     1      20.771  -3.532  -3.305  0.00  0.00    +0.159 HD
ATOM      8  H   UNL     1      17.939  -1.366  -5.320  0.00  0.00    +0.159 HD
ATOM      9  H   UNL     1      18.573  -2.826  -5.974  0.00  0.00    +0.159 HD
ENDROOT
BRANCH   1  10
ATOM     10  C   UNL     1      18.552  -0.193  -3.119  0.00  0.00    +0.151 C 
BRANCH  10  11
ATOM     11  C   UNL     1      18.295   0.210  -1.694  0.00  0.00    -0.028 A 
ATOM     12  C   UNL     1      17.890   1.517  -1.385  0.00  0.00    +0.005 A 
ATOM     13  C   UNL     1      18.448  -0.713  -0.647  0.00  0.00    +0.005 A 
ATOM     14  C   UNL     1      17.621   1.883  -0.064  0.00  0.00    +0.000 A 
ATOM     15  C   UNL     1      18.180  -0.343   0.671  0.00  0.00    +0.000 A 
ATOM     16  C   UNL     1      17.764   0.954   0.962  0.00  0.00    +0.000 A 
ENDBRANCH  10  11
ENDBRANCH   1  10
TORSDOF 2
ENDMDL
