MODEL 1
REMARK VINA RESULT:    -5.325      0.000      0.000
REMARK INTER + INTRA:          -6.083
REMARK INTER:                  -5.948
REMARK INTRA:                  -0.135
REMARK UNBOUND:                -0.135
REMARK  Name = 1550473
REMARK  2 active torsions:
REMARK  status: ('A' for Active; 'I' for Inactive)
REMARK    1  A    between atoms: N_1  and  C_4
REMARK    2  A    between atoms: C_4  and  C_5
REMARK                            x       y       z     vdW  Elec       q    Type
REMARK                         _______ _______ _______ _____ _____    ______ ____
ROOT
ATOM      1  N   UNL     1       0.010  12.753   4.543  0.00  0.00    -0.354 N 
ATOM      2  N   UNL     1      -0.392  14.086   2.693  0.00  0.00    -0.372 N 
ATOM      3  N   UNL     1       1.721  14.036   3.586  0.00  0.00    -0.372 N 
ATOM      4  C   UNL     1       0.452  13.617   3.620  0.00  0.00    +0.166 C 
ATOM      5  H   UNL     1      -0.971  12.497   4.533  0.00  0.00    +0.163 HD
ATOM      6  H   UNL     1      -0.086  14.737   1.981  0.00  0.00    +0.159 HD
ATOM      7  H   UNL     1      -1.361  13.794   2.657  0.00  0.00    +0.159 HD
ATOM      8  H   UNL     1       2.407  13.724   4.261  0.00  0.00    +0.159 HD
ATOM      9  H   UNL     1       2.043  14.696   2.889  0.00  0.00    +0.159 HD
ENDROOT
BRANCH   1  10
ATOM     10  C   UNL     1       0.860  12.141   5.563  0.00  0.00    +0.151 C 
BRANCH  10  11
ATOM     11  C   UNL     1       1.149  10.718   5.173  0.00  0.00    -0.028 A 
ATOM     12  C   UNL     1       2.223  10.025   5.751  0.00  0.00    +0.005 A 
ATOM     13  C   UNL     1       0.349  10.054   4.230  0.00  0.00    +0.005 A 
ATOM     14  C   UNL     1       2.474   8.694   5.411  0.00  0.00    +0.000 A 
ATOM     15  C   UNL     1       0.603   8.725   3.893  0.00  0.00    +0.000 A 
ATOM     16  C   UNL     1       1.664   8.044   4.485  0.00  0.00    +0.000 A 
ENDBRANCH  10  11
ENDBRANCH   1  10
TORSDOF 2
ENDMDL
MODEL 2
REMARK VINA RESULT:    -5.181     14.046     15.244
REMARK INTER + INTRA:          -5.921
REMARK INTER:                  -5.781
REMARK INTRA:                  -0.140
REMARK UNBOUND:                -0.135
REMARK  Name = 1550473
REMARK  2 active torsions:
REMARK  status: ('A' for Active; 'I' for Inactive)
REMARK    1  A    between atoms: N_1  and  C_4
REMARK    2  A    between atoms: C_4  and  C_5
REMARK                            x       y       z     vdW  Elec       q    Type
REMARK                         _______ _______ _______ _____ _____    ______ ____
ROOT
ATOM      1  N   UNL     1      -7.363   6.194  -6.668  0.00  0.00    -0.354 N 
ATOM      2  N   UNL     1      -8.742   7.871  -7.475  0.00  0.00    -0.372 N 
ATOM      3  N   UNL     1      -6.556   8.371  -6.988  0.00  0.00    -0.372 N 
ATOM      4  C   UNL     1      -7.542   7.469  -7.038  0.00  0.00    +0.166 C 
ATOM      5  H   UNL     1      -8.158   5.567  -6.701  0.00  0.00    +0.163 HD
ATOM      6  H   UNL     1      -8.906   8.826  -7.764  0.00  0.00    +0.159 HD
ATOM      7  H   UNL     1      -9.523   7.231  -7.550  0.00  0.00    +0.159 HD
ATOM      8  H   UNL     1      -5.629   8.133  -6.662  0.00  0.00    +0.159 HD
ATOM      9  H   UNL     1      -6.704   9.334  -7.261  0.00  0.00    +0.159 HD
ENDROOT
BRANCH   1  10
ATOM     10  C   UNL     1      -6.082   5.642  -6.229  0.00  0.00    +0.151 C 
BRANCH  10  11
ATOM     11  C   UNL     1      -5.789   4.395  -7.016  0.00  0.00    -0.028 A 
ATOM     12  C   UNL     1      -4.740   3.545  -6.638  0.00  0.00    +0.005 A 
ATOM     13  C   UNL     1      -6.560   4.055  -8.138  0.00  0.00    +0.005 A 
ATOM     14  C   UNL     1      -4.486   2.370  -7.351  0.00  0.00    +0.000 A 
ATOM     15  C   UNL     1      -6.302   2.882  -8.848  0.00  0.00    +0.000 A 
ATOM     16  C   UNL     1      -5.267   2.039  -8.453  0.00  0.00    +0.000 A 
ENDBRANCH  10  11
ENDBRANCH   1  10
TORSDOF 2
ENDMDL
MODEL 3
REMARK VINA RESULT:    -5.147     27.561     28.480
REMARK INTER + INTRA:          -5.883
REMARK INTER:                  -5.739
REMARK INTRA:                  -0.144
REMARK UNBOUND:                -0.135
REMARK  Name = 1550473
REMARK  2 active torsions:
REMARK  status: ('A' for Active; 'I' for Inactive)
REMARK    1  A    between atoms: N_1  and  C_4
REMARK    2  A    between atoms: C_4  and  C_5
REMARK                            x       y       z     vdW  Elec       q    Type
REMARK                         _______ _______ _______ _____ _____    ______ ____
ROOT
ATOM      1  N   UNL     1      -5.020 -15.645  -2.962  0.00  0.00    -0.354 N 
ATOM      2  N   UNL     1      -3.913 -15.164  -4.939  0.00  0.00    -0.372 N 
ATOM      3  N   UNL     1      -5.571 -16.751  -4.954  0.00  0.00    -0.372 N 
ATOM      4  C   UNL     1      -4.843 -15.859  -4.273  0.00  0.00    +0.166 C 
ATOM      5  H   UNL     1      -4.416 -14.977  -2.498  0.00  0.00    +0.163 HD
ATOM      6  H   UNL     1      -3.760 -15.301  -5.929  0.00  0.00    +0.159 HD
ATOM      7  H   UNL     1      -3.342 -14.464  -4.482  0.00  0.00    +0.159 HD
ATOM      8  H   UNL     1      -6.285 -17.311  -4.508  0.00  0.00    +0.159 HD
ATOM      9  H   UNL     1      -5.424 -16.910  -5.943  0.00  0.00    +0.159 HD
ENDROOT
BRANCH   1  10
ATOM     10  C   UNL     1      -6.042 -16.310  -2.156  0.00  0.00    +0.151 C 
BRANCH  10  11
ATOM     11  C   UNL     1      -7.070 -15.297  -1.734  0.00  0.00    -0.028 A 
ATOM     12  C   UNL     1      -7.236 -14.973  -0.380  0.00  0.00    +0.005 A 
ATOM     13  C   UNL     1      -7.878 -14.655  -2.684  0.00  0.00    +0.005 A 
ATOM     14  C   UNL     1      -8.170 -14.010   0.010  0.00  0.00    +0.000 A 
ATOM     15  C   UNL     1      -8.811 -13.695  -2.291  0.00  0.00    +0.000 A 
ATOM     16  C   UNL     1      -8.955 -13.371  -0.944  0.00  0.00    +0.000 A 
ENDBRANCH  10  11
ENDBRANCH   1  10
TORSDOF 2
ENDMDL
MODEL 4
REMARK VINA RESULT:    -5.140     14.257     15.444
REMARK INTER + INTRA:          -5.876
REMARK INTER:                  -5.756
REMARK INTRA:                  -0.121
REMARK UNBOUND:                -0.135
REMARK  Name = 1550473
REMARK  2 active torsions:
REMARK  status: ('A' for Active; 'I' for Inactive)
REMARK    1  A    between atoms: N_1  and  C_4
REMARK    2  A    between atoms: C_4  and  C_5
REMARK                            x       y       z     vdW  Elec       q    Type
REMARK                         _______ _______ _______ _____ _____    ______ ____
ROOT
ATOM      1  N   UNL     1      -6.910   6.633  -7.217  0.00  0.00    -0.354 N 
ATOM      2  N   UNL     1      -7.144   8.745  -6.298  0.00  0.00    -0.372 N 
ATOM      3  N   UNL     1      -8.850   7.898  -7.578  0.00  0.00    -0.372 N 
ATOM      4  C   UNL     1      -7.636   7.745  -7.039  0.00  0.00    +0.166 C 
ATOM      5  H   UNL     1      -5.985   6.590  -6.807  0.00  0.00    +0.163 HD
ATOM      6  H   UNL     1      -7.670   9.595  -6.142  0.00  0.00    +0.159 HD
ATOM      7  H   UNL     1      -6.238   8.682  -5.850  0.00  0.00    +0.159 HD
ATOM      8  H   UNL     1      -9.274   7.182  -8.153  0.00  0.00    +0.159 HD
ATOM      9  H   UNL     1      -9.386   8.746  -7.444  0.00  0.00    +0.159 HD
ENDROOT
BRANCH   1  10
ATOM     10  C   UNL     1      -7.376   5.464  -7.962  0.00  0.00    +0.151 C 
BRANCH  10  11
ATOM     11  C   UNL     1      -6.370   4.355  -7.814  0.00  0.00    -0.028 A 
ATOM     12  C   UNL     1      -6.328   3.304  -8.742  0.00  0.00    +0.005 A 
ATOM     13  C   UNL     1      -5.454   4.353  -6.752  0.00  0.00    +0.005 A 
ATOM     14  C   UNL     1      -5.375   2.290  -8.622  0.00  0.00    +0.000 A 
ATOM     15  C   UNL     1      -4.504   3.338  -6.635  0.00  0.00    +0.000 A 
ATOM     16  C   UNL     1      -4.464   2.308  -7.572  0.00  0.00    +0.000 A 
ENDBRANCH  10  11
ENDBRANCH   1  10
TORSDOF 2
ENDMDL
MODEL 5
REMARK VINA RESULT:    -4.990     13.283     14.700
REMARK INTER + INTRA:          -5.708
REMARK INTER:                  -5.569
REMARK INTRA:                  -0.139
REMARK UNBOUND:                -0.135
REMARK  Name = 1550473
REMARK  2 active torsions:
REMARK  status: ('A' for Active; 'I' for Inactive)
REMARK    1  A    between atoms: N_1  and  C_4
REMARK    2  A    between atoms: C_4  and  C_5
REMARK                            x       y       z     vdW  Elec       q    Type
REMARK                         _______ _______ _______ _____ _____    ______ ____
ROOT
ATOM      1  N   UNL     1      -3.472   3.700  -4.935  0.00  0.00    -0.354 N 
ATOM      2  N   UNL     1      -3.305   5.126  -3.117  0.00  0.00    -0.372 N 
ATOM      3  N   UNL     1      -1.778   5.315  -4.819  0.00  0.00    -0.372 N 
ATOM      4  C   UNL     1      -2.850   4.705  -4.304  0.00  0.00    +0.166 C 
ATOM      5  H   UNL     1      -4.262   3.260  -4.477  0.00  0.00    +0.163 HD
ATOM      6  H   UNL     1      -2.858   5.885  -2.619  0.00  0.00    +0.159 HD
ATOM      7  H   UNL     1      -4.122   4.714  -2.683  0.00  0.00    +0.159 HD
ATOM      8  H   UNL     1      -1.382   5.041  -5.708  0.00  0.00    +0.159 HD
ATOM      9  H   UNL     1      -1.310   6.068  -4.330  0.00  0.00    +0.159 HD
ENDROOT
BRANCH   1  10
ATOM     10  C   UNL     1      -3.090   3.203  -6.255  0.00  0.00    +0.151 C 
BRANCH  10  11
ATOM     11  C   UNL     1      -4.312   3.138  -7.129  0.00  0.00    -0.028 A 
ATOM     12  C   UNL     1      -5.252   4.179  -7.116  0.00  0.00    +0.005 A 
ATOM     13  C   UNL     1      -4.533   2.042  -7.976  0.00  0.00    +0.005 A 
ATOM     14  C   UNL     1      -6.372   4.134  -7.949  0.00  0.00    +0.000 A 
ATOM     15  C   UNL     1      -5.653   2.000  -8.806  0.00  0.00    +0.000 A 
ATOM     16  C   UNL     1      -6.571   3.047  -8.794  0.00  0.00    +0.000 A 
ENDBRANCH  10  11
ENDBRANCH   1  10
TORSDOF 2
ENDMDL
MODEL 6
REMARK VINA RESULT:    -4.874      1.531      2.493
REMARK INTER + INTRA:          -5.578
REMARK INTER:                  -5.394
REMARK INTRA:                  -0.184
REMARK UNBOUND:                -0.135
REMARK  Name = 1550473
REMARK  2 active torsions:
REMARK  status: ('A' for Active; 'I' for Inactive)
REMARK    1  A    between atoms: N_1  and  C_4
REMARK    2  A    between atoms: C_4  and  C_5
REMARK                            x       y       z     vdW  Elec       q    Type
REMARK                         _______ _______ _______ _____ _____    ______ ____
ROOT
ATOM      1  N   UNL     1       1.354  12.223   2.720  0.00  0.00    -0.354 N 
ATOM      2  N   UNL     1       2.796  13.530   1.465  0.00  0.00    -0.372 N 
ATOM      3  N   UNL     1       1.646  14.499   3.198  0.00  0.00    -0.372 N 
ATOM      4  C   UNL     1       1.921  13.411   2.471  0.00  0.00    +0.166 C 
ATOM      5  H   UNL     1       1.582  11.444   2.113  0.00  0.00    +0.163 HD
ATOM      6  H   UNL     1       3.243  14.413   1.256  0.00  0.00    +0.159 HD
ATOM      7  H   UNL     1       3.057  12.739   0.889  0.00  0.00    +0.159 HD
ATOM      8  H   UNL     1       0.990  14.477   3.968  0.00  0.00    +0.159 HD
ATOM      9  H   UNL     1       2.074  15.394   2.997  0.00  0.00    +0.159 HD
ENDROOT
BRANCH   1  10
ATOM     10  C   UNL     1       0.429  11.974   3.825  0.00  0.00    +0.151 C 
BRANCH  10  11
ATOM     11  C   UNL     1       1.183  11.343   4.963  0.00  0.00    -0.028 A 
ATOM     12  C   UNL     1       1.738  10.062   4.826  0.00  0.00    +0.005 A 
ATOM     13  C   UNL     1       1.351  12.023   6.179  0.00  0.00    +0.005 A 
ATOM     14  C   UNL     1       2.464   9.488   5.872  0.00  0.00    +0.000 A 
ATOM     15  C   UNL     1       2.075  11.445   7.222  0.00  0.00    +0.000 A 
ATOM     16  C   UNL     1       2.634  10.179   7.067  0.00  0.00    +0.000 A 
ENDBRANCH  10  11
ENDBRANCH   1  10
TORSDOF 2
ENDMDL
MODEL 7
REMARK VINA RESULT:    -4.781      3.625      4.819
REMARK INTER + INTRA:          -5.475
REMARK INTER:                  -5.301
REMARK INTRA:                  -0.174
REMARK UNBOUND:                -0.135
REMARK  Name = 1550473
REMARK  2 active torsions:
REMARK  status: ('A' for Active; 'I' for Inactive)
REMARK    1  A    between atoms: N_1  and  C_4
REMARK    2  A    between atoms: C_4  and  C_5
REMARK                            x       y       z     vdW  Elec       q    Type
REMARK                         _______ _______ _______ _____ _____    ______ ____
ROOT
ATOM      1  N   UNL     1       2.939   8.319   3.223  0.00  0.00    -0.354 N 
ATOM      2  N   UNL     1       5.020   8.093   2.233  0.00  0.00    -0.372 N 
ATOM      3  N   UNL     1       4.693   7.235   4.336  0.00  0.00    -0.372 N 
ATOM      4  C   UNL     1       4.204   7.882   3.273  0.00  0.00    +0.166 C 
ATOM      5  H   UNL     1       2.638   8.829   2.401  0.00  0.00    +0.163 HD
ATOM      6  H   UNL     1       5.979   7.772   2.241  0.00  0.00    +0.159 HD
ATOM      7  H   UNL     1       4.704   8.563   1.394  0.00  0.00    +0.159 HD
ATOM      8  H   UNL     1       4.130   7.049   5.156  0.00  0.00    +0.159 HD
ATOM      9  H   UNL     1       5.653   6.916   4.368  0.00  0.00    +0.159 HD
ENDROOT
BRANCH   1  10
ATOM     10  C   UNL     1       1.954   8.094   4.279  0.00  0.00    +0.151 C 
BRANCH  10  11
ATOM     11  C   UNL     1       1.794   9.357   5.079  0.00  0.00    -0.028 A 
ATOM     12  C   UNL     1       2.601   9.596   6.201  0.00  0.00    +0.005 A 
ATOM     13  C   UNL     1       0.842  10.322   4.716  0.00  0.00    +0.005 A 
ATOM     14  C   UNL     1       2.473  10.783   6.927  0.00  0.00    +0.000 A 
ATOM     15  C   UNL     1       0.717  11.506   5.444  0.00  0.00    +0.000 A 
ATOM     16  C   UNL     1       1.535  11.737   6.547  0.00  0.00    +0.000 A 
ENDBRANCH  10  11
ENDBRANCH   1  10
TORSDOF 2
ENDMDL
MODEL 8
REMARK VINA RESULT:    -4.653      3.402      4.738
REMARK INTER + INTRA:          -5.332
REMARK INTER:                  -5.205
REMARK INTRA:                  -0.127
REMARK UNBOUND:                -0.135
REMARK  Name = 1550473
REMARK  2 active torsions:
REMARK  status: ('A' for Active; 'I' for Inactive)
REMARK    1  A    between atoms: N_1  and  C_4
REMARK    2  A    between atoms: C_4  and  C_5
REMARK                            x       y       z     vdW  Elec       q    Type
REMARK                         _______ _______ _______ _____ _____    ______ ____
ROOT
ATOM      1  N   UNL     1       0.708   8.092   3.205  0.00  0.00    -0.354 N 
ATOM      2  N   UNL     1      -0.805   6.977   1.852  0.00  0.00    -0.372 N 
ATOM      3  N   UNL     1       0.758   5.758   3.007  0.00  0.00    -0.372 N 
ATOM      4  C   UNL     1       0.232   6.948   2.698  0.00  0.00    +0.166 C 
ATOM      5  H   UNL     1       0.285   8.964   2.907  0.00  0.00    +0.163 HD
ATOM      6  H   UNL     1      -1.188   6.130   1.456  0.00  0.00    +0.159 HD
ATOM      7  H   UNL     1      -1.256   7.846   1.592  0.00  0.00    +0.159 HD
ATOM      8  H   UNL     1       1.546   5.668   3.634  0.00  0.00    +0.159 HD
ATOM      9  H   UNL     1       0.396   4.899   2.611  0.00  0.00    +0.159 HD
ENDROOT
BRANCH   1  10
ATOM     10  C   UNL     1       1.800   8.165   4.175  0.00  0.00    +0.151 C 
BRANCH  10  11
ATOM     11  C   UNL     1       1.669   9.437   4.967  0.00  0.00    -0.028 A 
ATOM     12  C   UNL     1       2.533   9.700   6.039  0.00  0.00    +0.005 A 
ATOM     13  C   UNL     1       0.685  10.386   4.646  0.00  0.00    +0.005 A 
ATOM     14  C   UNL     1       2.431  10.895   6.756  0.00  0.00    +0.000 A 
ATOM     15  C   UNL     1       0.586  11.577   5.365  0.00  0.00    +0.000 A 
ATOM     16  C   UNL     1       1.461  11.832   6.418  0.00  0.00    +0.000 A 
ENDBRANCH  10  11
ENDBRANCH   1  10
TORSDOF 2
ENDMDL
MODEL 9
REMARK VINA RESULT:    -4.593     13.286     14.675
REMARK INTER + INTRA:          -5.265
REMARK INTER:                  -5.101
REMARK INTRA:                  -0.164
REMARK UNBOUND:                -0.135
REMARK  Name = 1550473
REMARK  2 active torsions:
REMARK  status: ('A' for Active; 'I' for Inactive)
REMARK    1  A    between atoms: N_1  and  C_4
REMARK    2  A    between atoms: C_4  and  C_5
REMARK                            x       y       z     vdW  Elec       q    Type
REMARK                         _______ _______ _______ _____ _____    ______ ____
ROOT
ATOM      1  N   UNL     1      -4.204   6.203  -6.480  0.00  0.00    -0.354 N 
ATOM      2  N   UNL     1      -5.666   7.416  -5.156  0.00  0.00    -0.372 N 
ATOM      3  N   UNL     1      -4.772   5.472  -4.327  0.00  0.00    -0.372 N 
ATOM      4  C   UNL     1      -4.871   6.353  -5.328  0.00  0.00    +0.166 C 
ATOM      5  H   UNL     1      -4.345   6.890  -7.211  0.00  0.00    +0.163 HD
ATOM      6  H   UNL     1      -6.179   7.558  -4.296  0.00  0.00    +0.159 HD
ATOM      7  H   UNL     1      -5.770   8.125  -5.871  0.00  0.00    +0.159 HD
ATOM      8  H   UNL     1      -4.193   4.646  -4.396  0.00  0.00    +0.159 HD
ATOM      9  H   UNL     1      -5.287   5.591  -3.463  0.00  0.00    +0.159 HD
ENDROOT
BRANCH   1  10
ATOM     10  C   UNL     1      -3.270   5.110  -6.748  0.00  0.00    +0.151 C 
BRANCH  10  11
ATOM     11  C   UNL     1      -4.005   3.994  -7.439  0.00  0.00    -0.028 A 
ATOM     12  C   UNL     1      -4.757   4.247  -8.596  0.00  0.00    +0.005 A 
ATOM     13  C   UNL     1      -3.950   2.682  -6.945  0.00  0.00    +0.005 A 
ATOM     14  C   UNL     1      -5.415   3.206  -9.255  0.00  0.00    +0.000 A 
ATOM     15  C   UNL     1      -4.609   1.646  -7.605  0.00  0.00    +0.000 A 
ATOM     16  C   UNL     1      -5.340   1.908  -8.762  0.00  0.00    +0.000 A 
ENDBRANCH  10  11
ENDBRANCH   1  10
TORSDOF 2
ENDMDL
