MODEL 1
REMARK VINA RESULT:    -5.521      0.000      0.000
REMARK INTER + INTRA:          -6.298
REMARK INTER:                  -6.166
REMARK INTRA:                  -0.132
REMARK UNBOUND:                -0.132
REMARK  Name = 1550473
REMARK  2 active torsions:
REMARK  status: ('A' for Active; 'I' for Inactive)
REMARK    1  A    between atoms: N_1  and  C_4
REMARK    2  A    between atoms: C_4  and  C_5
REMARK                            x       y       z     vdW  Elec       q    Type
REMARK                         _______ _______ _______ _____ _____    ______ ____
ROOT
ATOM      1  N   UNL     1      -4.044 -10.171 -11.712  0.00  0.00    -0.354 N 
ATOM      2  N   UNL     1      -6.291  -9.668 -11.471  0.00  0.00    -0.372 N 
ATOM      3  N   UNL     1      -5.647 -11.870 -11.523  0.00  0.00    -0.372 N 
ATOM      4  C   UNL     1      -5.313 -10.576 -11.570  0.00  0.00    +0.166 C 
ATOM      5  H   UNL     1      -3.859  -9.176 -11.771  0.00  0.00    +0.163 HD
ATOM      6  H   UNL     1      -7.258  -9.943 -11.360  0.00  0.00    +0.159 HD
ATOM      7  H   UNL     1      -6.099  -8.674 -11.484  0.00  0.00    +0.159 HD
ATOM      8  H   UNL     1      -4.957 -12.604 -11.598  0.00  0.00    +0.159 HD
ATOM      9  H   UNL     1      -6.611 -12.165 -11.424  0.00  0.00    +0.159 HD
ENDROOT
BRANCH   1  10
ATOM     10  C   UNL     1      -2.899 -11.078 -11.775  0.00  0.00    +0.151 C 
BRANCH  10  11
ATOM     11  C   UNL     1      -2.117 -10.795 -13.028  0.00  0.00    -0.028 A 
ATOM     12  C   UNL     1      -1.714 -11.844 -13.868  0.00  0.00    +0.005 A 
ATOM     13  C   UNL     1      -1.780  -9.480 -13.383  0.00  0.00    +0.005 A 
ATOM     14  C   UNL     1      -1.014 -11.579 -15.047  0.00  0.00    +0.000 A 
ATOM     15  C   UNL     1      -1.080  -9.220 -14.561  0.00  0.00    +0.000 A 
ATOM     16  C   UNL     1      -0.699 -10.269 -15.394  0.00  0.00    +0.000 A 
ENDBRANCH  10  11
ENDBRANCH   1  10
TORSDOF 2
ENDMDL
MODEL 2
REMARK VINA RESULT:    -5.482      2.175      3.246
REMARK INTER + INTRA:          -6.255
REMARK INTER:                  -6.090
REMARK INTRA:                  -0.165
REMARK UNBOUND:                -0.132
REMARK  Name = 1550473
REMARK  2 active torsions:
REMARK  status: ('A' for Active; 'I' for Inactive)
REMARK    1  A    between atoms: N_1  and  C_4
REMARK    2  A    between atoms: C_4  and  C_5
REMARK                            x       y       z     vdW  Elec       q    Type
REMARK                         _______ _______ _______ _____ _____    ______ ____
ROOT
ATOM      1  N   UNL     1      -7.178 -10.700 -11.213  0.00  0.00    -0.354 N 
ATOM      2  N   UNL     1      -9.409 -10.922 -11.797  0.00  0.00    -0.372 N 
ATOM      3  N   UNL     1      -8.396 -12.612 -10.620  0.00  0.00    -0.372 N 
ATOM      4  C   UNL     1      -8.313 -11.413 -11.205  0.00  0.00    +0.166 C 
ATOM      5  H   UNL     1      -7.172  -9.811 -11.699  0.00  0.00    +0.163 HD
ATOM      6  H   UNL     1     -10.280 -11.436 -11.804  0.00  0.00    +0.159 HD
ATOM      7  H   UNL     1      -9.412 -10.013 -12.243  0.00  0.00    +0.159 HD
ATOM      8  H   UNL     1      -7.603 -13.041 -10.162  0.00  0.00    +0.159 HD
ATOM      9  H   UNL     1      -9.256 -13.147 -10.627  0.00  0.00    +0.159 HD
ENDROOT
BRANCH   1  10
ATOM     10  C   UNL     1      -5.944 -11.119 -10.551  0.00  0.00    +0.151 C 
BRANCH  10  11
ATOM     11  C   UNL     1      -4.903 -11.414 -11.595  0.00  0.00    -0.028 A 
ATOM     12  C   UNL     1      -4.643 -12.735 -11.988  0.00  0.00    +0.005 A 
ATOM     13  C   UNL     1      -4.176 -10.377 -12.199  0.00  0.00    +0.005 A 
ATOM     14  C   UNL     1      -3.697 -13.008 -12.979  0.00  0.00    +0.000 A 
ATOM     15  C   UNL     1      -3.232 -10.653 -13.187  0.00  0.00    +0.000 A 
ATOM     16  C   UNL     1      -2.994 -11.968 -13.579  0.00  0.00    +0.000 A 
ENDBRANCH  10  11
ENDBRANCH   1  10
TORSDOF 2
ENDMDL
MODEL 3
REMARK VINA RESULT:    -5.414      2.495      3.649
REMARK INTER + INTRA:          -6.179
REMARK INTER:                  -6.036
REMARK INTRA:                  -0.144
REMARK UNBOUND:                -0.132
REMARK  Name = 1550473
REMARK  2 active torsions:
REMARK  status: ('A' for Active; 'I' for Inactive)
REMARK    1  A    between atoms: N_1  and  C_4
REMARK    2  A    between atoms: C_4  and  C_5
REMARK                            x       y       z     vdW  Elec       q    Type
REMARK                         _______ _______ _______ _____ _____    ______ ____
ROOT
ATOM      1  N   UNL     1      -4.423 -12.608 -12.979  0.00  0.00    -0.354 N 
ATOM      2  N   UNL     1      -6.025 -12.716 -11.309  0.00  0.00    -0.372 N 
ATOM      3  N   UNL     1      -4.029 -11.673 -10.866  0.00  0.00    -0.372 N 
ATOM      4  C   UNL     1      -4.813 -12.331 -11.727  0.00  0.00    +0.166 C 
ATOM      5  H   UNL     1      -5.052 -13.136 -13.573  0.00  0.00    +0.163 HD
ATOM      6  H   UNL     1      -6.348 -12.517 -10.372  0.00  0.00    +0.159 HD
ATOM      7  H   UNL     1      -6.670 -13.203 -11.920  0.00  0.00    +0.159 HD
ATOM      8  H   UNL     1      -3.101 -11.361 -11.118  0.00  0.00    +0.159 HD
ATOM      9  H   UNL     1      -4.330 -11.476  -9.920  0.00  0.00    +0.159 HD
ENDROOT
BRANCH   1  10
ATOM     10  C   UNL     1      -3.145 -12.187 -13.549  0.00  0.00    +0.151 C 
BRANCH  10  11
ATOM     11  C   UNL     1      -2.380 -13.403 -13.991  0.00  0.00    -0.028 A 
ATOM     12  C   UNL     1      -1.842 -13.475 -15.285  0.00  0.00    +0.005 A 
ATOM     13  C   UNL     1      -2.183 -14.485 -13.120  0.00  0.00    +0.005 A 
ATOM     14  C   UNL     1      -1.105 -14.592 -15.686  0.00  0.00    +0.000 A 
ATOM     15  C   UNL     1      -1.447 -15.599 -13.524  0.00  0.00    +0.000 A 
ATOM     16  C   UNL     1      -0.906 -15.650 -14.806  0.00  0.00    +0.000 A 
ENDBRANCH  10  11
ENDBRANCH   1  10
TORSDOF 2
ENDMDL
MODEL 4
REMARK VINA RESULT:    -5.410      1.261      1.874
REMARK INTER + INTRA:          -6.174
REMARK INTER:                  -6.041
REMARK INTRA:                  -0.134
REMARK UNBOUND:                -0.132
REMARK  Name = 1550473
REMARK  2 active torsions:
REMARK  status: ('A' for Active; 'I' for Inactive)
REMARK    1  A    between atoms: N_1  and  C_4
REMARK    2  A    between atoms: C_4  and  C_5
REMARK                            x       y       z     vdW  Elec       q    Type
REMARK                         _______ _______ _______ _____ _____    ______ ____
ROOT
ATOM      1  N   UNL     1      -4.680 -11.206 -11.335  0.00  0.00    -0.354 N 
ATOM      2  N   UNL     1      -6.444 -11.984 -10.050  0.00  0.00    -0.372 N 
ATOM      3  N   UNL     1      -6.732 -10.074 -11.289  0.00  0.00    -0.372 N 
ATOM      4  C   UNL     1      -5.942 -11.081 -10.901  0.00  0.00    +0.166 C 
ATOM      5  H   UNL     1      -4.123 -11.975 -10.980  0.00  0.00    +0.163 HD
ATOM      6  H   UNL     1      -7.393 -11.917  -9.708  0.00  0.00    +0.159 HD
ATOM      7  H   UNL     1      -5.900 -12.777  -9.732  0.00  0.00    +0.159 HD
ATOM      8  H   UNL     1      -6.411  -9.356 -11.925  0.00  0.00    +0.159 HD
ATOM      9  H   UNL     1      -7.681  -9.983 -10.948  0.00  0.00    +0.159 HD
ENDROOT
BRANCH   1  10
ATOM     10  C   UNL     1      -4.056 -10.307 -12.303  0.00  0.00    +0.151 C 
BRANCH  10  11
ATOM     11  C   UNL     1      -3.149 -11.105 -13.200  0.00  0.00    -0.028 A 
ATOM     12  C   UNL     1      -3.360 -12.479 -13.386  0.00  0.00    +0.005 A 
ATOM     13  C   UNL     1      -2.081 -10.491 -13.871  0.00  0.00    +0.005 A 
ATOM     14  C   UNL     1      -2.537 -13.214 -14.242  0.00  0.00    +0.000 A 
ATOM     15  C   UNL     1      -1.260 -11.228 -14.725  0.00  0.00    +0.000 A 
ATOM     16  C   UNL     1      -1.490 -12.589 -14.912  0.00  0.00    +0.000 A 
ENDBRANCH  10  11
ENDBRANCH   1  10
TORSDOF 2
ENDMDL
MODEL 5
REMARK VINA RESULT:    -5.374      2.520      3.784
REMARK INTER + INTRA:          -6.134
REMARK INTER:                  -5.995
REMARK INTRA:                  -0.139
REMARK UNBOUND:                -0.132
REMARK  Name = 1550473
REMARK  2 active torsions:
REMARK  status: ('A' for Active; 'I' for Inactive)
REMARK    1  A    between atoms: N_1  and  C_4
REMARK    2  A    between atoms: C_4  and  C_5
REMARK                            x       y       z     vdW  Elec       q    Type
REMARK                         _______ _______ _______ _____ _____    ______ ____
ROOT
ATOM      1  N   UNL     1      -2.252 -11.706 -12.485  0.00  0.00    -0.354 N 
ATOM      2  N   UNL     1      -3.106 -11.043 -10.436  0.00  0.00    -0.372 N 
ATOM      3  N   UNL     1      -4.375 -10.728 -12.322  0.00  0.00    -0.372 N 
ATOM      4  C   UNL     1      -3.241 -11.162 -11.763  0.00  0.00    +0.166 C 
ATOM      5  H   UNL     1      -1.405 -11.988 -12.005  0.00  0.00    +0.163 HD
ATOM      6  H   UNL     1      -3.837 -10.641  -9.865  0.00  0.00    +0.159 HD
ATOM      7  H   UNL     1      -2.277 -11.368  -9.954  0.00  0.00    +0.159 HD
ATOM      8  H   UNL     1      -4.537 -10.784 -13.319  0.00  0.00    +0.159 HD
ATOM      9  H   UNL     1      -5.113 -10.311 -11.768  0.00  0.00    +0.159 HD
ENDROOT
BRANCH   1  10
ATOM     10  C   UNL     1      -2.321 -11.930 -13.928  0.00  0.00    +0.151 C 
BRANCH  10  11
ATOM     11  C   UNL     1      -1.882 -13.337 -14.228  0.00  0.00    -0.028 A 
ATOM     12  C   UNL     1      -1.853 -14.305 -13.213  0.00  0.00    +0.005 A 
ATOM     13  C   UNL     1      -1.500 -13.710 -15.525  0.00  0.00    +0.005 A 
ATOM     14  C   UNL     1      -1.474 -15.620 -13.498  0.00  0.00    +0.000 A 
ATOM     15  C   UNL     1      -1.122 -15.023 -15.805  0.00  0.00    +0.000 A 
ATOM     16  C   UNL     1      -1.112 -15.978 -14.791  0.00  0.00    +0.000 A 
ENDBRANCH  10  11
ENDBRANCH   1  10
TORSDOF 2
ENDMDL
MODEL 6
REMARK VINA RESULT:    -5.329     29.146     30.572
REMARK INTER + INTRA:          -6.084
REMARK INTER:                  -6.165
REMARK INTRA:                   0.082
REMARK UNBOUND:                -0.132
REMARK  Name = 1550473
REMARK  2 active torsions:
REMARK  status: ('A' for Active; 'I' for Inactive)
REMARK    1  A    between atoms: N_1  and  C_4
REMARK    2  A    between atoms: C_4  and  C_5
REMARK                            x       y       z     vdW  Elec       q    Type
REMARK                         _______ _______ _______ _____ _____    ______ ____
ROOT
ATOM      1  N   UNL     1      -5.054  -1.660  16.513  0.00  0.00    -0.354 N 
ATOM      2  N   UNL     1      -4.466  -0.652  18.514  0.00  0.00    -0.372 N 
ATOM      3  N   UNL     1      -2.962  -2.053  17.494  0.00  0.00    -0.372 N 
ATOM      4  C   UNL     1      -4.162  -1.463  17.493  0.00  0.00    +0.166 C 
ATOM      5  H   UNL     1      -5.958  -1.207  16.587  0.00  0.00    +0.163 HD
ATOM      6  H   UNL     1      -3.812  -0.482  19.266  0.00  0.00    +0.159 HD
ATOM      7  H   UNL     1      -5.353  -0.165  18.561  0.00  0.00    +0.159 HD
ATOM      8  H   UNL     1      -2.674  -2.681  16.755  0.00  0.00    +0.159 HD
ATOM      9  H   UNL     1      -2.299  -1.904  18.243  0.00  0.00    +0.159 HD
ENDROOT
BRANCH   1  10
ATOM     10  C   UNL     1      -4.802  -2.482  15.331  0.00  0.00    +0.151 C 
BRANCH  10  11
ATOM     11  C   UNL     1      -5.261  -3.888  15.603  0.00  0.00    -0.028 A 
ATOM     12  C   UNL     1      -5.824  -4.226  16.842  0.00  0.00    +0.005 A 
ATOM     13  C   UNL     1      -5.140  -4.885  14.623  0.00  0.00    +0.005 A 
ATOM     14  C   UNL     1      -6.278  -5.524  17.084  0.00  0.00    +0.000 A 
ATOM     15  C   UNL     1      -5.594  -6.181  14.869  0.00  0.00    +0.000 A 
ATOM     16  C   UNL     1      -6.165  -6.500  16.099  0.00  0.00    +0.000 A 
ENDBRANCH  10  11
ENDBRANCH   1  10
TORSDOF 2
ENDMDL
MODEL 7
REMARK VINA RESULT:    -5.157     30.095     31.713
REMARK INTER + INTRA:          -5.892
REMARK INTER:                  -5.723
REMARK INTRA:                  -0.169
REMARK UNBOUND:                -0.132
REMARK  Name = 1550473
REMARK  2 active torsions:
REMARK  status: ('A' for Active; 'I' for Inactive)
REMARK    1  A    between atoms: N_1  and  C_4
REMARK    2  A    between atoms: C_4  and  C_5
REMARK                            x       y       z     vdW  Elec       q    Type
REMARK                         _______ _______ _______ _____ _____    ______ ____
ROOT
ATOM      1  N   UNL     1      -5.496  -2.629  19.379  0.00  0.00    -0.354 N 
ATOM      2  N   UNL     1      -3.824  -1.915  20.814  0.00  0.00    -0.372 N 
ATOM      3  N   UNL     1      -4.432  -0.566  19.061  0.00  0.00    -0.372 N 
ATOM      4  C   UNL     1      -4.595  -1.706  19.740  0.00  0.00    +0.166 C 
ATOM      5  H   UNL     1      -5.550  -3.486  19.918  0.00  0.00    +0.163 HD
ATOM      6  H   UNL     1      -3.138  -1.235  21.112  0.00  0.00    +0.159 HD
ATOM      7  H   UNL     1      -3.912  -2.752  21.378  0.00  0.00    +0.159 HD
ATOM      8  H   UNL     1      -4.978  -0.350  18.237  0.00  0.00    +0.159 HD
ATOM      9  H   UNL     1      -3.742   0.122  19.337  0.00  0.00    +0.159 HD
ENDROOT
BRANCH   1  10
ATOM     10  C   UNL     1      -6.421  -2.474  18.257  0.00  0.00    +0.151 C 
BRANCH  10  11
ATOM     11  C   UNL     1      -5.864  -3.191  17.059  0.00  0.00    -0.028 A 
ATOM     12  C   UNL     1      -6.039  -4.575  16.911  0.00  0.00    +0.005 A 
ATOM     13  C   UNL     1      -5.164  -2.491  16.064  0.00  0.00    +0.005 A 
ATOM     14  C   UNL     1      -5.548  -5.236  15.783  0.00  0.00    +0.000 A 
ATOM     15  C   UNL     1      -4.674  -3.156  14.939  0.00  0.00    +0.000 A 
ATOM     16  C   UNL     1      -4.868  -4.527  14.798  0.00  0.00    +0.000 A 
ENDBRANCH  10  11
ENDBRANCH   1  10
TORSDOF 2
ENDMDL
MODEL 8
REMARK VINA RESULT:    -5.079      1.320      2.251
REMARK INTER + INTRA:          -5.805
REMARK INTER:                  -5.745
REMARK INTRA:                  -0.060
REMARK UNBOUND:                -0.132
REMARK  Name = 1550473
REMARK  2 active torsions:
REMARK  status: ('A' for Active; 'I' for Inactive)
REMARK    1  A    between atoms: N_1  and  C_4
REMARK    2  A    between atoms: C_4  and  C_5
REMARK                            x       y       z     vdW  Elec       q    Type
REMARK                         _______ _______ _______ _____ _____    ______ ____
ROOT
ATOM      1  N   UNL     1      -2.074 -10.395 -12.279  0.00  0.00    -0.354 N 
ATOM      2  N   UNL     1      -3.365 -11.575 -10.761  0.00  0.00    -0.372 N 
ATOM      3  N   UNL     1      -4.414 -10.380 -12.415  0.00  0.00    -0.372 N 
ATOM      4  C   UNL     1      -3.278 -10.774 -11.830  0.00  0.00    +0.166 C 
ATOM      5  H   UNL     1      -1.252 -10.704 -11.773  0.00  0.00    +0.163 HD
ATOM      6  H   UNL     1      -4.259 -11.881 -10.401  0.00  0.00    +0.159 HD
ATOM      7  H   UNL     1      -2.540 -11.920 -10.285  0.00  0.00    +0.159 HD
ATOM      8  H   UNL     1      -4.417  -9.770 -13.222  0.00  0.00    +0.159 HD
ATOM      9  H   UNL     1      -5.319 -10.665 -12.062  0.00  0.00    +0.159 HD
ENDROOT
BRANCH   1  10
ATOM     10  C   UNL     1      -1.868  -9.568 -13.467  0.00  0.00    +0.151 C 
BRANCH  10  11
ATOM     11  C   UNL     1      -1.286 -10.418 -14.563  0.00  0.00    -0.028 A 
ATOM     12  C   UNL     1      -1.456 -11.811 -14.550  0.00  0.00    +0.005 A 
ATOM     13  C   UNL     1      -0.568  -9.837 -15.619  0.00  0.00    +0.005 A 
ATOM     14  C   UNL     1      -0.941 -12.598 -15.583  0.00  0.00    +0.000 A 
ATOM     15  C   UNL     1      -0.055 -10.627 -16.648  0.00  0.00    +0.000 A 
ATOM     16  C   UNL     1      -0.244 -12.007 -16.631  0.00  0.00    +0.000 A 
ENDBRANCH  10  11
ENDBRANCH   1  10
TORSDOF 2
ENDMDL
MODEL 9
REMARK VINA RESULT:    -5.058      5.808      9.157
REMARK INTER + INTRA:          -5.782
REMARK INTER:                  -5.614
REMARK INTRA:                  -0.167
REMARK UNBOUND:                -0.132
REMARK  Name = 1550473
REMARK  2 active torsions:
REMARK  status: ('A' for Active; 'I' for Inactive)
REMARK    1  A    between atoms: N_1  and  C_4
REMARK    2  A    between atoms: C_4  and  C_5
REMARK                            x       y       z     vdW  Elec       q    Type
REMARK                         _______ _______ _______ _____ _____    ______ ____
ROOT
ATOM      1  N   UNL     1      -9.077 -10.978 -11.751  0.00  0.00    -0.354 N 
ATOM      2  N   UNL     1      -6.880 -10.358 -11.361  0.00  0.00    -0.372 N 
ATOM      3  N   UNL     1      -7.722 -12.199 -10.280  0.00  0.00    -0.372 N 
ATOM      4  C   UNL     1      -7.908 -11.185 -11.131  0.00  0.00    +0.166 C 
ATOM      5  H   UNL     1      -9.163 -10.174 -12.362  0.00  0.00    +0.163 HD
ATOM      6  H   UNL     1      -5.985 -10.491 -10.911  0.00  0.00    +0.159 HD
ATOM      7  H   UNL     1      -6.955  -9.582 -12.008  0.00  0.00    +0.159 HD
ATOM      8  H   UNL     1      -8.460 -12.854 -10.059  0.00  0.00    +0.159 HD
ATOM      9  H   UNL     1      -6.837 -12.341  -9.810  0.00  0.00    +0.159 HD
ENDROOT
BRANCH   1  10
ATOM     10  C   UNL     1     -10.242 -11.850 -11.612  0.00  0.00    +0.151 C 
BRANCH  10  11
ATOM     11  C   UNL     1     -11.156 -11.285 -10.560  0.00  0.00    -0.028 A 
ATOM     12  C   UNL     1     -11.681 -12.110  -9.554  0.00  0.00    +0.005 A 
ATOM     13  C   UNL     1     -11.496  -9.924 -10.559  0.00  0.00    +0.005 A 
ATOM     14  C   UNL     1     -12.505 -11.580  -8.559  0.00  0.00    +0.000 A 
ATOM     15  C   UNL     1     -12.320  -9.398  -9.564  0.00  0.00    +0.000 A 
ATOM     16  C   UNL     1     -12.823 -10.226  -8.563  0.00  0.00    +0.000 A 
ENDBRANCH  10  11
ENDBRANCH   1  10
TORSDOF 2
ENDMDL
