MODEL 1
REMARK VINA RESULT:    -5.793      0.000      0.000
REMARK INTER + INTRA:          -6.555
REMARK INTER:                  -6.471
REMARK INTRA:                  -0.085
REMARK UNBOUND:                -0.085
REMARK  Name = 1550473
REMARK  2 active torsions:
REMARK  status: ('A' for Active; 'I' for Inactive)
REMARK    1  A    between atoms: N_1  and  C_4
REMARK    2  A    between atoms: C_4  and  C_5
REMARK                            x       y       z     vdW  Elec       q    Type
REMARK                         _______ _______ _______ _____ _____    ______ ____
ROOT
ATOM      1  N   UNL     1      14.674   0.089  -2.235  0.00  0.00    -0.354 N 
ATOM      2  N   UNL     1      15.814  -1.453  -0.935  0.00  0.00    -0.372 N 
ATOM      3  N   UNL     1      16.710  -0.824  -2.951  0.00  0.00    -0.372 N 
ATOM      4  C   UNL     1      15.727  -0.719  -2.051  0.00  0.00    +0.166 C 
ATOM      5  H   UNL     1      13.947   0.100  -1.528  0.00  0.00    +0.163 HD
ATOM      6  H   UNL     1      16.598  -2.069  -0.767  0.00  0.00    +0.159 HD
ATOM      7  H   UNL     1      15.109  -1.405  -0.209  0.00  0.00    +0.159 HD
ATOM      8  H   UNL     1      16.701  -0.302  -3.817  0.00  0.00    +0.159 HD
ATOM      9  H   UNL     1      17.498  -1.444  -2.807  0.00  0.00    +0.159 HD
ENDROOT
BRANCH   1  10
ATOM     10  C   UNL     1      14.511   0.969  -3.390  0.00  0.00    +0.151 C 
BRANCH  10  11
ATOM     11  C   UNL     1      14.936   2.361  -3.011  0.00  0.00    -0.028 A 
ATOM     12  C   UNL     1      15.156   2.697  -1.667  0.00  0.00    +0.005 A 
ATOM     13  C   UNL     1      15.126   3.347  -3.992  0.00  0.00    +0.005 A 
ATOM     14  C   UNL     1      15.579   3.982  -1.317  0.00  0.00    +0.000 A 
ATOM     15  C   UNL     1      15.548   4.628  -3.638  0.00  0.00    +0.000 A 
ATOM     16  C   UNL     1      15.777   4.944  -2.301  0.00  0.00    +0.000 A 
ENDBRANCH  10  11
ENDBRANCH   1  10
TORSDOF 2
ENDMDL
MODEL 2
REMARK VINA RESULT:    -5.749      1.442      2.498
REMARK INTER + INTRA:          -6.506
REMARK INTER:                  -6.486
REMARK INTRA:                  -0.019
REMARK UNBOUND:                -0.085
REMARK  Name = 1550473
REMARK  2 active torsions:
REMARK  status: ('A' for Active; 'I' for Inactive)
REMARK    1  A    between atoms: N_1  and  C_4
REMARK    2  A    between atoms: C_4  and  C_5
REMARK                            x       y       z     vdW  Elec       q    Type
REMARK                         _______ _______ _______ _____ _____    ______ ____
ROOT
ATOM      1  N   UNL     1      15.069  -0.313  -1.616  0.00  0.00    -0.354 N 
ATOM      2  N   UNL     1      15.762  -2.515  -1.797  0.00  0.00    -0.372 N 
ATOM      3  N   UNL     1      17.191  -0.845  -2.457  0.00  0.00    -0.372 N 
ATOM      4  C   UNL     1      16.005  -1.209  -1.957  0.00  0.00    +0.166 C 
ATOM      5  H   UNL     1      14.180  -0.653  -1.270  0.00  0.00    +0.163 HD
ATOM      6  H   UNL     1      16.450  -3.214  -2.042  0.00  0.00    +0.159 HD
ATOM      7  H   UNL     1      14.889  -2.851  -1.409  0.00  0.00    +0.159 HD
ATOM      8  H   UNL     1      17.434   0.125  -2.608  0.00  0.00    +0.159 HD
ATOM      9  H   UNL     1      17.888  -1.531  -2.720  0.00  0.00    +0.159 HD
ENDROOT
BRANCH   1  10
ATOM     10  C   UNL     1      15.255   1.135  -1.700  0.00  0.00    +0.151 C 
BRANCH  10  11
ATOM     11  C   UNL     1      14.647   1.634  -2.982  0.00  0.00    -0.028 A 
ATOM     12  C   UNL     1      13.997   0.749  -3.854  0.00  0.00    +0.005 A 
ATOM     13  C   UNL     1      14.714   2.993  -3.327  0.00  0.00    +0.005 A 
ATOM     14  C   UNL     1      13.407   1.217  -5.030  0.00  0.00    +0.000 A 
ATOM     15  C   UNL     1      14.124   3.456  -4.503  0.00  0.00    +0.000 A 
ATOM     16  C   UNL     1      13.468   2.569  -5.353  0.00  0.00    +0.000 A 
ENDBRANCH  10  11
ENDBRANCH   1  10
TORSDOF 2
ENDMDL
MODEL 3
REMARK VINA RESULT:    -5.373      0.787      1.837
REMARK INTER + INTRA:          -6.086
REMARK INTER:                  -5.936
REMARK INTRA:                  -0.150
REMARK UNBOUND:                -0.085
REMARK  Name = 1550473
REMARK  2 active torsions:
REMARK  status: ('A' for Active; 'I' for Inactive)
REMARK    1  A    between atoms: N_1  and  C_4
REMARK    2  A    between atoms: C_4  and  C_5
REMARK                            x       y       z     vdW  Elec       q    Type
REMARK                         _______ _______ _______ _____ _____    ______ ____
ROOT
ATOM      1  N   UNL     1      15.601   0.042  -3.480  0.00  0.00    -0.354 N 
ATOM      2  N   UNL     1      17.003  -1.490  -2.455  0.00  0.00    -0.372 N 
ATOM      3  N   UNL     1      15.150  -0.752  -1.322  0.00  0.00    -0.372 N 
ATOM      4  C   UNL     1      15.907  -0.723  -2.423  0.00  0.00    +0.166 C 
ATOM      5  H   UNL     1      16.232   0.042  -4.273  0.00  0.00    +0.163 HD
ATOM      6  H   UNL     1      17.258  -2.080  -1.674  0.00  0.00    +0.159 HD
ATOM      7  H   UNL     1      17.608  -1.523  -3.267  0.00  0.00    +0.159 HD
ATOM      8  H   UNL     1      14.313  -0.192  -1.232  0.00  0.00    +0.159 HD
ATOM      9  H   UNL     1      15.394  -1.328  -0.525  0.00  0.00    +0.159 HD
ENDROOT
BRANCH   1  10
ATOM     10  C   UNL     1      14.401   0.873  -3.568  0.00  0.00    +0.151 C 
BRANCH  10  11
ATOM     11  C   UNL     1      14.790   2.316  -3.404  0.00  0.00    -0.028 A 
ATOM     12  C   UNL     1      14.803   3.180  -4.508  0.00  0.00    +0.005 A 
ATOM     13  C   UNL     1      15.141   2.827  -2.145  0.00  0.00    +0.005 A 
ATOM     14  C   UNL     1      15.135   4.528  -4.351  0.00  0.00    +0.000 A 
ATOM     15  C   UNL     1      15.473   4.174  -1.992  0.00  0.00    +0.000 A 
ATOM     16  C   UNL     1      15.468   5.024  -3.095  0.00  0.00    +0.000 A 
ENDBRANCH  10  11
ENDBRANCH   1  10
TORSDOF 2
ENDMDL
MODEL 4
REMARK VINA RESULT:    -5.062      3.172      4.443
REMARK INTER + INTRA:          -5.738
REMARK INTER:                  -5.559
REMARK INTRA:                  -0.180
REMARK UNBOUND:                -0.085
REMARK  Name = 1550473
REMARK  2 active torsions:
REMARK  status: ('A' for Active; 'I' for Inactive)
REMARK    1  A    between atoms: N_1  and  C_4
REMARK    2  A    between atoms: C_4  and  C_5
REMARK                            x       y       z     vdW  Elec       q    Type
REMARK                         _______ _______ _______ _____ _____    ______ ____
ROOT
ATOM      1  N   UNL     1      12.508   1.907  -5.103  0.00  0.00    -0.354 N 
ATOM      2  N   UNL     1      10.361   2.717  -5.418  0.00  0.00    -0.372 N 
ATOM      3  N   UNL     1      12.140   4.125  -5.765  0.00  0.00    -0.372 N 
ATOM      4  C   UNL     1      11.685   2.913  -5.427  0.00  0.00    +0.166 C 
ATOM      5  H   UNL     1      12.100   1.021  -4.827  0.00  0.00    +0.163 HD
ATOM      6  H   UNL     1       9.716   3.457  -5.661  0.00  0.00    +0.159 HD
ATOM      7  H   UNL     1       9.957   1.818  -5.186  0.00  0.00    +0.159 HD
ATOM      8  H   UNL     1      13.128   4.339  -5.786  0.00  0.00    +0.159 HD
ATOM      9  H   UNL     1      11.509   4.881  -6.000  0.00  0.00    +0.159 HD
ENDROOT
BRANCH   1  10
ATOM     10  C   UNL     1      13.966   2.001  -5.134  0.00  0.00    +0.151 C 
BRANCH  10  11
ATOM     11  C   UNL     1      14.478   2.160  -3.729  0.00  0.00    -0.028 A 
ATOM     12  C   UNL     1      14.740   3.435  -3.206  0.00  0.00    +0.005 A 
ATOM     13  C   UNL     1      14.698   1.040  -2.913  0.00  0.00    +0.005 A 
ATOM     14  C   UNL     1      15.186   3.585  -1.891  0.00  0.00    +0.000 A 
ATOM     15  C   UNL     1      15.145   1.194  -1.600  0.00  0.00    +0.000 A 
ATOM     16  C   UNL     1      15.387   2.466  -1.089  0.00  0.00    +0.000 A 
ENDBRANCH  10  11
ENDBRANCH   1  10
TORSDOF 2
ENDMDL
MODEL 5
REMARK VINA RESULT:    -4.982      2.687      3.427
REMARK INTER + INTRA:          -5.650
REMARK INTER:                  -5.515
REMARK INTRA:                  -0.135
REMARK UNBOUND:                -0.085
REMARK  Name = 1550473
REMARK  2 active torsions:
REMARK  status: ('A' for Active; 'I' for Inactive)
REMARK    1  A    between atoms: N_1  and  C_4
REMARK    2  A    between atoms: C_4  and  C_5
REMARK                            x       y       z     vdW  Elec       q    Type
REMARK                         _______ _______ _______ _____ _____    ______ ____
ROOT
ATOM      1  N   UNL     1      15.253  -0.071  -3.634  0.00  0.00    -0.354 N 
ATOM      2  N   UNL     1      17.029  -1.085  -2.547  0.00  0.00    -0.372 N 
ATOM      3  N   UNL     1      15.598   0.241  -1.338  0.00  0.00    -0.372 N 
ATOM      4  C   UNL     1      15.947  -0.297  -2.511  0.00  0.00    +0.166 C 
ATOM      5  H   UNL     1      15.587  -0.483  -4.498  0.00  0.00    +0.163 HD
ATOM      6  H   UNL     1      17.570  -1.276  -1.715  0.00  0.00    +0.159 HD
ATOM      7  H   UNL     1      17.334  -1.533  -3.402  0.00  0.00    +0.159 HD
ATOM      8  H   UNL     1      14.796   0.849  -1.245  0.00  0.00    +0.159 HD
ATOM      9  H   UNL     1      16.135   0.070  -0.496  0.00  0.00    +0.159 HD
ENDROOT
BRANCH   1  10
ATOM     10  C   UNL     1      14.031   0.728  -3.693  0.00  0.00    +0.151 C 
BRANCH  10  11
ATOM     11  C   UNL     1      14.012   1.503  -4.982  0.00  0.00    -0.028 A 
ATOM     12  C   UNL     1      12.851   2.176  -5.391  0.00  0.00    +0.005 A 
ATOM     13  C   UNL     1      15.153   1.573  -5.796  0.00  0.00    +0.005 A 
ATOM     14  C   UNL     1      12.842   2.921  -6.573  0.00  0.00    +0.000 A 
ATOM     15  C   UNL     1      15.139   2.317  -6.976  0.00  0.00    +0.000 A 
ATOM     16  C   UNL     1      13.985   2.992  -7.363  0.00  0.00    +0.000 A 
ENDBRANCH  10  11
ENDBRANCH   1  10
TORSDOF 2
ENDMDL
MODEL 6
REMARK VINA RESULT:    -4.968      8.967      9.994
REMARK INTER + INTRA:          -5.633
REMARK INTER:                  -5.509
REMARK INTRA:                  -0.124
REMARK UNBOUND:                -0.085
REMARK  Name = 1550473
REMARK  2 active torsions:
REMARK  status: ('A' for Active; 'I' for Inactive)
REMARK    1  A    between atoms: N_1  and  C_4
REMARK    2  A    between atoms: C_4  and  C_5
REMARK                            x       y       z     vdW  Elec       q    Type
REMARK                         _______ _______ _______ _____ _____    ______ ____
ROOT
ATOM      1  N   UNL     1       8.213   7.508  -4.794  0.00  0.00    -0.354 N 
ATOM      2  N   UNL     1       9.253   5.644  -5.693  0.00  0.00    -0.372 N 
ATOM      3  N   UNL     1       7.686   5.352  -4.043  0.00  0.00    -0.372 N 
ATOM      4  C   UNL     1       8.376   6.179  -4.835  0.00  0.00    +0.166 C 
ATOM      5  H   UNL     1       8.788   8.083  -5.400  0.00  0.00    +0.163 HD
ATOM      6  H   UNL     1       9.395   4.645  -5.749  0.00  0.00    +0.159 HD
ATOM      7  H   UNL     1       9.793   6.218  -6.329  0.00  0.00    +0.159 HD
ATOM      8  H   UNL     1       7.013   5.693  -3.370  0.00  0.00    +0.159 HD
ATOM      9  H   UNL     1       7.822   4.349  -4.076  0.00  0.00    +0.159 HD
ENDROOT
BRANCH   1  10
ATOM     10  C   UNL     1       7.244   8.187  -3.935  0.00  0.00    +0.151 C 
BRANCH  10  11
ATOM     11  C   UNL     1       7.934   9.308  -3.207  0.00  0.00    -0.028 A 
ATOM     12  C   UNL     1       8.437   9.113  -1.912  0.00  0.00    +0.005 A 
ATOM     13  C   UNL     1       8.094  10.565  -3.809  0.00  0.00    +0.005 A 
ATOM     14  C   UNL     1       9.105  10.144  -1.248  0.00  0.00    +0.000 A 
ATOM     15  C   UNL     1       8.760  11.593  -3.142  0.00  0.00    +0.000 A 
ATOM     16  C   UNL     1       9.268  11.381  -1.862  0.00  0.00    +0.000 A 
ENDBRANCH  10  11
ENDBRANCH   1  10
TORSDOF 2
ENDMDL
MODEL 7
REMARK VINA RESULT:    -4.946      2.795      4.838
REMARK INTER + INTRA:          -5.609
REMARK INTER:                  -5.485
REMARK INTRA:                  -0.124
REMARK UNBOUND:                -0.085
REMARK  Name = 1550473
REMARK  2 active torsions:
REMARK  status: ('A' for Active; 'I' for Inactive)
REMARK    1  A    between atoms: N_1  and  C_4
REMARK    2  A    between atoms: C_4  and  C_5
REMARK                            x       y       z     vdW  Elec       q    Type
REMARK                         _______ _______ _______ _____ _____    ______ ____
ROOT
ATOM      1  N   UNL     1      15.413   3.437  -3.763  0.00  0.00    -0.354 N 
ATOM      2  N   UNL     1      16.284   5.435  -2.981  0.00  0.00    -0.372 N 
ATOM      3  N   UNL     1      14.009   5.225  -3.193  0.00  0.00    -0.372 N 
ATOM      4  C   UNL     1      15.227   4.687  -3.318  0.00  0.00    +0.166 C 
ATOM      5  H   UNL     1      16.363   3.098  -3.864  0.00  0.00    +0.163 HD
ATOM      6  H   UNL     1      16.175   6.380  -2.639  0.00  0.00    +0.159 HD
ATOM      7  H   UNL     1      17.230   5.078  -3.039  0.00  0.00    +0.159 HD
ATOM      8  H   UNL     1      13.171   4.714  -3.436  0.00  0.00    +0.159 HD
ATOM      9  H   UNL     1      13.880   6.173  -2.864  0.00  0.00    +0.159 HD
ENDROOT
BRANCH   1  10
ATOM     10  C   UNL     1      14.326   2.521  -4.106  0.00  0.00    +0.151 C 
BRANCH  10  11
ATOM     11  C   UNL     1      14.705   1.129  -3.680  0.00  0.00    -0.028 A 
ATOM     12  C   UNL     1      15.028   0.856  -2.343  0.00  0.00    +0.005 A 
ATOM     13  C   UNL     1      14.737   0.077  -4.609  0.00  0.00    +0.005 A 
ATOM     14  C   UNL     1      15.351  -0.442  -1.942  0.00  0.00    +0.000 A 
ATOM     15  C   UNL     1      15.060  -1.218  -4.204  0.00  0.00    +0.000 A 
ATOM     16  C   UNL     1      15.365  -1.478  -2.870  0.00  0.00    +0.000 A 
ENDBRANCH  10  11
ENDBRANCH   1  10
TORSDOF 2
ENDMDL
MODEL 8
REMARK VINA RESULT:    -4.916     25.192     26.379
REMARK INTER + INTRA:          -5.575
REMARK INTER:                  -5.460
REMARK INTRA:                  -0.115
REMARK UNBOUND:                -0.085
REMARK  Name = 1550473
REMARK  2 active torsions:
REMARK  status: ('A' for Active; 'I' for Inactive)
REMARK    1  A    between atoms: N_1  and  C_4
REMARK    2  A    between atoms: C_4  and  C_5
REMARK                            x       y       z     vdW  Elec       q    Type
REMARK                         _______ _______ _______ _____ _____    ______ ____
ROOT
ATOM      1  N   UNL     1       1.402   9.651  17.802  0.00  0.00    -0.354 N 
ATOM      2  N   UNL     1       3.056  10.369  16.347  0.00  0.00    -0.372 N 
ATOM      3  N   UNL     1       3.545  10.190  18.582  0.00  0.00    -0.372 N 
ATOM      4  C   UNL     1       2.658  10.066  17.589  0.00  0.00    +0.166 C 
ATOM      5  H   UNL     1       0.770   9.607  17.011  0.00  0.00    +0.163 HD
ATOM      6  H   UNL     1       3.998  10.682  16.156  0.00  0.00    +0.159 HD
ATOM      7  H   UNL     1       2.434  10.281  15.552  0.00  0.00    +0.159 HD
ATOM      8  H   UNL     1       3.307   9.982  19.542  0.00  0.00    +0.159 HD
ATOM      9  H   UNL     1       4.490  10.512  18.412  0.00  0.00    +0.159 HD
ENDROOT
BRANCH   1  10
ATOM     10  C   UNL     1       0.885   9.244  19.107  0.00  0.00    +0.151 C 
BRANCH  10  11
ATOM     11  C   UNL     1       1.167   7.781  19.313  0.00  0.00    -0.028 A 
ATOM     12  C   UNL     1       1.054   6.878  18.246  0.00  0.00    +0.005 A 
ATOM     13  C   UNL     1       1.553   7.293  20.571  0.00  0.00    +0.005 A 
ATOM     14  C   UNL     1       1.344   5.524  18.429  0.00  0.00    +0.000 A 
ATOM     15  C   UNL     1       1.841   5.940  20.750  0.00  0.00    +0.000 A 
ATOM     16  C   UNL     1       1.739   5.056  19.678  0.00  0.00    +0.000 A 
ENDBRANCH  10  11
ENDBRANCH   1  10
TORSDOF 2
ENDMDL
MODEL 9
REMARK VINA RESULT:    -4.840      3.288      4.972
REMARK INTER + INTRA:          -5.491
REMARK INTER:                  -5.396
REMARK INTRA:                  -0.095
REMARK UNBOUND:                -0.085
REMARK  Name = 1550473
REMARK  2 active torsions:
REMARK  status: ('A' for Active; 'I' for Inactive)
REMARK    1  A    between atoms: N_1  and  C_4
REMARK    2  A    between atoms: C_4  and  C_5
REMARK                            x       y       z     vdW  Elec       q    Type
REMARK                         _______ _______ _______ _____ _____    ______ ____
ROOT
ATOM      1  N   UNL     1      13.344   3.303  -4.455  0.00  0.00    -0.354 N 
ATOM      2  N   UNL     1      13.502   5.530  -3.838  0.00  0.00    -0.372 N 
ATOM      3  N   UNL     1      15.057   4.668  -5.288  0.00  0.00    -0.372 N 
ATOM      4  C   UNL     1      13.969   4.486  -4.533  0.00  0.00    +0.166 C 
ATOM      5  H   UNL     1      12.542   3.222  -3.841  0.00  0.00    +0.163 HD
ATOM      6  H   UNL     1      13.950   6.435  -3.879  0.00  0.00    +0.159 HD
ATOM      7  H   UNL     1      12.673   5.458  -3.260  0.00  0.00    +0.159 HD
ATOM      8  H   UNL     1      15.463   3.919  -5.832  0.00  0.00    +0.159 HD
ATOM      9  H   UNL     1      15.527   5.564  -5.333  0.00  0.00    +0.159 HD
ENDROOT
BRANCH   1  10
ATOM     10  C   UNL     1      13.740   2.118  -5.214  0.00  0.00    +0.151 C 
BRANCH  10  11
ATOM     11  C   UNL     1      14.311   1.098  -4.268  0.00  0.00    -0.028 A 
ATOM     12  C   UNL     1      14.599  -0.201  -4.711  0.00  0.00    +0.005 A 
ATOM     13  C   UNL     1      14.571   1.426  -2.928  0.00  0.00    +0.005 A 
ATOM     14  C   UNL     1      15.157  -1.140  -3.840  0.00  0.00    +0.000 A 
ATOM     15  C   UNL     1      15.128   0.485  -2.062  0.00  0.00    +0.000 A 
ATOM     16  C   UNL     1      15.423  -0.797  -2.519  0.00  0.00    +0.000 A 
ENDBRANCH  10  11
ENDBRANCH   1  10
TORSDOF 2
ENDMDL
