MODEL 1
REMARK VINA RESULT:    -5.444      0.000      0.000
REMARK INTER + INTRA:          -6.172
REMARK INTER:                  -6.080
REMARK INTRA:                  -0.092
REMARK UNBOUND:                -0.092
REMARK  Name = 1550473
REMARK  2 active torsions:
REMARK  status: ('A' for Active; 'I' for Inactive)
REMARK    1  A    between atoms: N_1  and  C_4
REMARK    2  A    between atoms: C_4  and  C_5
REMARK                            x       y       z     vdW  Elec       q    Type
REMARK                         _______ _______ _______ _____ _____    ______ ____
ROOT
ATOM      1  N   UNL     1      -7.679  -5.978 -13.670  0.00  0.00    -0.354 N 
ATOM      2  N   UNL     1      -5.540  -6.363 -14.469  0.00  0.00    -0.372 N 
ATOM      3  N   UNL     1      -7.329  -6.788 -15.841  0.00  0.00    -0.372 N 
ATOM      4  C   UNL     1      -6.865  -6.375 -14.657  0.00  0.00    +0.166 C 
ATOM      5  H   UNL     1      -7.266  -5.706 -12.785  0.00  0.00    +0.163 HD
ATOM      6  H   UNL     1      -4.900  -6.653 -15.196  0.00  0.00    +0.159 HD
ATOM      7  H   UNL     1      -5.128  -6.046 -13.599  0.00  0.00    +0.159 HD
ATOM      8  H   UNL     1      -8.319  -6.826 -16.044  0.00  0.00    +0.159 HD
ATOM      9  H   UNL     1      -6.705  -7.093 -16.578  0.00  0.00    +0.159 HD
ENDROOT
BRANCH   1  10
ATOM     10  C   UNL     1      -9.134  -5.902 -13.791  0.00  0.00    +0.151 C 
BRANCH  10  11
ATOM     11  C   UNL     1      -9.698  -5.269 -12.549  0.00  0.00    -0.028 A 
ATOM     12  C   UNL     1      -9.863  -6.022 -11.378  0.00  0.00    +0.005 A 
ATOM     13  C   UNL     1     -10.063  -3.914 -12.536  0.00  0.00    +0.005 A 
ATOM     14  C   UNL     1     -10.359  -5.427 -10.215  0.00  0.00    +0.000 A 
ATOM     15  C   UNL     1     -10.559  -3.323 -11.373  0.00  0.00    +0.000 A 
ATOM     16  C   UNL     1     -10.704  -4.079 -10.213  0.00  0.00    +0.000 A 
ENDBRANCH  10  11
ENDBRANCH   1  10
TORSDOF 2
ENDMDL
MODEL 2
REMARK VINA RESULT:    -5.282     24.491     25.920
REMARK INTER + INTRA:          -5.991
REMARK INTER:                  -5.834
REMARK INTRA:                  -0.158
REMARK UNBOUND:                -0.092
REMARK  Name = 1550473
REMARK  2 active torsions:
REMARK  status: ('A' for Active; 'I' for Inactive)
REMARK    1  A    between atoms: N_1  and  C_4
REMARK    2  A    between atoms: C_4  and  C_5
REMARK                            x       y       z     vdW  Elec       q    Type
REMARK                         _______ _______ _______ _____ _____    ______ ____
ROOT
ATOM      1  N   UNL     1      13.825  -6.533 -28.212  0.00  0.00    -0.354 N 
ATOM      2  N   UNL     1      14.932  -8.482 -27.628  0.00  0.00    -0.372 N 
ATOM      3  N   UNL     1      12.694  -8.583 -28.126  0.00  0.00    -0.372 N 
ATOM      4  C   UNL     1      13.807  -7.854 -27.993  0.00  0.00    +0.166 C 
ATOM      5  H   UNL     1      14.694  -6.033 -28.064  0.00  0.00    +0.163 HD
ATOM      6  H   UNL     1      14.949  -9.479 -27.459  0.00  0.00    +0.159 HD
ATOM      7  H   UNL     1      15.809  -7.987 -27.526  0.00  0.00    +0.159 HD
ATOM      8  H   UNL     1      11.811  -8.169 -28.394  0.00  0.00    +0.159 HD
ATOM      9  H   UNL     1      12.689  -9.580 -27.950  0.00  0.00    +0.159 HD
ENDROOT
BRANCH   1  10
ATOM     10  C   UNL     1      12.668  -5.763 -28.665  0.00  0.00    +0.151 C 
BRANCH  10  11
ATOM     11  C   UNL     1      12.171  -4.910 -27.531  0.00  0.00    -0.028 A 
ATOM     12  C   UNL     1      10.820  -4.542 -27.456  0.00  0.00    +0.005 A 
ATOM     13  C   UNL     1      13.046  -4.472 -26.524  0.00  0.00    +0.005 A 
ATOM     14  C   UNL     1      10.352  -3.774 -26.386  0.00  0.00    +0.000 A 
ATOM     15  C   UNL     1      12.575  -3.705 -25.459  0.00  0.00    +0.000 A 
ATOM     16  C   UNL     1      11.228  -3.359 -25.389  0.00  0.00    +0.000 A 
ENDBRANCH  10  11
ENDBRANCH   1  10
TORSDOF 2
ENDMDL
MODEL 3
REMARK VINA RESULT:    -5.160     20.132     22.131
REMARK INTER + INTRA:          -5.856
REMARK INTER:                  -5.699
REMARK INTRA:                  -0.156
REMARK UNBOUND:                -0.092
REMARK  Name = 1550473
REMARK  2 active torsions:
REMARK  status: ('A' for Active; 'I' for Inactive)
REMARK    1  A    between atoms: N_1  and  C_4
REMARK    2  A    between atoms: C_4  and  C_5
REMARK                            x       y       z     vdW  Elec       q    Type
REMARK                         _______ _______ _______ _____ _____    ______ ____
ROOT
ATOM      1  N   UNL     1       9.928 -14.186 -17.346  0.00  0.00    -0.354 N 
ATOM      2  N   UNL     1       8.473 -12.430 -16.943  0.00  0.00    -0.372 N 
ATOM      3  N   UNL     1       8.462 -13.427 -19.010  0.00  0.00    -0.372 N 
ATOM      4  C   UNL     1       8.963 -13.360 -17.772  0.00  0.00    +0.166 C 
ATOM      5  H   UNL     1      10.287 -14.064 -16.406  0.00  0.00    +0.163 HD
ATOM      6  H   UNL     1       7.742 -11.795 -17.235  0.00  0.00    +0.159 HD
ATOM      7  H   UNL     1       8.801 -12.340 -15.989  0.00  0.00    +0.159 HD
ATOM      8  H   UNL     1       8.793 -14.103 -19.685  0.00  0.00    +0.159 HD
ATOM      9  H   UNL     1       7.739 -12.792 -19.324  0.00  0.00    +0.159 HD
ENDROOT
BRANCH   1  10
ATOM     10  C   UNL     1      10.492 -15.267 -18.152  0.00  0.00    +0.151 C 
BRANCH  10  11
ATOM     11  C   UNL     1      10.172 -16.584 -17.500  0.00  0.00    -0.028 A 
ATOM     12  C   UNL     1      11.020 -17.119 -16.520  0.00  0.00    +0.005 A 
ATOM     13  C   UNL     1       9.018 -17.300 -17.855  0.00  0.00    +0.005 A 
ATOM     14  C   UNL     1      10.707 -18.327 -15.893  0.00  0.00    +0.000 A 
ATOM     15  C   UNL     1       8.709 -18.506 -17.227  0.00  0.00    +0.000 A 
ATOM     16  C   UNL     1       9.552 -19.019 -16.245  0.00  0.00    +0.000 A 
ENDBRANCH  10  11
ENDBRANCH   1  10
TORSDOF 2
ENDMDL
MODEL 4
REMARK VINA RESULT:    -4.970      3.831      5.171
REMARK INTER + INTRA:          -5.643
REMARK INTER:                  -5.513
REMARK INTRA:                  -0.130
REMARK UNBOUND:                -0.092
REMARK  Name = 1550473
REMARK  2 active torsions:
REMARK  status: ('A' for Active; 'I' for Inactive)
REMARK    1  A    between atoms: N_1  and  C_4
REMARK    2  A    between atoms: C_4  and  C_5
REMARK                            x       y       z     vdW  Elec       q    Type
REMARK                         _______ _______ _______ _____ _____    ______ ____
ROOT
ATOM      1  N   UNL     1     -12.030  -3.845 -12.191  0.00  0.00    -0.354 N 
ATOM      2  N   UNL     1     -13.927  -2.696 -12.856  0.00  0.00    -0.372 N 
ATOM      3  N   UNL     1     -12.253  -1.547 -11.787  0.00  0.00    -0.372 N 
ATOM      4  C   UNL     1     -12.723  -2.701 -12.272  0.00  0.00    +0.166 C 
ATOM      5  H   UNL     1     -12.454  -4.692 -12.551  0.00  0.00    +0.163 HD
ATOM      6  H   UNL     1     -14.472  -1.847 -12.935  0.00  0.00    +0.159 HD
ATOM      7  H   UNL     1     -14.330  -3.534 -13.256  0.00  0.00    +0.159 HD
ATOM      8  H   UNL     1     -11.354  -1.485 -11.329  0.00  0.00    +0.159 HD
ATOM      9  H   UNL     1     -12.789  -0.690 -11.846  0.00  0.00    +0.159 HD
ENDROOT
BRANCH   1  10
ATOM     10  C   UNL     1     -10.687  -3.948 -11.623  0.00  0.00    +0.151 C 
BRANCH  10  11
ATOM     11  C   UNL     1     -10.640  -5.122 -10.684  0.00  0.00    -0.028 A 
ATOM     12  C   UNL     1      -9.955  -6.292 -11.041  0.00  0.00    +0.005 A 
ATOM     13  C   UNL     1     -11.274  -5.067  -9.433  0.00  0.00    +0.005 A 
ATOM     14  C   UNL     1      -9.885  -7.371 -10.156  0.00  0.00    +0.000 A 
ATOM     15  C   UNL     1     -11.203  -6.147  -8.553  0.00  0.00    +0.000 A 
ATOM     16  C   UNL     1     -10.507  -7.298  -8.914  0.00  0.00    +0.000 A 
ENDBRANCH  10  11
ENDBRANCH   1  10
TORSDOF 2
ENDMDL
MODEL 5
REMARK VINA RESULT:    -4.958      3.649      5.203
REMARK INTER + INTRA:          -5.630
REMARK INTER:                  -5.489
REMARK INTRA:                  -0.141
REMARK UNBOUND:                -0.092
REMARK  Name = 1550473
REMARK  2 active torsions:
REMARK  status: ('A' for Active; 'I' for Inactive)
REMARK    1  A    between atoms: N_1  and  C_4
REMARK    2  A    between atoms: C_4  and  C_5
REMARK                            x       y       z     vdW  Elec       q    Type
REMARK                         _______ _______ _______ _____ _____    ______ ____
ROOT
ATOM      1  N   UNL     1     -11.138  -2.798 -11.206  0.00  0.00    -0.354 N 
ATOM      2  N   UNL     1     -12.317  -1.027 -12.121  0.00  0.00    -0.372 N 
ATOM      3  N   UNL     1     -13.481  -2.772 -11.191  0.00  0.00    -0.372 N 
ATOM      4  C   UNL     1     -12.307  -2.212 -11.500  0.00  0.00    +0.166 C 
ATOM      5  H   UNL     1     -10.283  -2.336 -11.494  0.00  0.00    +0.163 HD
ATOM      6  H   UNL     1     -13.184  -0.559 -12.352  0.00  0.00    +0.159 HD
ATOM      7  H   UNL     1     -11.461  -0.546 -12.366  0.00  0.00    +0.159 HD
ATOM      8  H   UNL     1     -13.542  -3.668 -10.727  0.00  0.00    +0.159 HD
ATOM      9  H   UNL     1     -14.359  -2.325 -11.424  0.00  0.00    +0.159 HD
ENDROOT
BRANCH   1  10
ATOM     10  C   UNL     1     -11.016  -4.062 -10.484  0.00  0.00    +0.151 C 
BRANCH  10  11
ATOM     11  C   UNL     1     -10.217  -5.028 -11.315  0.00  0.00    -0.028 A 
ATOM     12  C   UNL     1      -9.868  -6.287 -10.805  0.00  0.00    +0.005 A 
ATOM     13  C   UNL     1      -9.810  -4.692 -12.615  0.00  0.00    +0.005 A 
ATOM     14  C   UNL     1      -9.152  -7.196 -11.587  0.00  0.00    +0.000 A 
ATOM     15  C   UNL     1      -9.093  -5.601 -13.393  0.00  0.00    +0.000 A 
ATOM     16  C   UNL     1      -8.767  -6.854 -12.879  0.00  0.00    +0.000 A 
ENDBRANCH  10  11
ENDBRANCH   1  10
TORSDOF 2
ENDMDL
MODEL 6
REMARK VINA RESULT:    -4.926     58.836     59.987
REMARK INTER + INTRA:          -5.594
REMARK INTER:                  -5.456
REMARK INTRA:                  -0.138
REMARK UNBOUND:                -0.092
REMARK  Name = 1550473
REMARK  2 active torsions:
REMARK  status: ('A' for Active; 'I' for Inactive)
REMARK    1  A    between atoms: N_1  and  C_4
REMARK    2  A    between atoms: C_4  and  C_5
REMARK                            x       y       z     vdW  Elec       q    Type
REMARK                         _______ _______ _______ _____ _____    ______ ____
ROOT
ATOM      1  N   UNL     1      18.504   5.537  40.095  0.00  0.00    -0.354 N 
ATOM      2  N   UNL     1      20.388   4.233  40.432  0.00  0.00    -0.372 N 
ATOM      3  N   UNL     1      18.912   3.642  38.778  0.00  0.00    -0.372 N 
ATOM      4  C   UNL     1      19.254   4.478  39.765  0.00  0.00    +0.166 C 
ATOM      5  H   UNL     1      18.803   6.115  40.873  0.00  0.00    +0.163 HD
ATOM      6  H   UNL     1      20.977   3.444  40.203  0.00  0.00    +0.159 HD
ATOM      7  H   UNL     1      20.708   4.839  41.178  0.00  0.00    +0.159 HD
ATOM      8  H   UNL     1      18.065   3.767  38.240  0.00  0.00    +0.159 HD
ATOM      9  H   UNL     1      19.482   2.839  38.542  0.00  0.00    +0.159 HD
ENDROOT
BRANCH   1  10
ATOM     10  C   UNL     1      17.279   5.922  39.396  0.00  0.00    +0.151 C 
BRANCH  10  11
ATOM     11  C   UNL     1      17.275   7.412  39.197  0.00  0.00    -0.028 A 
ATOM     12  C   UNL     1      18.285   8.208  39.758  0.00  0.00    +0.005 A 
ATOM     13  C   UNL     1      16.267   8.034  38.445  0.00  0.00    +0.005 A 
ATOM     14  C   UNL     1      18.298   9.589  39.549  0.00  0.00    +0.000 A 
ATOM     15  C   UNL     1      16.283   9.414  38.239  0.00  0.00    +0.000 A 
ATOM     16  C   UNL     1      17.300  10.190  38.789  0.00  0.00    +0.000 A 
ENDBRANCH  10  11
ENDBRANCH   1  10
TORSDOF 2
ENDMDL
MODEL 7
REMARK VINA RESULT:    -4.910     60.164     61.239
REMARK INTER + INTRA:          -5.576
REMARK INTER:                  -5.445
REMARK INTRA:                  -0.131
REMARK UNBOUND:                -0.092
REMARK  Name = 1550473
REMARK  2 active torsions:
REMARK  status: ('A' for Active; 'I' for Inactive)
REMARK    1  A    between atoms: N_1  and  C_4
REMARK    2  A    between atoms: C_4  and  C_5
REMARK                            x       y       z     vdW  Elec       q    Type
REMARK                         _______ _______ _______ _____ _____    ______ ____
ROOT
ATOM      1  N   UNL     1      18.779   6.840  39.599  0.00  0.00    -0.354 N 
ATOM      2  N   UNL     1      20.023   4.988  40.220  0.00  0.00    -0.372 N 
ATOM      3  N   UNL     1      17.785   5.040  40.723  0.00  0.00    -0.372 N 
ATOM      4  C   UNL     1      18.852   5.634  40.178  0.00  0.00    +0.166 C 
ATOM      5  H   UNL     1      19.630   7.249  39.231  0.00  0.00    +0.163 HD
ATOM      6  H   UNL     1      20.108   4.075  40.647  0.00  0.00    +0.159 HD
ATOM      7  H   UNL     1      20.863   5.379  39.811  0.00  0.00    +0.159 HD
ATOM      8  H   UNL     1      16.873   5.477  40.729  0.00  0.00    +0.159 HD
ATOM      9  H   UNL     1      17.852   4.132  41.165  0.00  0.00    +0.159 HD
ENDROOT
BRANCH   1  10
ATOM     10  C   UNL     1      17.541   7.603  39.452  0.00  0.00    +0.151 C 
BRANCH  10  11
ATOM     11  C   UNL     1      17.753   8.990  39.993  0.00  0.00    -0.028 A 
ATOM     12  C   UNL     1      17.453   9.287  41.330  0.00  0.00    +0.005 A 
ATOM     13  C   UNL     1      18.258  10.012  39.173  0.00  0.00    +0.005 A 
ATOM     14  C   UNL     1      17.677  10.568  41.841  0.00  0.00    +0.000 A 
ATOM     15  C   UNL     1      18.480  11.289  39.687  0.00  0.00    +0.000 A 
ATOM     16  C   UNL     1      18.192  11.566  41.021  0.00  0.00    +0.000 A 
ENDBRANCH  10  11
ENDBRANCH   1  10
TORSDOF 2
ENDMDL
MODEL 8
REMARK VINA RESULT:    -4.874      3.720      5.001
REMARK INTER + INTRA:          -5.535
REMARK INTER:                  -5.417
REMARK INTRA:                  -0.119
REMARK UNBOUND:                -0.092
REMARK  Name = 1550473
REMARK  2 active torsions:
REMARK  status: ('A' for Active; 'I' for Inactive)
REMARK    1  A    between atoms: N_1  and  C_4
REMARK    2  A    between atoms: C_4  and  C_5
REMARK                            x       y       z     vdW  Elec       q    Type
REMARK                         _______ _______ _______ _____ _____    ______ ____
ROOT
ATOM      1  N   UNL     1     -10.635  -8.644  -9.702  0.00  0.00    -0.354 N 
ATOM      2  N   UNL     1     -10.258 -10.929  -9.667  0.00  0.00    -0.372 N 
ATOM      3  N   UNL     1      -8.725  -9.536  -8.679  0.00  0.00    -0.372 N 
ATOM      4  C   UNL     1      -9.872  -9.687  -9.349  0.00  0.00    +0.166 C 
ATOM      5  H   UNL     1     -11.478  -8.823 -10.235  0.00  0.00    +0.163 HD
ATOM      6  H   UNL     1      -9.706 -11.736  -9.410  0.00  0.00    +0.159 HD
ATOM      7  H   UNL     1     -11.125 -11.108 -10.159  0.00  0.00    +0.159 HD
ATOM      8  H   UNL     1      -8.375  -8.625  -8.414  0.00  0.00    +0.159 HD
ATOM      9  H   UNL     1      -8.152 -10.331  -8.424  0.00  0.00    +0.159 HD
ENDROOT
BRANCH   1  10
ATOM     10  C   UNL     1     -10.332  -7.256  -9.358  0.00  0.00    +0.151 C 
BRANCH  10  11
ATOM     11  C   UNL     1     -10.042  -6.488 -10.618  0.00  0.00    -0.028 A 
ATOM     12  C   UNL     1     -10.609  -5.223 -10.827  0.00  0.00    +0.005 A 
ATOM     13  C   UNL     1      -9.197  -7.019 -11.605  0.00  0.00    +0.005 A 
ATOM     14  C   UNL     1     -10.317  -4.497 -11.984  0.00  0.00    +0.000 A 
ATOM     15  C   UNL     1      -8.908  -6.291 -12.759  0.00  0.00    +0.000 A 
ATOM     16  C   UNL     1      -9.467  -5.029 -12.947  0.00  0.00    +0.000 A 
ENDBRANCH  10  11
ENDBRANCH   1  10
TORSDOF 2
ENDMDL
MODEL 9
REMARK VINA RESULT:    -4.840      4.317      5.697
REMARK INTER + INTRA:          -5.497
REMARK INTER:                  -5.351
REMARK INTRA:                  -0.146
REMARK UNBOUND:                -0.092
REMARK  Name = 1550473
REMARK  2 active torsions:
REMARK  status: ('A' for Active; 'I' for Inactive)
REMARK    1  A    between atoms: N_1  and  C_4
REMARK    2  A    between atoms: C_4  and  C_5
REMARK                            x       y       z     vdW  Elec       q    Type
REMARK                         _______ _______ _______ _____ _____    ______ ____
ROOT
ATOM      1  N   UNL     1     -10.256  -7.033  -7.812  0.00  0.00    -0.354 N 
ATOM      2  N   UNL     1      -8.733  -7.861  -6.276  0.00  0.00    -0.372 N 
ATOM      3  N   UNL     1      -9.620  -5.772  -5.942  0.00  0.00    -0.372 N 
ATOM      4  C   UNL     1      -9.547  -6.881  -6.686  0.00  0.00    +0.166 C 
ATOM      5  H   UNL     1     -10.133  -7.885  -8.347  0.00  0.00    +0.163 HD
ATOM      6  H   UNL     1      -8.188  -7.777  -5.429  0.00  0.00    +0.159 HD
ATOM      7  H   UNL     1      -8.647  -8.731  -6.789  0.00  0.00    +0.159 HD
ATOM      8  H   UNL     1     -10.211  -4.993  -6.199  0.00  0.00    +0.159 HD
ATOM      9  H   UNL     1      -9.074  -5.664  -5.097  0.00  0.00    +0.159 HD
ENDROOT
BRANCH   1  10
ATOM     10  C   UNL     1     -11.211  -6.048  -8.317  0.00  0.00    +0.151 C 
BRANCH  10  11
ATOM     11  C   UNL     1     -10.745  -5.554  -9.658  0.00  0.00    -0.028 A 
ATOM     12  C   UNL     1     -10.153  -6.436 -10.575  0.00  0.00    +0.005 A 
ATOM     13  C   UNL     1     -10.897  -4.207 -10.022  0.00  0.00    +0.005 A 
ATOM     14  C   UNL     1      -9.747  -5.984 -11.833  0.00  0.00    +0.000 A 
ATOM     15  C   UNL     1     -10.490  -3.760 -11.278  0.00  0.00    +0.000 A 
ATOM     16  C   UNL     1      -9.918  -4.649 -12.185  0.00  0.00    +0.000 A 
ENDBRANCH  10  11
ENDBRANCH   1  10
TORSDOF 2
ENDMDL
