MODEL 1
REMARK VINA RESULT:    -4.889      0.000      0.000
REMARK INTER + INTRA:          -5.601
REMARK INTER:                  -5.461
REMARK INTRA:                  -0.140
REMARK UNBOUND:                -0.140
REMARK  Name = 1550473
REMARK  2 active torsions:
REMARK  status: ('A' for Active; 'I' for Inactive)
REMARK    1  A    between atoms: N_1  and  C_4
REMARK    2  A    between atoms: C_4  and  C_5
REMARK                            x       y       z     vdW  Elec       q    Type
REMARK                         _______ _______ _______ _____ _____    ______ ____
ROOT
ATOM      1  N   UNL     1      18.157  16.098  34.129  0.00  0.00    -0.354 N 
ATOM      2  N   UNL     1      16.955  16.509  36.066  0.00  0.00    -0.372 N 
ATOM      3  N   UNL     1      16.099  17.217  34.058  0.00  0.00    -0.372 N 
ATOM      4  C   UNL     1      17.076  16.607  34.736  0.00  0.00    +0.166 C 
ATOM      5  H   UNL     1      18.877  15.675  34.704  0.00  0.00    +0.163 HD
ATOM      6  H   UNL     1      16.149  16.880  36.551  0.00  0.00    +0.159 HD
ATOM      7  H   UNL     1      17.654  16.044  36.632  0.00  0.00    +0.159 HD
ATOM      8  H   UNL     1      16.134  17.328  33.053  0.00  0.00    +0.159 HD
ATOM      9  H   UNL     1      15.290  17.605  34.527  0.00  0.00    +0.159 HD
ENDROOT
BRANCH   1  10
ATOM     10  C   UNL     1      18.361  16.105  32.682  0.00  0.00    +0.151 C 
BRANCH  10  11
ATOM     11  C   UNL     1      19.749  16.601  32.383  0.00  0.00    -0.028 A 
ATOM     12  C   UNL     1      20.472  16.082  31.299  0.00  0.00    +0.005 A 
ATOM     13  C   UNL     1      20.344  17.593  33.177  0.00  0.00    +0.005 A 
ATOM     14  C   UNL     1      21.749  16.564  31.003  0.00  0.00    +0.000 A 
ATOM     15  C   UNL     1      21.620  18.071  32.879  0.00  0.00    +0.000 A 
ATOM     16  C   UNL     1      22.321  17.558  31.790  0.00  0.00    +0.000 A 
ENDBRANCH  10  11
ENDBRANCH   1  10
TORSDOF 2
ENDMDL
MODEL 2
REMARK VINA RESULT:    -4.665     11.638     13.156
REMARK INTER + INTRA:          -5.351
REMARK INTER:                  -5.241
REMARK INTRA:                  -0.110
REMARK UNBOUND:                -0.140
REMARK  Name = 1550473
REMARK  2 active torsions:
REMARK  status: ('A' for Active; 'I' for Inactive)
REMARK    1  A    between atoms: N_1  and  C_4
REMARK    2  A    between atoms: C_4  and  C_5
REMARK                            x       y       z     vdW  Elec       q    Type
REMARK                         _______ _______ _______ _____ _____    ______ ____
ROOT
ATOM      1  N   UNL     1       8.942  18.581  24.498  0.00  0.00    -0.354 N 
ATOM      2  N   UNL     1       8.039  17.618  22.595  0.00  0.00    -0.372 N 
ATOM      3  N   UNL     1       9.202  19.586  22.397  0.00  0.00    -0.372 N 
ATOM      4  C   UNL     1       8.735  18.603  23.174  0.00  0.00    +0.166 C 
ATOM      5  H   UNL     1       8.536  17.824  25.036  0.00  0.00    +0.163 HD
ATOM      6  H   UNL     1       7.870  17.606  21.598  0.00  0.00    +0.159 HD
ATOM      7  H   UNL     1       7.674  16.838  23.128  0.00  0.00    +0.159 HD
ATOM      8  H   UNL     1       9.729  20.362  22.774  0.00  0.00    +0.159 HD
ATOM      9  H   UNL     1       9.033  19.598  21.399  0.00  0.00    +0.159 HD
ENDROOT
BRANCH   1  10
ATOM     10  C   UNL     1       9.732  19.577  25.219  0.00  0.00    +0.151 C 
BRANCH  10  11
ATOM     11  C   UNL     1       9.713  19.251  26.687  0.00  0.00    -0.028 A 
ATOM     12  C   UNL     1      10.882  19.357  27.455  0.00  0.00    +0.005 A 
ATOM     13  C   UNL     1       8.528  18.839  27.317  0.00  0.00    +0.005 A 
ATOM     14  C   UNL     1      10.858  19.083  28.824  0.00  0.00    +0.000 A 
ATOM     15  C   UNL     1       8.509  18.565  28.684  0.00  0.00    +0.000 A 
ATOM     16  C   UNL     1       9.674  18.689  29.438  0.00  0.00    +0.000 A 
ENDBRANCH  10  11
ENDBRANCH   1  10
TORSDOF 2
ENDMDL
MODEL 3
REMARK VINA RESULT:    -4.446     69.953     71.224
REMARK INTER + INTRA:          -5.106
REMARK INTER:                  -4.952
REMARK INTRA:                  -0.153
REMARK UNBOUND:                -0.140
REMARK  Name = 1550473
REMARK  2 active torsions:
REMARK  status: ('A' for Active; 'I' for Inactive)
REMARK    1  A    between atoms: N_1  and  C_4
REMARK    2  A    between atoms: C_4  and  C_5
REMARK                            x       y       z     vdW  Elec       q    Type
REMARK                         _______ _______ _______ _____ _____    ______ ____
ROOT
ATOM      1  N   UNL     1     -25.748  -7.766 -13.698  0.00  0.00    -0.354 N 
ATOM      2  N   UNL     1     -25.083  -6.708 -11.748  0.00  0.00    -0.372 N 
ATOM      3  N   UNL     1     -26.397  -8.583 -11.599  0.00  0.00    -0.372 N 
ATOM      4  C   UNL     1     -25.749  -7.694 -12.360  0.00  0.00    +0.166 C 
ATOM      5  H   UNL     1     -25.262  -7.044 -14.218  0.00  0.00    +0.163 HD
ATOM      6  H   UNL     1     -25.063  -6.630 -10.740  0.00  0.00    +0.159 HD
ATOM      7  H   UNL     1     -24.560  -6.014 -12.269  0.00  0.00    +0.159 HD
ATOM      8  H   UNL     1     -26.924  -9.347 -12.000  0.00  0.00    +0.159 HD
ATOM      9  H   UNL     1     -26.399  -8.515 -10.589  0.00  0.00    +0.159 HD
ENDROOT
BRANCH   1  10
ATOM     10  C   UNL     1     -26.397  -8.831 -14.460  0.00  0.00    +0.151 C 
BRANCH  10  11
ATOM     11  C   UNL     1     -27.551  -8.251 -15.230  0.00  0.00    -0.028 A 
ATOM     12  C   UNL     1     -27.504  -6.928 -15.694  0.00  0.00    +0.005 A 
ATOM     13  C   UNL     1     -28.692  -9.021 -15.504  0.00  0.00    +0.005 A 
ATOM     14  C   UNL     1     -28.563  -6.399 -16.436  0.00  0.00    +0.000 A 
ATOM     15  C   UNL     1     -29.747  -8.488 -16.244  0.00  0.00    +0.000 A 
ATOM     16  C   UNL     1     -29.681  -7.178 -16.712  0.00  0.00    +0.000 A 
ENDBRANCH  10  11
ENDBRANCH   1  10
TORSDOF 2
ENDMDL
MODEL 4
REMARK VINA RESULT:    -4.380     61.908     62.937
REMARK INTER + INTRA:          -5.032
REMARK INTER:                  -4.899
REMARK INTRA:                  -0.133
REMARK UNBOUND:                -0.140
REMARK  Name = 1550473
REMARK  2 active torsions:
REMARK  status: ('A' for Active; 'I' for Inactive)
REMARK    1  A    between atoms: N_1  and  C_4
REMARK    2  A    between atoms: C_4  and  C_5
REMARK                            x       y       z     vdW  Elec       q    Type
REMARK                         _______ _______ _______ _____ _____    ______ ____
ROOT
ATOM      1  N   UNL     1     -16.174   1.231 -15.910  0.00  0.00    -0.354 N 
ATOM      2  N   UNL     1     -17.942  -0.210 -15.506  0.00  0.00    -0.372 N 
ATOM      3  N   UNL     1     -16.546  -0.637 -17.277  0.00  0.00    -0.372 N 
ATOM      4  C   UNL     1     -16.875   0.136 -16.236  0.00  0.00    +0.166 C 
ATOM      5  H   UNL     1     -16.492   1.791 -15.128  0.00  0.00    +0.163 HD
ATOM      6  H   UNL     1     -18.488  -1.032 -15.726  0.00  0.00    +0.159 HD
ATOM      7  H   UNL     1     -18.231   0.326 -14.697  0.00  0.00    +0.159 HD
ATOM      8  H   UNL     1     -15.755  -0.427 -17.871  0.00  0.00    +0.159 HD
ATOM      9  H   UNL     1     -17.087  -1.457 -17.520  0.00  0.00    +0.159 HD
ENDROOT
BRANCH   1  10
ATOM     10  C   UNL     1     -14.964   1.665 -16.607  0.00  0.00    +0.151 C 
BRANCH  10  11
ATOM     11  C   UNL     1     -15.160   3.072 -17.100  0.00  0.00    -0.028 A 
ATOM     12  C   UNL     1     -15.145   4.149 -16.202  0.00  0.00    +0.005 A 
ATOM     13  C   UNL     1     -15.354   3.336 -18.464  0.00  0.00    +0.005 A 
ATOM     14  C   UNL     1     -15.297   5.459 -16.662  0.00  0.00    +0.000 A 
ATOM     15  C   UNL     1     -15.506   4.645 -18.920  0.00  0.00    +0.000 A 
ATOM     16  C   UNL     1     -15.475   5.707 -18.019  0.00  0.00    +0.000 A 
ENDBRANCH  10  11
ENDBRANCH   1  10
TORSDOF 2
ENDMDL
MODEL 5
REMARK VINA RESULT:    -4.246     10.122     11.163
REMARK INTER + INTRA:          -4.883
REMARK INTER:                  -4.779
REMARK INTRA:                  -0.103
REMARK UNBOUND:                -0.140
REMARK  Name = 1550473
REMARK  2 active torsions:
REMARK  status: ('A' for Active; 'I' for Inactive)
REMARK    1  A    between atoms: N_1  and  C_4
REMARK    2  A    between atoms: C_4  and  C_5
REMARK                            x       y       z     vdW  Elec       q    Type
REMARK                         _______ _______ _______ _____ _____    ______ ____
ROOT
ATOM      1  N   UNL     1       8.726  19.593  29.594  0.00  0.00    -0.354 N 
ATOM      2  N   UNL     1       9.356  19.882  31.804  0.00  0.00    -0.372 N 
ATOM      3  N   UNL     1       9.110  17.750  30.990  0.00  0.00    -0.372 N 
ATOM      4  C   UNL     1       9.060  19.070  30.781  0.00  0.00    +0.166 C 
ATOM      5  H   UNL     1       8.677  20.602  29.508  0.00  0.00    +0.163 HD
ATOM      6  H   UNL     1       9.614  19.516  32.711  0.00  0.00    +0.159 HD
ATOM      7  H   UNL     1       9.351  20.890  31.703  0.00  0.00    +0.159 HD
ATOM      8  H   UNL     1       8.892  17.084  30.261  0.00  0.00    +0.159 HD
ATOM      9  H   UNL     1       9.355  17.366  31.894  0.00  0.00    +0.159 HD
ENDROOT
BRANCH   1  10
ATOM     10  C   UNL     1       8.438  18.797  28.402  0.00  0.00    +0.151 C 
BRANCH  10  11
ATOM     11  C   UNL     1       9.516  19.035  27.380  0.00  0.00    -0.028 A 
ATOM     12  C   UNL     1       9.187  19.234  26.032  0.00  0.00    +0.005 A 
ATOM     13  C   UNL     1      10.868  19.067  27.756  0.00  0.00    +0.005 A 
ATOM     14  C   UNL     1      10.186  19.485  25.087  0.00  0.00    +0.000 A 
ATOM     15  C   UNL     1      11.862  19.316  26.810  0.00  0.00    +0.000 A 
ATOM     16  C   UNL     1      11.520  19.528  25.476  0.00  0.00    +0.000 A 
ENDBRANCH  10  11
ENDBRANCH   1  10
TORSDOF 2
ENDMDL
MODEL 6
REMARK VINA RESULT:    -4.232     11.498     12.981
REMARK INTER + INTRA:          -4.867
REMARK INTER:                  -4.698
REMARK INTRA:                  -0.169
REMARK UNBOUND:                -0.140
REMARK  Name = 1550473
REMARK  2 active torsions:
REMARK  status: ('A' for Active; 'I' for Inactive)
REMARK    1  A    between atoms: N_1  and  C_4
REMARK    2  A    between atoms: C_4  and  C_5
REMARK                            x       y       z     vdW  Elec       q    Type
REMARK                         _______ _______ _______ _____ _____    ______ ____
ROOT
ATOM      1  N   UNL     1       8.302  20.161  24.930  0.00  0.00    -0.354 N 
ATOM      2  N   UNL     1       7.293  22.189  24.447  0.00  0.00    -0.372 N 
ATOM      3  N   UNL     1       9.573  22.115  24.693  0.00  0.00    -0.372 N 
ATOM      4  C   UNL     1       8.399  21.476  24.693  0.00  0.00    +0.166 C 
ATOM      5  H   UNL     1       7.379  19.742  24.947  0.00  0.00    +0.163 HD
ATOM      6  H   UNL     1       7.336  23.182  24.261  0.00  0.00    +0.159 HD
ATOM      7  H   UNL     1       6.377  21.759  24.418  0.00  0.00    +0.159 HD
ATOM      8  H   UNL     1      10.444  21.635  24.878  0.00  0.00    +0.159 HD
ATOM      9  H   UNL     1       9.635  23.111  24.521  0.00  0.00    +0.159 HD
ENDROOT
BRANCH   1  10
ATOM     10  C   UNL     1       9.449  19.284  25.157  0.00  0.00    +0.151 C 
BRANCH  10  11
ATOM     11  C   UNL     1       9.669  19.136  26.637  0.00  0.00    -0.028 A 
ATOM     12  C   UNL     1      10.940  19.348  27.192  0.00  0.00    +0.005 A 
ATOM     13  C   UNL     1       8.611  18.789  27.490  0.00  0.00    +0.005 A 
ATOM     14  C   UNL     1      11.139  19.240  28.571  0.00  0.00    +0.000 A 
ATOM     15  C   UNL     1       8.814  18.681  28.866  0.00  0.00    +0.000 A 
ATOM     16  C   UNL     1      10.077  18.909  29.406  0.00  0.00    +0.000 A 
ENDBRANCH  10  11
ENDBRANCH   1  10
TORSDOF 2
ENDMDL
MODEL 7
REMARK VINA RESULT:    -4.077      3.925      5.647
REMARK INTER + INTRA:          -4.694
REMARK INTER:                  -4.543
REMARK INTRA:                  -0.151
REMARK UNBOUND:                -0.140
REMARK  Name = 1550473
REMARK  2 active torsions:
REMARK  status: ('A' for Active; 'I' for Inactive)
REMARK    1  A    between atoms: N_1  and  C_4
REMARK    2  A    between atoms: C_4  and  C_5
REMARK                            x       y       z     vdW  Elec       q    Type
REMARK                         _______ _______ _______ _____ _____    ______ ____
ROOT
ATOM      1  N   UNL     1      23.382  17.932  31.623  0.00  0.00    -0.354 N 
ATOM      2  N   UNL     1      25.551  17.939  32.433  0.00  0.00    -0.372 N 
ATOM      3  N   UNL     1      24.839  16.150  31.185  0.00  0.00    -0.372 N 
ATOM      4  C   UNL     1      24.576  17.338  31.740  0.00  0.00    +0.166 C 
ATOM      5  H   UNL     1      23.237  18.818  32.093  0.00  0.00    +0.163 HD
ATOM      6  H   UNL     1      26.464  17.516  32.536  0.00  0.00    +0.159 HD
ATOM      7  H   UNL     1      25.418  18.846  32.863  0.00  0.00    +0.159 HD
ATOM      8  H   UNL     1      24.144  15.641  30.655  0.00  0.00    +0.159 HD
ATOM      9  H   UNL     1      25.743  15.705  31.287  0.00  0.00    +0.159 HD
ENDROOT
BRANCH   1  10
ATOM     10  C   UNL     1      22.270  17.387  30.846  0.00  0.00    +0.151 C 
BRANCH  10  11
ATOM     11  C   UNL     1      21.130  17.071  31.774  0.00  0.00    -0.028 A 
ATOM     12  C   UNL     1      20.986  17.762  32.986  0.00  0.00    +0.005 A 
ATOM     13  C   UNL     1      20.187  16.086  31.445  0.00  0.00    +0.005 A 
ATOM     14  C   UNL     1      19.910  17.490  33.835  0.00  0.00    +0.000 A 
ATOM     15  C   UNL     1      19.115  15.816  32.295  0.00  0.00    +0.000 A 
ATOM     16  C   UNL     1      18.975  16.520  33.489  0.00  0.00    +0.000 A 
ENDBRANCH  10  11
ENDBRANCH   1  10
TORSDOF 2
ENDMDL
MODEL 8
REMARK VINA RESULT:    -3.991     10.321     11.338
REMARK INTER + INTRA:          -4.598
REMARK INTER:                  -4.507
REMARK INTRA:                  -0.091
REMARK UNBOUND:                -0.140
REMARK  Name = 1550473
REMARK  2 active torsions:
REMARK  status: ('A' for Active; 'I' for Inactive)
REMARK    1  A    between atoms: N_1  and  C_4
REMARK    2  A    between atoms: C_4  and  C_5
REMARK                            x       y       z     vdW  Elec       q    Type
REMARK                         _______ _______ _______ _____ _____    ______ ____
ROOT
ATOM      1  N   UNL     1       8.337  19.926  31.239  0.00  0.00    -0.354 N 
ATOM      2  N   UNL     1       7.360  21.271  32.853  0.00  0.00    -0.372 N 
ATOM      3  N   UNL     1       7.687  19.046  33.312  0.00  0.00    -0.372 N 
ATOM      4  C   UNL     1       7.801  20.070  32.459  0.00  0.00    +0.166 C 
ATOM      5  H   UNL     1       8.367  20.734  30.629  0.00  0.00    +0.163 HD
ATOM      6  H   UNL     1       6.954  21.410  33.768  0.00  0.00    +0.159 HD
ATOM      7  H   UNL     1       7.433  22.087  32.257  0.00  0.00    +0.159 HD
ATOM      8  H   UNL     1       7.995  18.113  33.073  0.00  0.00    +0.159 HD
ATOM      9  H   UNL     1       7.273  19.164  34.228  0.00  0.00    +0.159 HD
ENDROOT
BRANCH   1  10
ATOM     10  C   UNL     1       8.895  18.673  30.734  0.00  0.00    +0.151 C 
BRANCH  10  11
ATOM     11  C   UNL     1       9.399  18.889  29.334  0.00  0.00    -0.028 A 
ATOM     12  C   UNL     1      10.761  19.123  29.095  0.00  0.00    +0.005 A 
ATOM     13  C   UNL     1       8.520  18.857  28.240  0.00  0.00    +0.005 A 
ATOM     14  C   UNL     1      11.234  19.294  27.792  0.00  0.00    +0.000 A 
ATOM     15  C   UNL     1       8.995  19.029  26.941  0.00  0.00    +0.000 A 
ATOM     16  C   UNL     1      10.353  19.245  26.717  0.00  0.00    +0.000 A 
ENDBRANCH  10  11
ENDBRANCH   1  10
TORSDOF 2
ENDMDL
MODEL 9
REMARK VINA RESULT:    -3.789     61.338     62.383
REMARK INTER + INTRA:          -4.372
REMARK INTER:                  -4.190
REMARK INTRA:                  -0.182
REMARK UNBOUND:                -0.140
REMARK  Name = 1550473
REMARK  2 active torsions:
REMARK  status: ('A' for Active; 'I' for Inactive)
REMARK    1  A    between atoms: N_1  and  C_4
REMARK    2  A    between atoms: C_4  and  C_5
REMARK                            x       y       z     vdW  Elec       q    Type
REMARK                         _______ _______ _______ _____ _____    ______ ____
ROOT
ATOM      1  N   UNL     1      -7.388   4.235 -23.777  0.00  0.00    -0.354 N 
ATOM      2  N   UNL     1      -9.573   3.676 -23.250  0.00  0.00    -0.372 N 
ATOM      3  N   UNL     1      -7.877   2.293 -22.560  0.00  0.00    -0.372 N 
ATOM      4  C   UNL     1      -8.264   3.402 -23.198  0.00  0.00    +0.166 C 
ATOM      5  H   UNL     1      -7.747   5.043 -24.271  0.00  0.00    +0.163 HD
ATOM      6  H   UNL     1     -10.257   3.068 -22.820  0.00  0.00    +0.159 HD
ATOM      7  H   UNL     1      -9.925   4.509 -23.706  0.00  0.00    +0.159 HD
ATOM      8  H   UNL     1      -6.904   2.026 -22.489  0.00  0.00    +0.159 HD
ATOM      9  H   UNL     1      -8.548   1.666 -22.133  0.00  0.00    +0.159 HD
ENDROOT
BRANCH   1  10
ATOM     10  C   UNL     1      -5.937   4.057 -23.730  0.00  0.00    +0.151 C 
BRANCH  10  11
ATOM     11  C   UNL     1      -5.359   5.001 -22.713  0.00  0.00    -0.028 A 
ATOM     12  C   UNL     1      -5.250   6.370 -22.994  0.00  0.00    +0.005 A 
ATOM     13  C   UNL     1      -4.923   4.532 -21.464  0.00  0.00    +0.005 A 
ATOM     14  C   UNL     1      -4.740   7.252 -22.038  0.00  0.00    +0.000 A 
ATOM     15  C   UNL     1      -4.414   5.416 -20.512  0.00  0.00    +0.000 A 
ATOM     16  C   UNL     1      -4.325   6.776 -20.798  0.00  0.00    +0.000 A 
ENDBRANCH  10  11
ENDBRANCH   1  10
TORSDOF 2
ENDMDL
