MODEL 1
REMARK VINA RESULT:    -5.135      0.000      0.000
REMARK INTER + INTRA:          -5.858
REMARK INTER:                  -5.736
REMARK INTRA:                  -0.122
REMARK UNBOUND:                -0.122
REMARK  Name = 1550473
REMARK  2 active torsions:
REMARK  status: ('A' for Active; 'I' for Inactive)
REMARK    1  A    between atoms: N_1  and  C_4
REMARK    2  A    between atoms: C_4  and  C_5
REMARK                            x       y       z     vdW  Elec       q    Type
REMARK                         _______ _______ _______ _____ _____    ______ ____
ROOT
ATOM      1  N   UNL     1       7.946  10.833   3.581  0.00  0.00    -0.354 N 
ATOM      2  N   UNL     1       8.525   8.868   4.660  0.00  0.00    -0.372 N 
ATOM      3  N   UNL     1       7.183   8.759   2.803  0.00  0.00    -0.372 N 
ATOM      4  C   UNL     1       7.879   9.499   3.673  0.00  0.00    +0.166 C 
ATOM      5  H   UNL     1       8.466  11.339   4.289  0.00  0.00    +0.163 HD
ATOM      6  H   UNL     1       8.496   7.861   4.753  0.00  0.00    +0.159 HD
ATOM      7  H   UNL     1       9.082   9.372   5.340  0.00  0.00    +0.159 HD
ATOM      8  H   UNL     1       6.668   9.175   2.038  0.00  0.00    +0.159 HD
ATOM      9  H   UNL     1       7.131   7.751   2.886  0.00  0.00    +0.159 HD
ENDROOT
BRANCH   1  10
ATOM     10  C   UNL     1       7.324  11.612   2.512  0.00  0.00    +0.151 C 
BRANCH  10  11
ATOM     11  C   UNL     1       8.043  12.926   2.379  0.00  0.00    -0.028 A 
ATOM     12  C   UNL     1       7.925  13.687   1.206  0.00  0.00    +0.005 A 
ATOM     13  C   UNL     1       8.839  13.419   3.424  0.00  0.00    +0.005 A 
ATOM     14  C   UNL     1       8.569  14.921   1.093  0.00  0.00    +0.000 A 
ATOM     15  C   UNL     1       9.481  14.652   3.307  0.00  0.00    +0.000 A 
ATOM     16  C   UNL     1       9.344  15.404   2.143  0.00  0.00    +0.000 A 
ENDBRANCH  10  11
ENDBRANCH   1  10
TORSDOF 2
ENDMDL
MODEL 2
REMARK VINA RESULT:    -5.027     33.857     36.781
REMARK INTER + INTRA:          -5.737
REMARK INTER:                  -5.608
REMARK INTRA:                  -0.129
REMARK UNBOUND:                -0.122
REMARK  Name = 1550473
REMARK  2 active torsions:
REMARK  status: ('A' for Active; 'I' for Inactive)
REMARK    1  A    between atoms: N_1  and  C_4
REMARK    2  A    between atoms: C_4  and  C_5
REMARK                            x       y       z     vdW  Elec       q    Type
REMARK                         _______ _______ _______ _____ _____    ______ ____
ROOT
ATOM      1  N   UNL     1     -12.055 -15.495  10.005  0.00  0.00    -0.354 N 
ATOM      2  N   UNL     1     -10.903 -14.620   8.196  0.00  0.00    -0.372 N 
ATOM      3  N   UNL     1     -11.149 -13.336  10.082  0.00  0.00    -0.372 N 
ATOM      4  C   UNL     1     -11.377 -14.487   9.441  0.00  0.00    +0.166 C 
ATOM      5  H   UNL     1     -12.220 -16.331   9.456  0.00  0.00    +0.163 HD
ATOM      6  H   UNL     1     -10.384 -13.878   7.746  0.00  0.00    +0.159 HD
ATOM      7  H   UNL     1     -11.030 -15.474   7.667  0.00  0.00    +0.159 HD
ATOM      8  H   UNL     1     -11.485 -13.170  11.021  0.00  0.00    +0.159 HD
ATOM      9  H   UNL     1     -10.642 -12.577   9.644  0.00  0.00    +0.159 HD
ENDROOT
BRANCH   1  10
ATOM     10  C   UNL     1     -12.566 -15.472  11.374  0.00  0.00    +0.151 C 
BRANCH  10  11
ATOM     11  C   UNL     1     -13.862 -16.233  11.428  0.00  0.00    -0.028 A 
ATOM     12  C   UNL     1     -14.214 -17.114  10.395  0.00  0.00    +0.005 A 
ATOM     13  C   UNL     1     -14.741 -16.081  12.512  0.00  0.00    +0.005 A 
ATOM     14  C   UNL     1     -15.404 -17.843  10.459  0.00  0.00    +0.000 A 
ATOM     15  C   UNL     1     -15.928 -16.810  12.571  0.00  0.00    +0.000 A 
ATOM     16  C   UNL     1     -16.258 -17.693  11.546  0.00  0.00    +0.000 A 
ENDBRANCH  10  11
ENDBRANCH   1  10
TORSDOF 2
ENDMDL
MODEL 3
REMARK VINA RESULT:    -4.843     31.394     33.084
REMARK INTER + INTRA:          -5.531
REMARK INTER:                  -5.408
REMARK INTRA:                  -0.123
REMARK UNBOUND:                -0.122
REMARK  Name = 1550473
REMARK  2 active torsions:
REMARK  status: ('A' for Active; 'I' for Inactive)
REMARK    1  A    between atoms: N_1  and  C_4
REMARK    2  A    between atoms: C_4  and  C_5
REMARK                            x       y       z     vdW  Elec       q    Type
REMARK                         _______ _______ _______ _____ _____    ______ ____
ROOT
ATOM      1  N   UNL     1     -11.090 -11.239  -6.918  0.00  0.00    -0.354 N 
ATOM      2  N   UNL     1     -11.665 -11.330  -4.676  0.00  0.00    -0.372 N 
ATOM      3  N   UNL     1      -9.463 -11.589  -5.267  0.00  0.00    -0.372 N 
ATOM      4  C   UNL     1     -10.733 -11.386  -5.635  0.00  0.00    +0.166 C 
ATOM      5  H   UNL     1     -12.073 -11.118  -7.133  0.00  0.00    +0.163 HD
ATOM      6  H   UNL     1     -11.425 -11.434  -3.699  0.00  0.00    +0.159 HD
ATOM      7  H   UNL     1     -12.641 -11.163  -4.890  0.00  0.00    +0.159 HD
ATOM      8  H   UNL     1      -8.713 -11.647  -5.943  0.00  0.00    +0.159 HD
ATOM      9  H   UNL     1      -9.205 -11.707  -4.296  0.00  0.00    +0.159 HD
ENDROOT
BRANCH   1  10
ATOM     10  C   UNL     1     -10.146 -11.230  -8.033  0.00  0.00    +0.151 C 
BRANCH  10  11
ATOM     11  C   UNL     1     -10.836 -11.746  -9.265  0.00  0.00    -0.028 A 
ATOM     12  C   UNL     1     -10.629 -11.130 -10.508  0.00  0.00    +0.005 A 
ATOM     13  C   UNL     1     -11.694 -12.854  -9.198  0.00  0.00    +0.005 A 
ATOM     14  C   UNL     1     -11.247 -11.627 -11.658  0.00  0.00    +0.000 A 
ATOM     15  C   UNL     1     -12.310 -13.348 -10.348  0.00  0.00    +0.000 A 
ATOM     16  C   UNL     1     -12.084 -12.735 -11.579  0.00  0.00    +0.000 A 
ENDBRANCH  10  11
ENDBRANCH   1  10
TORSDOF 2
ENDMDL
MODEL 4
REMARK VINA RESULT:    -4.818     31.429     33.387
REMARK INTER + INTRA:          -5.503
REMARK INTER:                  -5.375
REMARK INTRA:                  -0.128
REMARK UNBOUND:                -0.122
REMARK  Name = 1550473
REMARK  2 active torsions:
REMARK  status: ('A' for Active; 'I' for Inactive)
REMARK    1  A    between atoms: N_1  and  C_4
REMARK    2  A    between atoms: C_4  and  C_5
REMARK                            x       y       z     vdW  Elec       q    Type
REMARK                         _______ _______ _______ _____ _____    ______ ____
ROOT
ATOM      1  N   UNL     1      -9.594 -13.043  -7.151  0.00  0.00    -0.354 N 
ATOM      2  N   UNL     1      -8.895 -11.354  -5.729  0.00  0.00    -0.372 N 
ATOM      3  N   UNL     1     -11.132 -11.554  -6.198  0.00  0.00    -0.372 N 
ATOM      4  C   UNL     1      -9.881 -11.994  -6.369  0.00  0.00    +0.166 C 
ATOM      5  H   UNL     1      -8.622 -13.308  -7.263  0.00  0.00    +0.163 HD
ATOM      6  H   UNL     1      -9.081 -10.561  -5.130  0.00  0.00    +0.159 HD
ATOM      7  H   UNL     1      -7.929 -11.649  -5.806  0.00  0.00    +0.159 HD
ATOM      8  H   UNL     1     -11.920 -11.990  -6.657  0.00  0.00    +0.159 HD
ATOM      9  H   UNL     1     -11.338 -10.755  -5.611  0.00  0.00    +0.159 HD
ENDROOT
BRANCH   1  10
ATOM     10  C   UNL     1     -10.599 -13.843  -7.849  0.00  0.00    +0.151 C 
BRANCH  10  11
ATOM     11  C   UNL     1     -10.811 -13.273  -9.224  0.00  0.00    -0.028 A 
ATOM     12  C   UNL     1     -12.089 -13.266  -9.802  0.00  0.00    +0.005 A 
ATOM     13  C   UNL     1      -9.740 -12.734  -9.952  0.00  0.00    +0.005 A 
ATOM     14  C   UNL     1     -12.292 -12.710 -11.068  0.00  0.00    +0.000 A 
ATOM     15  C   UNL     1      -9.947 -12.180 -11.215  0.00  0.00    +0.000 A 
ATOM     16  C   UNL     1     -11.223 -12.166 -11.772  0.00  0.00    +0.000 A 
ENDBRANCH  10  11
ENDBRANCH   1  10
TORSDOF 2
ENDMDL
MODEL 5
REMARK VINA RESULT:    -4.816     26.231     27.401
REMARK INTER + INTRA:          -5.502
REMARK INTER:                  -5.357
REMARK INTRA:                  -0.144
REMARK UNBOUND:                -0.122
REMARK  Name = 1550473
REMARK  2 active torsions:
REMARK  status: ('A' for Active; 'I' for Inactive)
REMARK    1  A    between atoms: N_1  and  C_4
REMARK    2  A    between atoms: C_4  and  C_5
REMARK                            x       y       z     vdW  Elec       q    Type
REMARK                         _______ _______ _______ _____ _____    ______ ____
ROOT
ATOM      1  N   UNL     1     -13.519   7.673 -12.375  0.00  0.00    -0.354 N 
ATOM      2  N   UNL     1     -14.819   8.970 -13.786  0.00  0.00    -0.372 N 
ATOM      3  N   UNL     1     -15.357   8.875 -11.558  0.00  0.00    -0.372 N 
ATOM      4  C   UNL     1     -14.558   8.497 -12.561  0.00  0.00    +0.166 C 
ATOM      5  H   UNL     1     -12.970   7.401 -13.182  0.00  0.00    +0.163 HD
ATOM      6  H   UNL     1     -15.594   9.596 -13.957  0.00  0.00    +0.159 HD
ATOM      7  H   UNL     1     -14.241   8.733 -14.583  0.00  0.00    +0.159 HD
ATOM      8  H   UNL     1     -15.218   8.549 -10.611  0.00  0.00    +0.159 HD
ATOM      9  H   UNL     1     -16.145   9.492 -11.711  0.00  0.00    +0.159 HD
ENDROOT
BRANCH   1  10
ATOM     10  C   UNL     1     -13.117   7.145 -11.072  0.00  0.00    +0.151 C 
BRANCH  10  11
ATOM     11  C   UNL     1     -13.030   5.646 -11.155  0.00  0.00    -0.028 A 
ATOM     12  C   UNL     1     -12.664   4.892 -10.031  0.00  0.00    +0.005 A 
ATOM     13  C   UNL     1     -13.318   4.974 -12.352  0.00  0.00    +0.005 A 
ATOM     14  C   UNL     1     -12.612   3.497 -10.098  0.00  0.00    +0.000 A 
ATOM     15  C   UNL     1     -13.265   3.582 -12.416  0.00  0.00    +0.000 A 
ATOM     16  C   UNL     1     -12.914   2.844 -11.288  0.00  0.00    +0.000 A 
ENDBRANCH  10  11
ENDBRANCH   1  10
TORSDOF 2
ENDMDL
MODEL 6
REMARK VINA RESULT:    -4.777     31.265     32.163
REMARK INTER + INTRA:          -5.458
REMARK INTER:                  -5.333
REMARK INTRA:                  -0.125
REMARK UNBOUND:                -0.122
REMARK  Name = 1550473
REMARK  2 active torsions:
REMARK  status: ('A' for Active; 'I' for Inactive)
REMARK    1  A    between atoms: N_1  and  C_4
REMARK    2  A    between atoms: C_4  and  C_5
REMARK                            x       y       z     vdW  Elec       q    Type
REMARK                         _______ _______ _______ _____ _____    ______ ____
ROOT
ATOM      1  N   UNL     1     -11.108 -11.809  -7.288  0.00  0.00    -0.354 N 
ATOM      2  N   UNL     1     -11.402 -11.170  -5.081  0.00  0.00    -0.372 N 
ATOM      3  N   UNL     1      -9.272 -11.521  -5.860  0.00  0.00    -0.372 N 
ATOM      4  C   UNL     1     -10.589 -11.505  -6.091  0.00  0.00    +0.166 C 
ATOM      5  H   UNL     1     -12.116 -11.808  -7.390  0.00  0.00    +0.163 HD
ATOM      6  H   UNL     1     -11.039 -10.932  -4.167  0.00  0.00    +0.159 HD
ATOM      7  H   UNL     1     -12.407 -11.125  -5.199  0.00  0.00    +0.159 HD
ATOM      8  H   UNL     1      -8.605 -11.770  -6.578  0.00  0.00    +0.159 HD
ATOM      9  H   UNL     1      -8.891 -11.297  -4.949  0.00  0.00    +0.159 HD
ENDROOT
BRANCH   1  10
ATOM     10  C   UNL     1     -10.307 -12.134  -8.467  0.00  0.00    +0.151 C 
BRANCH  10  11
ATOM     11  C   UNL     1     -10.597 -11.131  -9.549  0.00  0.00    -0.028 A 
ATOM     12  C   UNL     1     -10.721 -11.541 -10.885  0.00  0.00    +0.005 A 
ATOM     13  C   UNL     1     -10.755  -9.771  -9.245  0.00  0.00    +0.005 A 
ATOM     14  C   UNL     1     -11.020 -10.615 -11.887  0.00  0.00    +0.000 A 
ATOM     15  C   UNL     1     -11.054  -8.849 -10.248  0.00  0.00    +0.000 A 
ATOM     16  C   UNL     1     -11.188  -9.271 -11.568  0.00  0.00    +0.000 A 
ENDBRANCH  10  11
ENDBRANCH   1  10
TORSDOF 2
ENDMDL
MODEL 7
REMARK VINA RESULT:    -4.765     24.718     25.958
REMARK INTER + INTRA:          -5.444
REMARK INTER:                  -5.290
REMARK INTRA:                  -0.154
REMARK UNBOUND:                -0.122
REMARK  Name = 1550473
REMARK  2 active torsions:
REMARK  status: ('A' for Active; 'I' for Inactive)
REMARK    1  A    between atoms: N_1  and  C_4
REMARK    2  A    between atoms: C_4  and  C_5
REMARK                            x       y       z     vdW  Elec       q    Type
REMARK                         _______ _______ _______ _____ _____    ______ ____
ROOT
ATOM      1  N   UNL     1     -12.212   5.937  -9.140  0.00  0.00    -0.354 N 
ATOM      2  N   UNL     1     -11.976   3.650  -8.866  0.00  0.00    -0.372 N 
ATOM      3  N   UNL     1     -11.353   4.598 -10.860  0.00  0.00    -0.372 N 
ATOM      4  C   UNL     1     -11.848   4.744  -9.627  0.00  0.00    +0.166 C 
ATOM      5  H   UNL     1     -12.609   5.976  -8.208  0.00  0.00    +0.163 HD
ATOM      6  H   UNL     1     -11.706   2.736  -9.205  0.00  0.00    +0.159 HD
ATOM      7  H   UNL     1     -12.329   3.698  -7.919  0.00  0.00    +0.159 HD
ATOM      8  H   UNL     1     -11.237   5.384 -11.487  0.00  0.00    +0.159 HD
ATOM      9  H   UNL     1     -11.088   3.691 -11.222  0.00  0.00    +0.159 HD
ENDROOT
BRANCH   1  10
ATOM     10  C   UNL     1     -12.063   7.197  -9.866  0.00  0.00    +0.151 C 
BRANCH  10  11
ATOM     11  C   UNL     1     -13.427   7.735 -10.201  0.00  0.00    -0.028 A 
ATOM     12  C   UNL     1     -14.535   7.414  -9.402  0.00  0.00    +0.005 A 
ATOM     13  C   UNL     1     -13.617   8.572 -11.311  0.00  0.00    +0.005 A 
ATOM     14  C   UNL     1     -15.796   7.938  -9.695  0.00  0.00    +0.000 A 
ATOM     15  C   UNL     1     -14.879   9.092 -11.601  0.00  0.00    +0.000 A 
ATOM     16  C   UNL     1     -15.967   8.777 -10.791  0.00  0.00    +0.000 A 
ENDBRANCH  10  11
ENDBRANCH   1  10
TORSDOF 2
ENDMDL
MODEL 8
REMARK VINA RESULT:    -4.634     31.681     34.045
REMARK INTER + INTRA:          -5.298
REMARK INTER:                  -5.194
REMARK INTRA:                  -0.105
REMARK UNBOUND:                -0.122
REMARK  Name = 1550473
REMARK  2 active torsions:
REMARK  status: ('A' for Active; 'I' for Inactive)
REMARK    1  A    between atoms: N_1  and  C_4
REMARK    2  A    between atoms: C_4  and  C_5
REMARK                            x       y       z     vdW  Elec       q    Type
REMARK                         _______ _______ _______ _____ _____    ______ ____
ROOT
ATOM      1  N   UNL     1      -9.547 -12.411  -7.996  0.00  0.00    -0.354 N 
ATOM      2  N   UNL     1      -9.961 -11.277  -6.020  0.00  0.00    -0.372 N 
ATOM      3  N   UNL     1     -10.442 -10.245  -8.012  0.00  0.00    -0.372 N 
ATOM      4  C   UNL     1      -9.981 -11.316  -7.357  0.00  0.00    +0.166 C 
ATOM      5  H   UNL     1      -9.181 -13.178  -7.443  0.00  0.00    +0.163 HD
ATOM      6  H   UNL     1     -10.285 -10.466  -5.510  0.00  0.00    +0.159 HD
ATOM      7  H   UNL     1      -9.638 -12.063  -5.468  0.00  0.00    +0.159 HD
ATOM      8  H   UNL     1     -10.478 -10.209  -9.022  0.00  0.00    +0.159 HD
ATOM      9  H   UNL     1     -10.760  -9.420  -7.520  0.00  0.00    +0.159 HD
ENDROOT
BRANCH   1  10
ATOM     10  C   UNL     1      -9.577 -12.576  -9.448  0.00  0.00    +0.151 C 
BRANCH  10  11
ATOM     11  C   UNL     1     -10.914 -13.134  -9.852  0.00  0.00    -0.028 A 
ATOM     12  C   UNL     1     -11.562 -14.081  -9.046  0.00  0.00    +0.005 A 
ATOM     13  C   UNL     1     -11.541 -12.714 -11.035  0.00  0.00    +0.005 A 
ATOM     14  C   UNL     1     -12.818 -14.577  -9.405  0.00  0.00    +0.000 A 
ATOM     15  C   UNL     1     -12.794 -13.213 -11.390  0.00  0.00    +0.000 A 
ATOM     16  C   UNL     1     -13.433 -14.142 -10.574  0.00  0.00    +0.000 A 
ENDBRANCH  10  11
ENDBRANCH   1  10
TORSDOF 2
ENDMDL
MODEL 9
REMARK VINA RESULT:    -4.575     28.464     29.664
REMARK INTER + INTRA:          -5.232
REMARK INTER:                  -5.050
REMARK INTRA:                  -0.183
REMARK UNBOUND:                -0.122
REMARK  Name = 1550473
REMARK  2 active torsions:
REMARK  status: ('A' for Active; 'I' for Inactive)
REMARK    1  A    between atoms: N_1  and  C_4
REMARK    2  A    between atoms: C_4  and  C_5
REMARK                            x       y       z     vdW  Elec       q    Type
REMARK                         _______ _______ _______ _____ _____    ______ ____
ROOT
ATOM      1  N   UNL     1     -19.093   6.771 -10.982  0.00  0.00    -0.354 N 
ATOM      2  N   UNL     1     -20.192   4.743 -11.187  0.00  0.00    -0.372 N 
ATOM      3  N   UNL     1     -19.175   5.645 -13.036  0.00  0.00    -0.372 N 
ATOM      4  C   UNL     1     -19.479   5.733 -11.736  0.00  0.00    +0.166 C 
ATOM      5  H   UNL     1     -19.381   6.793 -10.011  0.00  0.00    +0.163 HD
ATOM      6  H   UNL     1     -20.494   3.945 -11.730  0.00  0.00    +0.159 HD
ATOM      7  H   UNL     1     -20.439   4.745 -10.205  0.00  0.00    +0.159 HD
ATOM      8  H   UNL     1     -18.645   6.363 -13.512  0.00  0.00    +0.159 HD
ATOM      9  H   UNL     1     -19.479   4.860 -13.599  0.00  0.00    +0.159 HD
ENDROOT
BRANCH   1  10
ATOM     10  C   UNL     1     -18.268   7.875 -11.470  0.00  0.00    +0.151 C 
BRANCH  10  11
ATOM     11  C   UNL     1     -16.837   7.628 -11.081  0.00  0.00    -0.028 A 
ATOM     12  C   UNL     1     -15.907   7.185 -12.032  0.00  0.00    +0.005 A 
ATOM     13  C   UNL     1     -16.403   7.842  -9.764  0.00  0.00    +0.005 A 
ATOM     14  C   UNL     1     -14.570   6.984 -11.678  0.00  0.00    +0.000 A 
ATOM     15  C   UNL     1     -15.068   7.640  -9.414  0.00  0.00    +0.000 A 
ATOM     16  C   UNL     1     -14.152   7.214 -10.372  0.00  0.00    +0.000 A 
ENDBRANCH  10  11
ENDBRANCH   1  10
TORSDOF 2
ENDMDL
