MODEL 1
REMARK VINA RESULT:    -6.156      0.000      0.000
REMARK INTER + INTRA:          -7.012
REMARK INTER:                  -6.875
REMARK INTRA:                  -0.136
REMARK UNBOUND:                -0.136
REMARK  Name = 1550473
REMARK  2 active torsions:
REMARK  status: ('A' for Active; 'I' for Inactive)
REMARK    1  A    between atoms: N_1  and  C_4
REMARK    2  A    between atoms: C_4  and  C_5
REMARK                            x       y       z     vdW  Elec       q    Type
REMARK                         _______ _______ _______ _____ _____    ______ ____
ROOT
ATOM      1  N   UNL     1      -7.348   6.772  -3.601  0.00  0.00    -0.354 N 
ATOM      2  N   UNL     1      -8.182   5.654  -5.450  0.00  0.00    -0.372 N 
ATOM      3  N   UNL     1      -6.423   4.735  -4.298  0.00  0.00    -0.372 N 
ATOM      4  C   UNL     1      -7.310   5.726  -4.437  0.00  0.00    +0.166 C 
ATOM      5  H   UNL     1      -8.024   7.506  -3.779  0.00  0.00    +0.163 HD
ATOM      6  H   UNL     1      -8.179   4.875  -6.095  0.00  0.00    +0.159 HD
ATOM      7  H   UNL     1      -8.887   6.365  -5.598  0.00  0.00    +0.159 HD
ATOM      8  H   UNL     1      -5.734   4.733  -3.557  0.00  0.00    +0.159 HD
ATOM      9  H   UNL     1      -6.397   3.952  -4.940  0.00  0.00    +0.159 HD
ENDROOT
BRANCH   1  10
ATOM     10  C   UNL     1      -6.478   6.920  -2.436  0.00  0.00    +0.151 C 
BRANCH  10  11
ATOM     11  C   UNL     1      -5.479   8.012  -2.703  0.00  0.00    -0.028 A 
ATOM     12  C   UNL     1      -5.496   9.193  -1.947  0.00  0.00    +0.005 A 
ATOM     13  C   UNL     1      -4.510   7.869  -3.707  0.00  0.00    +0.005 A 
ATOM     14  C   UNL     1      -4.550  10.195  -2.174  0.00  0.00    +0.000 A 
ATOM     15  C   UNL     1      -3.567   8.872  -3.932  0.00  0.00    +0.000 A 
ATOM     16  C   UNL     1      -3.586  10.034  -3.164  0.00  0.00    +0.000 A 
ENDBRANCH  10  11
ENDBRANCH   1  10
TORSDOF 2
ENDMDL
MODEL 2
REMARK VINA RESULT:    -6.055      3.836      5.348
REMARK INTER + INTRA:          -6.899
REMARK INTER:                  -6.774
REMARK INTRA:                  -0.124
REMARK UNBOUND:                -0.136
REMARK  Name = 1550473
REMARK  2 active torsions:
REMARK  status: ('A' for Active; 'I' for Inactive)
REMARK    1  A    between atoms: N_1  and  C_4
REMARK    2  A    between atoms: C_4  and  C_5
REMARK                            x       y       z     vdW  Elec       q    Type
REMARK                         _______ _______ _______ _____ _____    ______ ____
ROOT
ATOM      1  N   UNL     1      -3.420  10.827  -3.198  0.00  0.00    -0.354 N 
ATOM      2  N   UNL     1      -2.697  12.960  -2.658  0.00  0.00    -0.372 N 
ATOM      3  N   UNL     1      -1.370  11.643  -3.988  0.00  0.00    -0.372 N 
ATOM      4  C   UNL     1      -2.498  11.795  -3.286  0.00  0.00    +0.166 C 
ATOM      5  H   UNL     1      -4.240  10.994  -2.626  0.00  0.00    +0.163 HD
ATOM      6  H   UNL     1      -2.020  13.710  -2.709  0.00  0.00    +0.159 HD
ATOM      7  H   UNL     1      -3.538  13.141  -2.124  0.00  0.00    +0.159 HD
ATOM      8  H   UNL     1      -1.157  10.785  -4.481  0.00  0.00    +0.159 HD
ATOM      9  H   UNL     1      -0.676  12.377  -4.042  0.00  0.00    +0.159 HD
ENDROOT
BRANCH   1  10
ATOM     10  C   UNL     1      -3.325   9.542  -3.888  0.00  0.00    +0.151 C 
BRANCH  10  11
ATOM     11  C   UNL     1      -4.404   8.628  -3.376  0.00  0.00    -0.028 A 
ATOM     12  C   UNL     1      -5.271   9.051  -2.358  0.00  0.00    +0.005 A 
ATOM     13  C   UNL     1      -4.567   7.340  -3.908  0.00  0.00    +0.005 A 
ATOM     14  C   UNL     1      -6.292   8.214  -1.902  0.00  0.00    +0.000 A 
ATOM     15  C   UNL     1      -5.588   6.507  -3.450  0.00  0.00    +0.000 A 
ATOM     16  C   UNL     1      -6.451   6.945  -2.449  0.00  0.00    +0.000 A 
ENDBRANCH  10  11
ENDBRANCH   1  10
TORSDOF 2
ENDMDL
MODEL 3
REMARK VINA RESULT:    -5.925     24.637     25.809
REMARK INTER + INTRA:          -6.754
REMARK INTER:                  -6.628
REMARK INTRA:                  -0.126
REMARK UNBOUND:                -0.136
REMARK  Name = 1550473
REMARK  2 active torsions:
REMARK  status: ('A' for Active; 'I' for Inactive)
REMARK    1  A    between atoms: N_1  and  C_4
REMARK    2  A    between atoms: C_4  and  C_5
REMARK                            x       y       z     vdW  Elec       q    Type
REMARK                         _______ _______ _______ _____ _____    ______ ____
ROOT
ATOM      1  N   UNL     1      -2.956  -5.135 -25.152  0.00  0.00    -0.354 N 
ATOM      2  N   UNL     1      -4.774  -5.283 -23.725  0.00  0.00    -0.372 N 
ATOM      3  N   UNL     1      -4.797  -3.705 -25.391  0.00  0.00    -0.372 N 
ATOM      4  C   UNL     1      -4.164  -4.704 -24.766  0.00  0.00    +0.166 C 
ATOM      5  H   UNL     1      -2.516  -5.876 -24.618  0.00  0.00    +0.163 HD
ATOM      6  H   UNL     1      -5.687  -4.982 -23.413  0.00  0.00    +0.159 HD
ATOM      7  H   UNL     1      -4.352  -6.054 -23.222  0.00  0.00    +0.159 HD
ATOM      8  H   UNL     1      -4.388  -3.223 -26.180  0.00  0.00    +0.159 HD
ATOM      9  H   UNL     1      -5.707  -3.382 -25.086  0.00  0.00    +0.159 HD
ENDROOT
BRANCH   1  10
ATOM     10  C   UNL     1      -2.230  -4.609 -26.307  0.00  0.00    +0.151 C 
BRANCH  10  11
ATOM     11  C   UNL     1      -0.752  -4.710 -26.046  0.00  0.00    -0.028 A 
ATOM     12  C   UNL     1      -0.259  -5.601 -25.081  0.00  0.00    +0.005 A 
ATOM     13  C   UNL     1       0.160  -3.923 -26.765  0.00  0.00    +0.005 A 
ATOM     14  C   UNL     1       1.116  -5.717 -24.860  0.00  0.00    +0.000 A 
ATOM     15  C   UNL     1       1.531  -4.041 -26.540  0.00  0.00    +0.000 A 
ATOM     16  C   UNL     1       2.009  -4.940 -25.590  0.00  0.00    +0.000 A 
ENDBRANCH  10  11
ENDBRANCH   1  10
TORSDOF 2
ENDMDL
MODEL 4
REMARK VINA RESULT:    -5.704      2.845      4.062
REMARK INTER + INTRA:          -6.507
REMARK INTER:                  -6.346
REMARK INTRA:                  -0.161
REMARK UNBOUND:                -0.136
REMARK  Name = 1550473
REMARK  2 active torsions:
REMARK  status: ('A' for Active; 'I' for Inactive)
REMARK    1  A    between atoms: N_1  and  C_4
REMARK    2  A    between atoms: C_4  and  C_5
REMARK                            x       y       z     vdW  Elec       q    Type
REMARK                         _______ _______ _______ _____ _____    ______ ____
ROOT
ATOM      1  N   UNL     1      -4.106   9.506  -5.493  0.00  0.00    -0.354 N 
ATOM      2  N   UNL     1      -4.727   9.557  -7.724  0.00  0.00    -0.372 N 
ATOM      3  N   UNL     1      -3.616   7.716  -6.923  0.00  0.00    -0.372 N 
ATOM      4  C   UNL     1      -4.144   8.923  -6.699  0.00  0.00    +0.166 C 
ATOM      5  H   UNL     1      -4.497  10.436  -5.396  0.00  0.00    +0.163 HD
ATOM      6  H   UNL     1      -4.775   9.140  -8.644  0.00  0.00    +0.159 HD
ATOM      7  H   UNL     1      -5.159  10.466  -7.612  0.00  0.00    +0.159 HD
ATOM      8  H   UNL     1      -3.157   7.188  -6.193  0.00  0.00    +0.159 HD
ATOM      9  H   UNL     1      -3.643   7.287  -7.840  0.00  0.00    +0.159 HD
ENDROOT
BRANCH   1  10
ATOM     10  C   UNL     1      -3.542   8.879  -4.299  0.00  0.00    +0.151 C 
BRANCH  10  11
ATOM     11  C   UNL     1      -4.657   8.280  -3.486  0.00  0.00    -0.028 A 
ATOM     12  C   UNL     1      -5.054   6.951  -3.693  0.00  0.00    +0.005 A 
ATOM     13  C   UNL     1      -5.316   9.035  -2.504  0.00  0.00    +0.005 A 
ATOM     14  C   UNL     1      -6.069   6.385  -2.917  0.00  0.00    +0.000 A 
ATOM     15  C   UNL     1      -6.330   8.467  -1.733  0.00  0.00    +0.000 A 
ATOM     16  C   UNL     1      -6.704   7.141  -1.938  0.00  0.00    +0.000 A 
ENDBRANCH  10  11
ENDBRANCH   1  10
TORSDOF 2
ENDMDL
MODEL 5
REMARK VINA RESULT:    -5.619     23.699     24.256
REMARK INTER + INTRA:          -6.413
REMARK INTER:                  -6.294
REMARK INTRA:                  -0.119
REMARK UNBOUND:                -0.136
REMARK  Name = 1550473
REMARK  2 active torsions:
REMARK  status: ('A' for Active; 'I' for Inactive)
REMARK    1  A    between atoms: N_1  and  C_4
REMARK    2  A    between atoms: C_4  and  C_5
REMARK                            x       y       z     vdW  Elec       q    Type
REMARK                         _______ _______ _______ _____ _____    ______ ____
ROOT
ATOM      1  N   UNL     1      10.401   1.180  13.557  0.00  0.00    -0.354 N 
ATOM      2  N   UNL     1      11.503   3.216  13.614  0.00  0.00    -0.372 N 
ATOM      3  N   UNL     1       9.209   3.196  13.604  0.00  0.00    -0.372 N 
ATOM      4  C   UNL     1      10.361   2.518  13.591  0.00  0.00    +0.166 C 
ATOM      5  H   UNL     1      11.307   0.726  13.518  0.00  0.00    +0.163 HD
ATOM      6  H   UNL     1      11.504   4.227  13.643  0.00  0.00    +0.159 HD
ATOM      7  H   UNL     1      12.407   2.759  13.621  0.00  0.00    +0.159 HD
ATOM      8  H   UNL     1       8.312   2.729  13.582  0.00  0.00    +0.159 HD
ATOM      9  H   UNL     1       9.189   4.208  13.622  0.00  0.00    +0.159 HD
ENDROOT
BRANCH   1  10
ATOM     10  C   UNL     1       9.216   0.325  13.584  0.00  0.00    +0.151 C 
BRANCH  10  11
ATOM     11  C   UNL     1       9.477  -0.905  12.759  0.00  0.00    -0.028 A 
ATOM     12  C   UNL     1       9.408  -2.180  13.339  0.00  0.00    +0.005 A 
ATOM     13  C   UNL     1       9.790  -0.801  11.394  0.00  0.00    +0.005 A 
ATOM     14  C   UNL     1       9.621  -3.323  12.566  0.00  0.00    +0.000 A 
ATOM     15  C   UNL     1      10.003  -1.946  10.626  0.00  0.00    +0.000 A 
ATOM     16  C   UNL     1       9.917  -3.207  11.211  0.00  0.00    +0.000 A 
ENDBRANCH  10  11
ENDBRANCH   1  10
TORSDOF 2
ENDMDL
MODEL 6
REMARK VINA RESULT:    -5.446     23.530     25.357
REMARK INTER + INTRA:          -6.219
REMARK INTER:                  -6.079
REMARK INTRA:                  -0.140
REMARK UNBOUND:                -0.136
REMARK  Name = 1550473
REMARK  2 active torsions:
REMARK  status: ('A' for Active; 'I' for Inactive)
REMARK    1  A    between atoms: N_1  and  C_4
REMARK    2  A    between atoms: C_4  and  C_5
REMARK                            x       y       z     vdW  Elec       q    Type
REMARK                         _______ _______ _______ _____ _____    ______ ____
ROOT
ATOM      1  N   UNL     1      -5.195  -3.803 -25.197  0.00  0.00    -0.354 N 
ATOM      2  N   UNL     1      -6.743  -2.081 -25.159  0.00  0.00    -0.372 N 
ATOM      3  N   UNL     1      -5.574  -2.563 -23.245  0.00  0.00    -0.372 N 
ATOM      4  C   UNL     1      -5.826  -2.827 -24.531  0.00  0.00    +0.166 C 
ATOM      5  H   UNL     1      -5.454  -3.973 -26.162  0.00  0.00    +0.163 HD
ATOM      6  H   UNL     1      -7.233  -1.335 -24.684  0.00  0.00    +0.159 HD
ATOM      7  H   UNL     1      -6.966  -2.222 -26.137  0.00  0.00    +0.159 HD
ATOM      8  H   UNL     1      -4.897  -3.094 -22.712  0.00  0.00    +0.159 HD
ATOM      9  H   UNL     1      -6.062  -1.829 -22.748  0.00  0.00    +0.159 HD
ENDROOT
BRANCH   1  10
ATOM     10  C   UNL     1      -4.143  -4.638 -24.621  0.00  0.00    +0.151 C 
BRANCH  10  11
ATOM     11  C   UNL     1      -2.977  -4.683 -25.569  0.00  0.00    -0.028 A 
ATOM     12  C   UNL     1      -1.741  -5.202 -25.155  0.00  0.00    +0.005 A 
ATOM     13  C   UNL     1      -3.102  -4.213 -26.885  0.00  0.00    +0.005 A 
ATOM     14  C   UNL     1      -0.667  -5.272 -26.044  0.00  0.00    +0.000 A 
ATOM     15  C   UNL     1      -2.026  -4.283 -27.770  0.00  0.00    +0.000 A 
ATOM     16  C   UNL     1      -0.810  -4.815 -27.350  0.00  0.00    +0.000 A 
ENDBRANCH  10  11
ENDBRANCH   1  10
TORSDOF 2
ENDMDL
MODEL 7
REMARK VINA RESULT:    -5.279     10.274     12.016
REMARK INTER + INTRA:          -6.033
REMARK INTER:                  -5.900
REMARK INTRA:                  -0.132
REMARK UNBOUND:                -0.136
REMARK  Name = 1550473
REMARK  2 active torsions:
REMARK  status: ('A' for Active; 'I' for Inactive)
REMARK    1  A    between atoms: N_1  and  C_4
REMARK    2  A    between atoms: C_4  and  C_5
REMARK                            x       y       z     vdW  Elec       q    Type
REMARK                         _______ _______ _______ _____ _____    ______ ____
ROOT
ATOM      1  N   UNL     1      -5.587   2.575 -14.902  0.00  0.00    -0.354 N 
ATOM      2  N   UNL     1      -5.943   1.881 -17.082  0.00  0.00    -0.372 N 
ATOM      3  N   UNL     1      -4.388   0.777 -15.807  0.00  0.00    -0.372 N 
ATOM      4  C   UNL     1      -5.301   1.747 -15.915  0.00  0.00    +0.166 C 
ATOM      5  H   UNL     1      -6.268   3.309 -15.057  0.00  0.00    +0.163 HD
ATOM      6  H   UNL     1      -5.752   1.269 -17.864  0.00  0.00    +0.159 HD
ATOM      7  H   UNL     1      -6.657   2.586 -17.220  0.00  0.00    +0.159 HD
ATOM      8  H   UNL     1      -3.864   0.627 -14.955  0.00  0.00    +0.159 HD
ATOM      9  H   UNL     1      -4.173   0.161 -16.582  0.00  0.00    +0.159 HD
ENDROOT
BRANCH   1  10
ATOM     10  C   UNL     1      -4.983   2.480 -13.574  0.00  0.00    +0.151 C 
BRANCH  10  11
ATOM     11  C   UNL     1      -6.044   2.098 -12.578  0.00  0.00    -0.028 A 
ATOM     12  C   UNL     1      -6.303   2.912 -11.466  0.00  0.00    +0.005 A 
ATOM     13  C   UNL     1      -6.798   0.926 -12.746  0.00  0.00    +0.005 A 
ATOM     14  C   UNL     1      -7.309   2.573 -10.557  0.00  0.00    +0.000 A 
ATOM     15  C   UNL     1      -7.801   0.591 -11.836  0.00  0.00    +0.000 A 
ATOM     16  C   UNL     1      -8.058   1.416 -10.743  0.00  0.00    +0.000 A 
ENDBRANCH  10  11
ENDBRANCH   1  10
TORSDOF 2
ENDMDL
MODEL 8
REMARK VINA RESULT:    -5.265     25.055     25.639
REMARK INTER + INTRA:          -6.017
REMARK INTER:                  -5.951
REMARK INTRA:                  -0.066
REMARK UNBOUND:                -0.136
REMARK  Name = 1550473
REMARK  2 active torsions:
REMARK  status: ('A' for Active; 'I' for Inactive)
REMARK    1  A    between atoms: N_1  and  C_4
REMARK    2  A    between atoms: C_4  and  C_5
REMARK                            x       y       z     vdW  Elec       q    Type
REMARK                         _______ _______ _______ _____ _____    ______ ____
ROOT
ATOM      1  N   UNL     1      10.279   1.919  16.041  0.00  0.00    -0.354 N 
ATOM      2  N   UNL     1      10.644   1.622  18.309  0.00  0.00    -0.372 N 
ATOM      3  N   UNL     1      12.392   1.315  16.855  0.00  0.00    -0.372 N 
ATOM      4  C   UNL     1      11.105   1.620  17.052  0.00  0.00    +0.166 C 
ATOM      5  H   UNL     1       9.307   2.112  16.254  0.00  0.00    +0.163 HD
ATOM      6  H   UNL     1      11.244   1.404  19.093  0.00  0.00    +0.159 HD
ATOM      7  H   UNL     1       9.683   1.861  18.523  0.00  0.00    +0.159 HD
ATOM      8  H   UNL     1      12.800   1.289  15.930  0.00  0.00    +0.159 HD
ATOM      9  H   UNL     1      13.006   1.082  17.625  0.00  0.00    +0.159 HD
ENDROOT
BRANCH   1  10
ATOM     10  C   UNL     1      10.694   1.997  14.642  0.00  0.00    +0.151 C 
BRANCH  10  11
ATOM     11  C   UNL     1      10.186   0.785  13.910  0.00  0.00    -0.028 A 
ATOM     12  C   UNL     1       9.572  -0.264  14.611  0.00  0.00    +0.005 A 
ATOM     13  C   UNL     1      10.311   0.682  12.516  0.00  0.00    +0.005 A 
ATOM     14  C   UNL     1       9.073  -1.376  13.929  0.00  0.00    +0.000 A 
ATOM     15  C   UNL     1       9.812  -0.431  11.839  0.00  0.00    +0.000 A 
ATOM     16  C   UNL     1       9.191  -1.458  12.545  0.00  0.00    +0.000 A 
ENDBRANCH  10  11
ENDBRANCH   1  10
TORSDOF 2
ENDMDL
MODEL 9
REMARK VINA RESULT:    -5.227     22.769     24.231
REMARK INTER + INTRA:          -5.975
REMARK INTER:                  -5.860
REMARK INTRA:                  -0.115
REMARK UNBOUND:                -0.136
REMARK  Name = 1550473
REMARK  2 active torsions:
REMARK  status: ('A' for Active; 'I' for Inactive)
REMARK    1  A    between atoms: N_1  and  C_4
REMARK    2  A    between atoms: C_4  and  C_5
REMARK                            x       y       z     vdW  Elec       q    Type
REMARK                         _______ _______ _______ _____ _____    ______ ____
ROOT
ATOM      1  N   UNL     1      -8.387  -1.218 -25.858  0.00  0.00    -0.354 N 
ATOM      2  N   UNL     1      -9.260   0.727 -26.764  0.00  0.00    -0.372 N 
ATOM      3  N   UNL     1      -9.848  -1.289 -27.689  0.00  0.00    -0.372 N 
ATOM      4  C   UNL     1      -9.160  -0.608 -26.766  0.00  0.00    +0.166 C 
ATOM      5  H   UNL     1      -7.868  -0.644 -25.204  0.00  0.00    +0.163 HD
ATOM      6  H   UNL     1      -9.838   1.215 -27.435  0.00  0.00    +0.159 HD
ATOM      7  H   UNL     1      -8.776   1.296 -26.080  0.00  0.00    +0.159 HD
ATOM      8  H   UNL     1      -9.811  -2.298 -27.749  0.00  0.00    +0.159 HD
ATOM      9  H   UNL     1     -10.423  -0.818 -28.377  0.00  0.00    +0.159 HD
ENDROOT
BRANCH   1  10
ATOM     10  C   UNL     1      -8.252  -2.669 -25.741  0.00  0.00    +0.151 C 
BRANCH  10  11
ATOM     11  C   UNL     1      -7.046  -2.984 -24.900  0.00  0.00    -0.028 A 
ATOM     12  C   UNL     1      -6.289  -4.139 -25.146  0.00  0.00    +0.005 A 
ATOM     13  C   UNL     1      -6.652  -2.129 -23.859  0.00  0.00    +0.005 A 
ATOM     14  C   UNL     1      -5.151  -4.416 -24.384  0.00  0.00    +0.000 A 
ATOM     15  C   UNL     1      -5.516  -2.410 -23.101  0.00  0.00    +0.000 A 
ATOM     16  C   UNL     1      -4.765  -3.553 -23.365  0.00  0.00    +0.000 A 
ENDBRANCH  10  11
ENDBRANCH   1  10
TORSDOF 2
ENDMDL
