MODEL 1
REMARK VINA RESULT:    -4.896      0.000      0.000
REMARK INTER + INTRA:          -5.612
REMARK INTER:                  -5.469
REMARK INTRA:                  -0.144
REMARK UNBOUND:                -0.144
REMARK  Name = 1550473
REMARK  2 active torsions:
REMARK  status: ('A' for Active; 'I' for Inactive)
REMARK    1  A    between atoms: N_1  and  C_4
REMARK    2  A    between atoms: C_4  and  C_5
REMARK                            x       y       z     vdW  Elec       q    Type
REMARK                         _______ _______ _______ _____ _____    ______ ____
ROOT
ATOM      1  N   UNL     1       6.374  11.417   0.651  0.00  0.00    -0.354 N 
ATOM      2  N   UNL     1       7.462  13.155  -0.427  0.00  0.00    -0.372 N 
ATOM      3  N   UNL     1       8.334  11.038  -0.577  0.00  0.00    -0.372 N 
ATOM      4  C   UNL     1       7.384  11.857  -0.111  0.00  0.00    +0.166 C 
ATOM      5  H   UNL     1       5.703  12.094   0.998  0.00  0.00    +0.163 HD
ATOM      6  H   UNL     1       8.211  13.515  -1.003  0.00  0.00    +0.159 HD
ATOM      7  H   UNL     1       6.764  13.821  -0.117  0.00  0.00    +0.159 HD
ATOM      8  H   UNL     1       8.336  10.048  -0.370  0.00  0.00    +0.159 HD
ATOM      9  H   UNL     1       9.098  11.382  -1.145  0.00  0.00    +0.159 HD
ENDROOT
BRANCH   1  10
ATOM     10  C   UNL     1       6.169  10.015   1.007  0.00  0.00    +0.151 C 
BRANCH  10  11
ATOM     11  C   UNL     1       6.008   9.905   2.498  0.00  0.00    -0.028 A 
ATOM     12  C   UNL     1       6.084   8.656   3.133  0.00  0.00    +0.005 A 
ATOM     13  C   UNL     1       5.786  11.047   3.283  0.00  0.00    +0.005 A 
ATOM     14  C   UNL     1       5.965   8.558   4.521  0.00  0.00    +0.000 A 
ATOM     15  C   UNL     1       5.667  10.944   4.669  0.00  0.00    +0.000 A 
ATOM     16  C   UNL     1       5.759   9.699   5.288  0.00  0.00    +0.000 A 
ENDBRANCH  10  11
ENDBRANCH   1  10
TORSDOF 2
ENDMDL
MODEL 2
REMARK VINA RESULT:    -4.609     25.014     25.973
REMARK INTER + INTRA:          -5.292
REMARK INTER:                  -5.186
REMARK INTRA:                  -0.106
REMARK UNBOUND:                -0.144
REMARK  Name = 1550473
REMARK  2 active torsions:
REMARK  status: ('A' for Active; 'I' for Inactive)
REMARK    1  A    between atoms: N_1  and  C_4
REMARK    2  A    between atoms: C_4  and  C_5
REMARK                            x       y       z     vdW  Elec       q    Type
REMARK                         _______ _______ _______ _____ _____    ______ ____
ROOT
ATOM      1  N   UNL     1     -11.084  -8.136   0.038  0.00  0.00    -0.354 N 
ATOM      2  N   UNL     1     -10.117 -10.143  -0.596  0.00  0.00    -0.372 N 
ATOM      3  N   UNL     1      -9.670  -8.258  -1.826  0.00  0.00    -0.372 N 
ATOM      4  C   UNL     1     -10.296  -8.831  -0.793  0.00  0.00    +0.166 C 
ATOM      5  H   UNL     1     -11.555  -8.635   0.784  0.00  0.00    +0.163 HD
ATOM      6  H   UNL     1      -9.525 -10.693  -1.205  0.00  0.00    +0.159 HD
ATOM      7  H   UNL     1     -10.552 -10.630   0.178  0.00  0.00    +0.159 HD
ATOM      8  H   UNL     1      -9.768  -7.273  -2.033  0.00  0.00    +0.159 HD
ATOM      9  H   UNL     1      -9.082  -8.794  -2.453  0.00  0.00    +0.159 HD
ENDROOT
BRANCH   1  10
ATOM     10  C   UNL     1     -11.302  -6.694  -0.057  0.00  0.00    +0.151 C 
BRANCH  10  11
ATOM     11  C   UNL     1     -12.555  -6.336   0.694  0.00  0.00    -0.028 A 
ATOM     12  C   UNL     1     -13.802  -6.819   0.269  0.00  0.00    +0.005 A 
ATOM     13  C   UNL     1     -12.502  -5.519   1.834  0.00  0.00    +0.005 A 
ATOM     14  C   UNL     1     -14.962  -6.511   0.984  0.00  0.00    +0.000 A 
ATOM     15  C   UNL     1     -13.663  -5.214   2.544  0.00  0.00    +0.000 A 
ATOM     16  C   UNL     1     -14.893  -5.712   2.120  0.00  0.00    +0.000 A 
ENDBRANCH  10  11
ENDBRANCH   1  10
TORSDOF 2
ENDMDL
MODEL 3
REMARK VINA RESULT:    -4.344      2.449      3.320
REMARK INTER + INTRA:          -4.996
REMARK INTER:                  -4.840
REMARK INTRA:                  -0.156
REMARK UNBOUND:                -0.144
REMARK  Name = 1550473
REMARK  2 active torsions:
REMARK  status: ('A' for Active; 'I' for Inactive)
REMARK    1  A    between atoms: N_1  and  C_4
REMARK    2  A    between atoms: C_4  and  C_5
REMARK                            x       y       z     vdW  Elec       q    Type
REMARK                         _______ _______ _______ _____ _____    ______ ____
ROOT
ATOM      1  N   UNL     1       7.076  11.455  -2.679  0.00  0.00    -0.354 N 
ATOM      2  N   UNL     1       8.090  13.459  -3.245  0.00  0.00    -0.372 N 
ATOM      3  N   UNL     1       9.061  12.140  -1.638  0.00  0.00    -0.372 N 
ATOM      4  C   UNL     1       8.071  12.337  -2.514  0.00  0.00    +0.166 C 
ATOM      5  H   UNL     1       6.339  11.677  -3.338  0.00  0.00    +0.163 HD
ATOM      6  H   UNL     1       8.829  14.141  -3.145  0.00  0.00    +0.159 HD
ATOM      7  H   UNL     1       7.377  13.657  -3.936  0.00  0.00    +0.159 HD
ATOM      8  H   UNL     1       9.102  11.317  -1.052  0.00  0.00    +0.159 HD
ATOM      9  H   UNL     1       9.804  12.817  -1.515  0.00  0.00    +0.159 HD
ENDROOT
BRANCH   1  10
ATOM     10  C   UNL     1       6.991  10.178  -1.972  0.00  0.00    +0.151 C 
BRANCH  10  11
ATOM     11  C   UNL     1       6.176  10.362  -0.722  0.00  0.00    -0.028 A 
ATOM     12  C   UNL     1       6.612   9.824   0.498  0.00  0.00    +0.005 A 
ATOM     13  C   UNL     1       4.969  11.077  -0.749  0.00  0.00    +0.005 A 
ATOM     14  C   UNL     1       5.870  10.021   1.666  0.00  0.00    +0.000 A 
ATOM     15  C   UNL     1       4.231  11.270   0.418  0.00  0.00    +0.000 A 
ATOM     16  C   UNL     1       4.683  10.744   1.626  0.00  0.00    +0.000 A 
ENDBRANCH  10  11
ENDBRANCH   1  10
TORSDOF 2
ENDMDL
MODEL 4
REMARK VINA RESULT:    -4.215     34.977     35.424
REMARK INTER + INTRA:          -4.851
REMARK INTER:                  -4.709
REMARK INTRA:                  -0.142
REMARK UNBOUND:                -0.144
REMARK  Name = 1550473
REMARK  2 active torsions:
REMARK  status: ('A' for Active; 'I' for Inactive)
REMARK    1  A    between atoms: N_1  and  C_4
REMARK    2  A    between atoms: C_4  and  C_5
REMARK                            x       y       z     vdW  Elec       q    Type
REMARK                         _______ _______ _______ _____ _____    ______ ____
ROOT
ATOM      1  N   UNL     1      33.228  -3.038 -15.197  0.00  0.00    -0.354 N 
ATOM      2  N   UNL     1      32.292  -1.934 -17.005  0.00  0.00    -0.372 N 
ATOM      3  N   UNL     1      33.626  -3.761 -17.390  0.00  0.00    -0.372 N 
ATOM      4  C   UNL     1      33.056  -2.920 -16.520  0.00  0.00    +0.166 C 
ATOM      5  H   UNL     1      32.793  -2.350 -14.592  0.00  0.00    +0.163 HD
ATOM      6  H   UNL     1      32.141  -1.822 -17.999  0.00  0.00    +0.159 HD
ATOM      7  H   UNL     1      31.822  -1.276 -16.396  0.00  0.00    +0.159 HD
ATOM      8  H   UNL     1      34.219  -4.523 -17.088  0.00  0.00    +0.159 HD
ATOM      9  H   UNL     1      33.496  -3.659 -18.389  0.00  0.00    +0.159 HD
ENDROOT
BRANCH   1  10
ATOM     10  C   UNL     1      33.996  -4.108 -14.564  0.00  0.00    +0.151 C 
BRANCH  10  11
ATOM     11  C   UNL     1      34.932  -3.508 -13.551  0.00  0.00    -0.028 A 
ATOM     12  C   UNL     1      35.613  -4.326 -12.638  0.00  0.00    +0.005 A 
ATOM     13  C   UNL     1      35.146  -2.121 -13.503  0.00  0.00    +0.005 A 
ATOM     14  C   UNL     1      36.506  -3.772 -11.717  0.00  0.00    +0.000 A 
ATOM     15  C   UNL     1      36.037  -1.572 -12.581  0.00  0.00    +0.000 A 
ATOM     16  C   UNL     1      36.718  -2.398 -11.690  0.00  0.00    +0.000 A 
ENDBRANCH  10  11
ENDBRANCH   1  10
TORSDOF 2
ENDMDL
MODEL 5
REMARK VINA RESULT:    -4.055     14.805     16.208
REMARK INTER + INTRA:          -4.673
REMARK INTER:                  -4.559
REMARK INTRA:                  -0.114
REMARK UNBOUND:                -0.144
REMARK  Name = 1550473
REMARK  2 active torsions:
REMARK  status: ('A' for Active; 'I' for Inactive)
REMARK    1  A    between atoms: N_1  and  C_4
REMARK    2  A    between atoms: C_4  and  C_5
REMARK                            x       y       z     vdW  Elec       q    Type
REMARK                         _______ _______ _______ _____ _____    ______ ____
ROOT
ATOM      1  N   UNL     1      13.878  -1.146   7.314  0.00  0.00    -0.354 N 
ATOM      2  N   UNL     1      13.719  -0.202   5.205  0.00  0.00    -0.372 N 
ATOM      3  N   UNL     1      11.826  -1.051   6.185  0.00  0.00    -0.372 N 
ATOM      4  C   UNL     1      13.139  -0.806   6.249  0.00  0.00    +0.166 C 
ATOM      5  H   UNL     1      14.874  -0.960   7.288  0.00  0.00    +0.163 HD
ATOM      6  H   UNL     1      13.187   0.069   4.389  0.00  0.00    +0.159 HD
ATOM      7  H   UNL     1      14.706   0.024   5.201  0.00  0.00    +0.159 HD
ATOM      8  H   UNL     1      11.330  -1.510   6.938  0.00  0.00    +0.159 HD
ATOM      9  H   UNL     1      11.278  -0.798   5.372  0.00  0.00    +0.159 HD
ENDROOT
BRANCH   1  10
ATOM     10  C   UNL     1      13.334  -1.759   8.524  0.00  0.00    +0.151 C 
BRANCH  10  11
ATOM     11  C   UNL     1      14.450  -1.983   9.506  0.00  0.00    -0.028 A 
ATOM     12  C   UNL     1      15.507  -1.066   9.604  0.00  0.00    +0.005 A 
ATOM     13  C   UNL     1      14.455  -3.108  10.345  0.00  0.00    +0.005 A 
ATOM     14  C   UNL     1      16.529  -1.258  10.537  0.00  0.00    +0.000 A 
ATOM     15  C   UNL     1      15.478  -3.296  11.275  0.00  0.00    +0.000 A 
ATOM     16  C   UNL     1      16.513  -2.370  11.372  0.00  0.00    +0.000 A 
ENDBRANCH  10  11
ENDBRANCH   1  10
TORSDOF 2
ENDMDL
MODEL 6
REMARK VINA RESULT:    -4.024     23.439     23.889
REMARK INTER + INTRA:          -4.638
REMARK INTER:                  -4.510
REMARK INTRA:                  -0.128
REMARK UNBOUND:                -0.144
REMARK  Name = 1550473
REMARK  2 active torsions:
REMARK  status: ('A' for Active; 'I' for Inactive)
REMARK    1  A    between atoms: N_1  and  C_4
REMARK    2  A    between atoms: C_4  and  C_5
REMARK                            x       y       z     vdW  Elec       q    Type
REMARK                         _______ _______ _______ _____ _____    ______ ____
ROOT
ATOM      1  N   UNL     1      27.811  16.469  12.868  0.00  0.00    -0.354 N 
ATOM      2  N   UNL     1      29.579  15.190  12.090  0.00  0.00    -0.372 N 
ATOM      3  N   UNL     1      27.968  15.876  10.607  0.00  0.00    -0.372 N 
ATOM      4  C   UNL     1      28.440  15.853  11.858  0.00  0.00    +0.166 C 
ATOM      5  H   UNL     1      28.204  16.389  13.799  0.00  0.00    +0.163 HD
ATOM      6  H   UNL     1      30.077  14.719  11.347  0.00  0.00    +0.159 HD
ATOM      7  H   UNL     1      29.993  15.150  13.013  0.00  0.00    +0.159 HD
ATOM      8  H   UNL     1      27.111  16.354  10.366  0.00  0.00    +0.159 HD
ATOM      9  H   UNL     1      28.447  15.401   9.851  0.00  0.00    +0.159 HD
ENDROOT
BRANCH   1  10
ATOM     10  C   UNL     1      26.594  17.263  12.712  0.00  0.00    +0.151 C 
BRANCH  10  11
ATOM     11  C   UNL     1      25.746  17.110  13.944  0.00  0.00    -0.028 A 
ATOM     12  C   UNL     1      25.600  15.856  14.557  0.00  0.00    +0.005 A 
ATOM     13  C   UNL     1      25.090  18.215  14.507  0.00  0.00    +0.005 A 
ATOM     14  C   UNL     1      24.837  15.719  15.718  0.00  0.00    +0.000 A 
ATOM     15  C   UNL     1      24.327  18.073  15.667  0.00  0.00    +0.000 A 
ATOM     16  C   UNL     1      24.203  16.826  16.273  0.00  0.00    +0.000 A 
ENDBRANCH  10  11
ENDBRANCH   1  10
TORSDOF 2
ENDMDL
MODEL 7
REMARK VINA RESULT:    -3.986     24.528     25.439
REMARK INTER + INTRA:          -4.596
REMARK INTER:                  -4.471
REMARK INTRA:                  -0.125
REMARK UNBOUND:                -0.144
REMARK  Name = 1550473
REMARK  2 active torsions:
REMARK  status: ('A' for Active; 'I' for Inactive)
REMARK    1  A    between atoms: N_1  and  C_4
REMARK    2  A    between atoms: C_4  and  C_5
REMARK                            x       y       z     vdW  Elec       q    Type
REMARK                         _______ _______ _______ _____ _____    ______ ____
ROOT
ATOM      1  N   UNL     1     -12.027  -7.386   1.143  0.00  0.00    -0.354 N 
ATOM      2  N   UNL     1     -11.093  -6.392  -0.729  0.00  0.00    -0.372 N 
ATOM      3  N   UNL     1      -9.988  -8.139   0.267  0.00  0.00    -0.372 N 
ATOM      4  C   UNL     1     -11.040  -7.314   0.240  0.00  0.00    +0.166 C 
ATOM      5  H   UNL     1     -12.782  -6.712   1.085  0.00  0.00    +0.163 HD
ATOM      6  H   UNL     1     -10.365  -6.316  -1.426  0.00  0.00    +0.159 HD
ATOM      7  H   UNL     1     -11.872  -5.749  -0.811  0.00  0.00    +0.159 HD
ATOM      8  H   UNL     1      -9.886  -8.853   0.975  0.00  0.00    +0.159 HD
ATOM      9  H   UNL     1      -9.243  -8.071  -0.416  0.00  0.00    +0.159 HD
ENDROOT
BRANCH   1  10
ATOM     10  C   UNL     1     -12.092  -8.388   2.205  0.00  0.00    +0.151 C 
BRANCH  10  11
ATOM     11  C   UNL     1     -12.016  -7.696   3.538  0.00  0.00    -0.028 A 
ATOM     12  C   UNL     1     -12.157  -8.426   4.728  0.00  0.00    +0.005 A 
ATOM     13  C   UNL     1     -11.798  -6.312   3.618  0.00  0.00    +0.005 A 
ATOM     14  C   UNL     1     -12.057  -7.788   5.967  0.00  0.00    +0.000 A 
ATOM     15  C   UNL     1     -11.700  -5.680   4.857  0.00  0.00    +0.000 A 
ATOM     16  C   UNL     1     -11.827  -6.418   6.031  0.00  0.00    +0.000 A 
ENDBRANCH  10  11
ENDBRANCH   1  10
TORSDOF 2
ENDMDL
MODEL 8
REMARK VINA RESULT:    -3.896     26.134     27.172
REMARK INTER + INTRA:          -4.495
REMARK INTER:                  -4.376
REMARK INTRA:                  -0.119
REMARK UNBOUND:                -0.144
REMARK  Name = 1550473
REMARK  2 active torsions:
REMARK  status: ('A' for Active; 'I' for Inactive)
REMARK    1  A    between atoms: N_1  and  C_4
REMARK    2  A    between atoms: C_4  and  C_5
REMARK                            x       y       z     vdW  Elec       q    Type
REMARK                         _______ _______ _______ _____ _____    ______ ____
ROOT
ATOM      1  N   UNL     1     -10.166  -8.587  -0.145  0.00  0.00    -0.354 N 
ATOM      2  N   UNL     1      -9.116  -7.610  -1.963  0.00  0.00    -0.372 N 
ATOM      3  N   UNL     1     -10.864  -6.507  -0.967  0.00  0.00    -0.372 N 
ATOM      4  C   UNL     1     -10.058  -7.572  -1.012  0.00  0.00    +0.166 C 
ATOM      5  H   UNL     1      -9.544  -9.380  -0.252  0.00  0.00    +0.163 HD
ATOM      6  H   UNL     1      -9.008  -6.857  -2.629  0.00  0.00    +0.159 HD
ATOM      7  H   UNL     1      -8.466  -8.382  -2.039  0.00  0.00    +0.159 HD
ATOM      8  H   UNL     1     -11.599  -6.421  -0.277  0.00  0.00    +0.159 HD
ATOM      9  H   UNL     1     -10.780  -5.749  -1.632  0.00  0.00    +0.159 HD
ENDROOT
BRANCH   1  10
ATOM     10  C   UNL     1     -11.122  -8.620   0.960  0.00  0.00    +0.151 C 
BRANCH  10  11
ATOM     11  C   UNL     1     -11.819  -9.953   0.968  0.00  0.00    -0.028 A 
ATOM     12  C   UNL     1     -11.079 -11.143   1.017  0.00  0.00    +0.005 A 
ATOM     13  C   UNL     1     -13.220 -10.032   0.932  0.00  0.00    +0.005 A 
ATOM     14  C   UNL     1     -11.726 -12.380   1.054  0.00  0.00    +0.000 A 
ATOM     15  C   UNL     1     -13.862 -11.269   0.969  0.00  0.00    +0.000 A 
ATOM     16  C   UNL     1     -13.115 -12.443   1.032  0.00  0.00    +0.000 A 
ENDBRANCH  10  11
ENDBRANCH   1  10
TORSDOF 2
ENDMDL
MODEL 9
REMARK VINA RESULT:    -3.889     24.694     25.778
REMARK INTER + INTRA:          -4.487
REMARK INTER:                  -4.368
REMARK INTRA:                  -0.119
REMARK UNBOUND:                -0.144
REMARK  Name = 1550473
REMARK  2 active torsions:
REMARK  status: ('A' for Active; 'I' for Inactive)
REMARK    1  A    between atoms: N_1  and  C_4
REMARK    2  A    between atoms: C_4  and  C_5
REMARK                            x       y       z     vdW  Elec       q    Type
REMARK                         _______ _______ _______ _____ _____    ______ ____
ROOT
ATOM      1  N   UNL     1     -13.059  -6.490   2.017  0.00  0.00    -0.354 N 
ATOM      2  N   UNL     1     -14.150  -6.499  -0.026  0.00  0.00    -0.372 N 
ATOM      3  N   UNL     1     -11.900  -6.054   0.027  0.00  0.00    -0.372 N 
ATOM      4  C   UNL     1     -13.027  -6.347   0.685  0.00  0.00    +0.166 C 
ATOM      5  H   UNL     1     -13.951  -6.682   2.459  0.00  0.00    +0.163 HD
ATOM      6  H   UNL     1     -14.156  -6.400  -1.033  0.00  0.00    +0.159 HD
ATOM      7  H   UNL     1     -15.031  -6.737   0.413  0.00  0.00    +0.159 HD
ATOM      8  H   UNL     1     -11.020  -5.920   0.506  0.00  0.00    +0.159 HD
ATOM      9  H   UNL     1     -11.888  -5.939  -0.979  0.00  0.00    +0.159 HD
ENDROOT
BRANCH   1  10
ATOM     10  C   UNL     1     -11.882  -6.397   2.878  0.00  0.00    +0.151 C 
BRANCH  10  11
ATOM     11  C   UNL     1     -12.318  -6.468   4.315  0.00  0.00    -0.028 A 
ATOM     12  C   UNL     1     -13.551  -7.042   4.658  0.00  0.00    +0.005 A 
ATOM     13  C   UNL     1     -11.500  -5.967   5.340  0.00  0.00    +0.005 A 
ATOM     14  C   UNL     1     -13.943  -7.134   5.996  0.00  0.00    +0.000 A 
ATOM     15  C   UNL     1     -11.895  -6.060   6.674  0.00  0.00    +0.000 A 
ATOM     16  C   UNL     1     -13.116  -6.646   7.002  0.00  0.00    +0.000 A 
ENDBRANCH  10  11
ENDBRANCH   1  10
TORSDOF 2
ENDMDL
