MODEL 1
REMARK VINA RESULT:    -6.021      0.000      0.000
REMARK INTER + INTRA:          -6.834
REMARK INTER:                  -6.725
REMARK INTRA:                  -0.109
REMARK UNBOUND:                -0.109
REMARK  Name = 1550473
REMARK  2 active torsions:
REMARK  status: ('A' for Active; 'I' for Inactive)
REMARK    1  A    between atoms: N_1  and  C_4
REMARK    2  A    between atoms: C_4  and  C_5
REMARK                            x       y       z     vdW  Elec       q    Type
REMARK                         _______ _______ _______ _____ _____    ______ ____
ROOT
ATOM      1  N   UNL     1       4.760  13.340   8.055  0.00  0.00    -0.354 N 
ATOM      2  N   UNL     1       6.274  11.675   7.507  0.00  0.00    -0.372 N 
ATOM      3  N   UNL     1       5.182  11.561   9.521  0.00  0.00    -0.372 N 
ATOM      4  C   UNL     1       5.395  12.202   8.367  0.00  0.00    +0.166 C 
ATOM      5  H   UNL     1       4.988  13.793   7.178  0.00  0.00    +0.163 HD
ATOM      6  H   UNL     1       6.765  10.816   7.713  0.00  0.00    +0.159 HD
ATOM      7  H   UNL     1       6.466  12.106   6.610  0.00  0.00    +0.159 HD
ATOM      8  H   UNL     1       4.535  11.910  10.216  0.00  0.00    +0.159 HD
ATOM      9  H   UNL     1       5.673  10.707   9.752  0.00  0.00    +0.159 HD
ENDROOT
BRANCH   1  10
ATOM     10  C   UNL     1       3.745  13.968   8.899  0.00  0.00    +0.151 C 
BRANCH  10  11
ATOM     11  C   UNL     1       3.555  15.394   8.460  0.00  0.00    -0.028 A 
ATOM     12  C   UNL     1       3.434  16.421   9.407  0.00  0.00    +0.005 A 
ATOM     13  C   UNL     1       3.500  15.725   7.097  0.00  0.00    +0.005 A 
ATOM     14  C   UNL     1       3.287  17.749   9.000  0.00  0.00    +0.000 A 
ATOM     15  C   UNL     1       3.353  17.052   6.694  0.00  0.00    +0.000 A 
ATOM     16  C   UNL     1       3.249  18.064   7.646  0.00  0.00    +0.000 A 
ENDBRANCH  10  11
ENDBRANCH   1  10
TORSDOF 2
ENDMDL
MODEL 2
REMARK VINA RESULT:    -5.982      3.606      5.239
REMARK INTER + INTRA:          -6.791
REMARK INTER:                  -6.652
REMARK INTRA:                  -0.139
REMARK UNBOUND:                -0.109
REMARK  Name = 1550473
REMARK  2 active torsions:
REMARK  status: ('A' for Active; 'I' for Inactive)
REMARK    1  A    between atoms: N_1  and  C_4
REMARK    2  A    between atoms: C_4  and  C_5
REMARK                            x       y       z     vdW  Elec       q    Type
REMARK                         _______ _______ _______ _____ _____    ______ ____
ROOT
ATOM      1  N   UNL     1       3.237  17.513   9.219  0.00  0.00    -0.354 N 
ATOM      2  N   UNL     1       3.027  18.530   7.149  0.00  0.00    -0.372 N 
ATOM      3  N   UNL     1       3.867  16.397   7.257  0.00  0.00    -0.372 N 
ATOM      4  C   UNL     1       3.380  17.471   7.888  0.00  0.00    +0.166 C 
ATOM      5  H   UNL     1       2.889  18.367   9.640  0.00  0.00    +0.163 HD
ATOM      6  H   UNL     1       3.121  18.526   6.142  0.00  0.00    +0.159 HD
ATOM      7  H   UNL     1       2.637  19.366   7.568  0.00  0.00    +0.159 HD
ATOM      8  H   UNL     1       4.157  15.568   7.758  0.00  0.00    +0.159 HD
ATOM      9  H   UNL     1       3.979  16.379   6.251  0.00  0.00    +0.159 HD
ENDROOT
BRANCH   1  10
ATOM     10  C   UNL     1       3.540  16.394  10.110  0.00  0.00    +0.151 C 
BRANCH  10  11
ATOM     11  C   UNL     1       2.435  16.256  11.120  0.00  0.00    -0.028 A 
ATOM     12  C   UNL     1       1.172  16.816  10.875  0.00  0.00    +0.005 A 
ATOM     13  C   UNL     1       2.641  15.562  12.322  0.00  0.00    +0.005 A 
ATOM     14  C   UNL     1       0.136  16.663  11.799  0.00  0.00    +0.000 A 
ATOM     15  C   UNL     1       1.605  15.412  13.243  0.00  0.00    +0.000 A 
ATOM     16  C   UNL     1       0.352  15.960  12.980  0.00  0.00    +0.000 A 
ENDBRANCH  10  11
ENDBRANCH   1  10
TORSDOF 2
ENDMDL
MODEL 3
REMARK VINA RESULT:    -5.799      4.686      5.856
REMARK INTER + INTRA:          -6.586
REMARK INTER:                  -6.428
REMARK INTRA:                  -0.158
REMARK UNBOUND:                -0.109
REMARK  Name = 1550473
REMARK  2 active torsions:
REMARK  status: ('A' for Active; 'I' for Inactive)
REMARK    1  A    between atoms: N_1  and  C_4
REMARK    2  A    between atoms: C_4  and  C_5
REMARK                            x       y       z     vdW  Elec       q    Type
REMARK                         _______ _______ _______ _____ _____    ______ ____
ROOT
ATOM      1  N   UNL     1       6.657  10.396   6.688  0.00  0.00    -0.354 N 
ATOM      2  N   UNL     1       6.723   8.602   5.225  0.00  0.00    -0.372 N 
ATOM      3  N   UNL     1       4.702   9.588   5.680  0.00  0.00    -0.372 N 
ATOM      4  C   UNL     1       6.024   9.541   5.874  0.00  0.00    +0.166 C 
ATOM      5  H   UNL     1       7.657  10.289   6.816  0.00  0.00    +0.163 HD
ATOM      6  H   UNL     1       6.274   7.945   4.602  0.00  0.00    +0.159 HD
ATOM      7  H   UNL     1       7.729   8.526   5.319  0.00  0.00    +0.159 HD
ATOM      8  H   UNL     1       4.116  10.269   6.144  0.00  0.00    +0.159 HD
ATOM      9  H   UNL     1       4.232   8.932   5.069  0.00  0.00    +0.159 HD
ENDROOT
BRANCH   1  10
ATOM     10  C   UNL     1       5.996  11.489   7.399  0.00  0.00    +0.151 C 
BRANCH  10  11
ATOM     11  C   UNL     1       5.961  11.169   8.868  0.00  0.00    -0.028 A 
ATOM     12  C   UNL     1       4.787  11.365   9.611  0.00  0.00    +0.005 A 
ATOM     13  C   UNL     1       7.095  10.663   9.521  0.00  0.00    +0.005 A 
ATOM     14  C   UNL     1       4.745  11.039  10.969  0.00  0.00    +0.000 A 
ATOM     15  C   UNL     1       7.049  10.340  10.877  0.00  0.00    +0.000 A 
ATOM     16  C   UNL     1       5.873  10.526  11.600  0.00  0.00    +0.000 A 
ENDBRANCH  10  11
ENDBRANCH   1  10
TORSDOF 2
ENDMDL
MODEL 4
REMARK VINA RESULT:    -5.785      3.257      5.157
REMARK INTER + INTRA:          -6.571
REMARK INTER:                  -6.427
REMARK INTRA:                  -0.143
REMARK UNBOUND:                -0.109
REMARK  Name = 1550473
REMARK  2 active torsions:
REMARK  status: ('A' for Active; 'I' for Inactive)
REMARK    1  A    between atoms: N_1  and  C_4
REMARK    2  A    between atoms: C_4  and  C_5
REMARK                            x       y       z     vdW  Elec       q    Type
REMARK                         _______ _______ _______ _____ _____    ______ ____
ROOT
ATOM      1  N   UNL     1       3.728  16.811   8.732  0.00  0.00    -0.354 N 
ATOM      2  N   UNL     1       3.469  18.954   7.891  0.00  0.00    -0.372 N 
ATOM      3  N   UNL     1       2.520  17.197   6.761  0.00  0.00    -0.372 N 
ATOM      4  C   UNL     1       3.239  17.638   7.798  0.00  0.00    +0.166 C 
ATOM      5  H   UNL     1       4.291  17.206   9.477  0.00  0.00    +0.163 HD
ATOM      6  H   UNL     1       3.110  19.603   7.203  0.00  0.00    +0.159 HD
ATOM      7  H   UNL     1       3.993  19.350   8.662  0.00  0.00    +0.159 HD
ATOM      8  H   UNL     1       2.317  16.215   6.630  0.00  0.00    +0.159 HD
ATOM      9  H   UNL     1       2.162  17.829   6.056  0.00  0.00    +0.159 HD
ENDROOT
BRANCH   1  10
ATOM     10  C   UNL     1       3.490  15.369   8.752  0.00  0.00    +0.151 C 
BRANCH  10  11
ATOM     11  C   UNL     1       2.999  14.972  10.117  0.00  0.00    -0.028 A 
ATOM     12  C   UNL     1       2.670  13.637  10.395  0.00  0.00    +0.005 A 
ATOM     13  C   UNL     1       2.867  15.924  11.139  0.00  0.00    +0.005 A 
ATOM     14  C   UNL     1       2.244  13.261  11.671  0.00  0.00    +0.000 A 
ATOM     15  C   UNL     1       2.440  15.545  12.412  0.00  0.00    +0.000 A 
ATOM     16  C   UNL     1       2.131  14.214  12.678  0.00  0.00    +0.000 A 
ENDBRANCH  10  11
ENDBRANCH   1  10
TORSDOF 2
ENDMDL
MODEL 5
REMARK VINA RESULT:    -5.706      1.834      2.849
REMARK INTER + INTRA:          -6.482
REMARK INTER:                  -6.364
REMARK INTRA:                  -0.118
REMARK UNBOUND:                -0.109
REMARK  Name = 1550473
REMARK  2 active torsions:
REMARK  status: ('A' for Active; 'I' for Inactive)
REMARK    1  A    between atoms: N_1  and  C_4
REMARK    2  A    between atoms: C_4  and  C_5
REMARK                            x       y       z     vdW  Elec       q    Type
REMARK                         _______ _______ _______ _____ _____    ______ ____
ROOT
ATOM      1  N   UNL     1       2.818  13.875  10.248  0.00  0.00    -0.354 N 
ATOM      2  N   UNL     1       2.181  12.737  12.162  0.00  0.00    -0.372 N 
ATOM      3  N   UNL     1       3.763  11.800  10.790  0.00  0.00    -0.372 N 
ATOM      4  C   UNL     1       2.927  12.810  11.053  0.00  0.00    +0.166 C 
ATOM      5  H   UNL     1       2.144  14.593  10.488  0.00  0.00    +0.163 HD
ATOM      6  H   UNL     1       2.243  11.947  12.790  0.00  0.00    +0.159 HD
ATOM      7  H   UNL     1       1.541  13.477  12.423  0.00  0.00    +0.159 HD
ATOM      8  H   UNL     1       4.349  11.791   9.966  0.00  0.00    +0.159 HD
ATOM      9  H   UNL     1       3.831  10.996  11.400  0.00  0.00    +0.159 HD
ENDROOT
BRANCH   1  10
ATOM     10  C   UNL     1       3.624  14.076   9.045  0.00  0.00    +0.151 C 
BRANCH  10  11
ATOM     11  C   UNL     1       3.488  15.505   8.597  0.00  0.00    -0.028 A 
ATOM     12  C   UNL     1       3.499  15.827   7.232  0.00  0.00    +0.005 A 
ATOM     13  C   UNL     1       3.343  16.542   9.532  0.00  0.00    +0.005 A 
ATOM     14  C   UNL     1       3.344  17.151   6.814  0.00  0.00    +0.000 A 
ATOM     15  C   UNL     1       3.189  17.862   9.110  0.00  0.00    +0.000 A 
ATOM     16  C   UNL     1       3.187  18.166   7.751  0.00  0.00    +0.000 A 
ENDBRANCH  10  11
ENDBRANCH   1  10
TORSDOF 2
ENDMDL
MODEL 6
REMARK VINA RESULT:    -5.496      2.923      3.741
REMARK INTER + INTRA:          -6.247
REMARK INTER:                  -6.131
REMARK INTRA:                  -0.117
REMARK UNBOUND:                -0.109
REMARK  Name = 1550473
REMARK  2 active torsions:
REMARK  status: ('A' for Active; 'I' for Inactive)
REMARK    1  A    between atoms: N_1  and  C_4
REMARK    2  A    between atoms: C_4  and  C_5
REMARK                            x       y       z     vdW  Elec       q    Type
REMARK                         _______ _______ _______ _____ _____    ______ ____
ROOT
ATOM      1  N   UNL     1       2.677  14.857  11.236  0.00  0.00    -0.354 N 
ATOM      2  N   UNL     1       1.916  13.009  12.406  0.00  0.00    -0.372 N 
ATOM      3  N   UNL     1       1.990  15.041  13.469  0.00  0.00    -0.372 N 
ATOM      4  C   UNL     1       2.199  14.316  12.364  0.00  0.00    +0.166 C 
ATOM      5  H   UNL     1       2.842  14.248  10.442  0.00  0.00    +0.163 HD
ATOM      6  H   UNL     1       1.550  12.573  13.242  0.00  0.00    +0.159 HD
ATOM      7  H   UNL     1       2.038  12.411  11.597  0.00  0.00    +0.159 HD
ATOM      8  H   UNL     1       2.190  16.031  13.505  0.00  0.00    +0.159 HD
ATOM      9  H   UNL     1       1.637  14.621  14.319  0.00  0.00    +0.159 HD
ENDROOT
BRANCH   1  10
ATOM     10  C   UNL     1       2.968  16.280  11.070  0.00  0.00    +0.151 C 
BRANCH  10  11
ATOM     11  C   UNL     1       3.135  16.580   9.606  0.00  0.00    -0.028 A 
ATOM     12  C   UNL     1       2.858  17.860   9.105  0.00  0.00    +0.005 A 
ATOM     13  C   UNL     1       3.574  15.589   8.714  0.00  0.00    +0.005 A 
ATOM     14  C   UNL     1       3.042  18.148   7.751  0.00  0.00    +0.000 A 
ATOM     15  C   UNL     1       3.755  15.879   7.362  0.00  0.00    +0.000 A 
ATOM     16  C   UNL     1       3.492  17.159   6.881  0.00  0.00    +0.000 A 
ENDBRANCH  10  11
ENDBRANCH   1  10
TORSDOF 2
ENDMDL
MODEL 7
REMARK VINA RESULT:    -5.405      4.344      6.131
REMARK INTER + INTRA:          -6.147
REMARK INTER:                  -6.042
REMARK INTRA:                  -0.105
REMARK UNBOUND:                -0.109
REMARK  Name = 1550473
REMARK  2 active torsions:
REMARK  status: ('A' for Active; 'I' for Inactive)
REMARK    1  A    between atoms: N_1  and  C_4
REMARK    2  A    between atoms: C_4  and  C_5
REMARK                            x       y       z     vdW  Elec       q    Type
REMARK                         _______ _______ _______ _____ _____    ______ ____
ROOT
ATOM      1  N   UNL     1       2.958  13.061  11.054  0.00  0.00    -0.354 N 
ATOM      2  N   UNL     1       1.808  15.023  11.492  0.00  0.00    -0.372 N 
ATOM      3  N   UNL     1       0.979  13.046  12.309  0.00  0.00    -0.372 N 
ATOM      4  C   UNL     1       1.921  13.696  11.616  0.00  0.00    +0.166 C 
ATOM      5  H   UNL     1       3.622  13.607  10.516  0.00  0.00    +0.163 HD
ATOM      6  H   UNL     1       1.038  15.530  11.909  0.00  0.00    +0.159 HD
ATOM      7  H   UNL     1       2.498  15.572  10.993  0.00  0.00    +0.159 HD
ATOM      8  H   UNL     1       1.003  12.043  12.434  0.00  0.00    +0.159 HD
ATOM      9  H   UNL     1       0.195  13.533  12.723  0.00  0.00    +0.159 HD
ENDROOT
BRANCH   1  10
ATOM     10  C   UNL     1       3.202  11.625  11.175  0.00  0.00    +0.151 C 
BRANCH  10  11
ATOM     11  C   UNL     1       4.574  11.313  10.643  0.00  0.00    -0.028 A 
ATOM     12  C   UNL     1       4.972  11.785   9.383  0.00  0.00    +0.005 A 
ATOM     13  C   UNL     1       5.481  10.552  11.395  0.00  0.00    +0.005 A 
ATOM     14  C   UNL     1       6.257  11.521   8.901  0.00  0.00    +0.000 A 
ATOM     15  C   UNL     1       6.762  10.289  10.910  0.00  0.00    +0.000 A 
ATOM     16  C   UNL     1       7.150  10.776   9.664  0.00  0.00    +0.000 A 
ENDBRANCH  10  11
ENDBRANCH   1  10
TORSDOF 2
ENDMDL
MODEL 8
REMARK VINA RESULT:    -5.399      2.629      5.045
REMARK INTER + INTRA:          -6.139
REMARK INTER:                  -6.092
REMARK INTRA:                  -0.047
REMARK UNBOUND:                -0.109
REMARK  Name = 1550473
REMARK  2 active torsions:
REMARK  status: ('A' for Active; 'I' for Inactive)
REMARK    1  A    between atoms: N_1  and  C_4
REMARK    2  A    between atoms: C_4  and  C_5
REMARK                            x       y       z     vdW  Elec       q    Type
REMARK                         _______ _______ _______ _____ _____    ______ ____
ROOT
ATOM      1  N   UNL     1       2.699  14.087   8.078  0.00  0.00    -0.354 N 
ATOM      2  N   UNL     1       2.759  14.766   5.864  0.00  0.00    -0.372 N 
ATOM      3  N   UNL     1       4.271  15.661   7.341  0.00  0.00    -0.372 N 
ATOM      4  C   UNL     1       3.245  14.835   7.110  0.00  0.00    +0.166 C 
ATOM      5  H   UNL     1       1.904  13.504   7.844  0.00  0.00    +0.163 HD
ATOM      6  H   UNL     1       3.153  15.317   5.113  0.00  0.00    +0.159 HD
ATOM      7  H   UNL     1       1.994  14.148   5.624  0.00  0.00    +0.159 HD
ATOM      8  H   UNL     1       4.679  15.763   8.260  0.00  0.00    +0.159 HD
ATOM      9  H   UNL     1       4.671  16.229   6.604  0.00  0.00    +0.159 HD
ENDROOT
BRANCH   1  10
ATOM     10  C   UNL     1       3.188  14.048   9.455  0.00  0.00    +0.151 C 
BRANCH  10  11
ATOM     11  C   UNL     1       3.970  12.781   9.663  0.00  0.00    -0.028 A 
ATOM     12  C   UNL     1       3.662  11.920  10.727  0.00  0.00    +0.005 A 
ATOM     13  C   UNL     1       5.017  12.432   8.796  0.00  0.00    +0.005 A 
ATOM     14  C   UNL     1       4.369  10.728  10.903  0.00  0.00    +0.000 A 
ATOM     15  C   UNL     1       5.721  11.241   8.975  0.00  0.00    +0.000 A 
ATOM     16  C   UNL     1       5.395  10.389  10.027  0.00  0.00    +0.000 A 
ENDBRANCH  10  11
ENDBRANCH   1  10
TORSDOF 2
ENDMDL
MODEL 9
REMARK VINA RESULT:    -5.249     18.629     19.411
REMARK INTER + INTRA:          -5.972
REMARK INTER:                  -5.805
REMARK INTRA:                  -0.167
REMARK UNBOUND:                -0.109
REMARK  Name = 1550473
REMARK  2 active torsions:
REMARK  status: ('A' for Active; 'I' for Inactive)
REMARK    1  A    between atoms: N_1  and  C_4
REMARK    2  A    between atoms: C_4  and  C_5
REMARK                            x       y       z     vdW  Elec       q    Type
REMARK                         _______ _______ _______ _____ _____    ______ ____
ROOT
ATOM      1  N   UNL     1       8.739   6.300  25.571  0.00  0.00    -0.354 N 
ATOM      2  N   UNL     1       8.178   5.139  23.647  0.00  0.00    -0.372 N 
ATOM      3  N   UNL     1      10.373   5.704  24.001  0.00  0.00    -0.372 N 
ATOM      4  C   UNL     1       9.103   5.723  24.418  0.00  0.00    +0.166 C 
ATOM      5  H   UNL     1       7.756   6.306  25.816  0.00  0.00    +0.163 HD
ATOM      6  H   UNL     1       8.423   4.693  22.773  0.00  0.00    +0.159 HD
ATOM      7  H   UNL     1       7.202   5.107  23.917  0.00  0.00    +0.159 HD
ATOM      8  H   UNL     1      11.119   6.132  24.534  0.00  0.00    +0.159 HD
ATOM      9  H   UNL     1      10.637   5.273  23.124  0.00  0.00    +0.159 HD
ENDROOT
BRANCH   1  10
ATOM     10  C   UNL     1       9.676   6.915  26.509  0.00  0.00    +0.151 C 
BRANCH  10  11
ATOM     11  C   UNL     1       9.681   8.404  26.294  0.00  0.00    -0.028 A 
ATOM     12  C   UNL     1      10.886   9.121  26.301  0.00  0.00    +0.005 A 
ATOM     13  C   UNL     1       8.483   9.102  26.077  0.00  0.00    +0.005 A 
ATOM     14  C   UNL     1      10.893  10.499  26.072  0.00  0.00    +0.000 A 
ATOM     15  C   UNL     1       8.494  10.478  25.849  0.00  0.00    +0.000 A 
ATOM     16  C   UNL     1       9.700  11.175  25.844  0.00  0.00    +0.000 A 
ENDBRANCH  10  11
ENDBRANCH   1  10
TORSDOF 2
ENDMDL
