MODEL 1
REMARK VINA RESULT:    -5.046      0.000      0.000
REMARK INTER + INTRA:          -5.792
REMARK INTER:                  -5.636
REMARK INTRA:                  -0.157
REMARK UNBOUND:                -0.157
REMARK  Name = 1550473
REMARK  2 active torsions:
REMARK  status: ('A' for Active; 'I' for Inactive)
REMARK    1  A    between atoms: N_1  and  C_4
REMARK    2  A    between atoms: C_4  and  C_5
REMARK                            x       y       z     vdW  Elec       q    Type
REMARK                         _______ _______ _______ _____ _____    ______ ____
ROOT
ATOM      1  N   UNL     1       3.314  24.056  28.083  0.00  0.00    -0.354 N 
ATOM      2  N   UNL     1       4.040  23.694  25.913  0.00  0.00    -0.372 N 
ATOM      3  N   UNL     1       2.452  25.305  26.297  0.00  0.00    -0.372 N 
ATOM      4  C   UNL     1       3.262  24.356  26.778  0.00  0.00    +0.166 C 
ATOM      5  H   UNL     1       3.926  23.305  28.380  0.00  0.00    +0.163 HD
ATOM      6  H   UNL     1       4.025  23.901  24.924  0.00  0.00    +0.159 HD
ATOM      7  H   UNL     1       4.685  22.976  26.219  0.00  0.00    +0.159 HD
ATOM      8  H   UNL     1       1.835  25.837  26.896  0.00  0.00    +0.159 HD
ATOM      9  H   UNL     1       2.415  25.519  25.308  0.00  0.00    +0.159 HD
ENDROOT
BRANCH   1  10
ATOM     10  C   UNL     1       2.547  24.753  29.113  0.00  0.00    +0.151 C 
BRANCH  10  11
ATOM     11  C   UNL     1       3.485  25.581  29.948  0.00  0.00    -0.028 A 
ATOM     12  C   UNL     1       4.780  25.121  30.231  0.00  0.00    +0.005 A 
ATOM     13  C   UNL     1       3.088  26.828  30.454  0.00  0.00    +0.005 A 
ATOM     14  C   UNL     1       5.662  25.902  30.981  0.00  0.00    +0.000 A 
ATOM     15  C   UNL     1       3.971  27.604  31.203  0.00  0.00    +0.000 A 
ATOM     16  C   UNL     1       5.259  27.142  31.465  0.00  0.00    +0.000 A 
ENDBRANCH  10  11
ENDBRANCH   1  10
TORSDOF 2
ENDMDL
MODEL 2
REMARK VINA RESULT:    -4.832      2.753      5.370
REMARK INTER + INTRA:          -5.553
REMARK INTER:                  -5.434
REMARK INTRA:                  -0.119
REMARK UNBOUND:                -0.157
REMARK  Name = 1550473
REMARK  2 active torsions:
REMARK  status: ('A' for Active; 'I' for Inactive)
REMARK    1  A    between atoms: N_1  and  C_4
REMARK    2  A    between atoms: C_4  and  C_5
REMARK                            x       y       z     vdW  Elec       q    Type
REMARK                         _______ _______ _______ _____ _____    ______ ____
ROOT
ATOM      1  N   UNL     1       2.791  24.269  28.396  0.00  0.00    -0.354 N 
ATOM      2  N   UNL     1       2.527  22.940  30.275  0.00  0.00    -0.372 N 
ATOM      3  N   UNL     1       4.467  24.142  30.029  0.00  0.00    -0.372 N 
ATOM      4  C   UNL     1       3.266  23.793  29.555  0.00  0.00    +0.166 C 
ATOM      5  H   UNL     1       1.886  23.943  28.076  0.00  0.00    +0.163 HD
ATOM      6  H   UNL     1       2.858  22.567  31.154  0.00  0.00    +0.159 HD
ATOM      7  H   UNL     1       1.604  22.652  29.975  0.00  0.00    +0.159 HD
ATOM      8  H   UNL     1       5.076  24.777  29.531  0.00  0.00    +0.159 HD
ATOM      9  H   UNL     1       4.820  23.770  30.902  0.00  0.00    +0.159 HD
ENDROOT
BRANCH   1  10
ATOM     10  C   UNL     1       3.493  25.244  27.563  0.00  0.00    +0.151 C 
BRANCH  10  11
ATOM     11  C   UNL     1       3.104  25.033  26.126  0.00  0.00    -0.028 A 
ATOM     12  C   UNL     1       3.238  23.770  25.531  0.00  0.00    +0.005 A 
ATOM     13  C   UNL     1       2.596  26.091  25.356  0.00  0.00    +0.005 A 
ATOM     14  C   UNL     1       2.848  23.566  24.204  0.00  0.00    +0.000 A 
ATOM     15  C   UNL     1       2.210  25.883  24.032  0.00  0.00    +0.000 A 
ATOM     16  C   UNL     1       2.334  24.621  23.457  0.00  0.00    +0.000 A 
ENDBRANCH  10  11
ENDBRANCH   1  10
TORSDOF 2
ENDMDL
MODEL 3
REMARK VINA RESULT:    -4.752     32.109     32.802
REMARK INTER + INTRA:          -5.464
REMARK INTER:                  -5.296
REMARK INTRA:                  -0.167
REMARK UNBOUND:                -0.157
REMARK  Name = 1550473
REMARK  2 active torsions:
REMARK  status: ('A' for Active; 'I' for Inactive)
REMARK    1  A    between atoms: N_1  and  C_4
REMARK    2  A    between atoms: C_4  and  C_5
REMARK                            x       y       z     vdW  Elec       q    Type
REMARK                         _______ _______ _______ _____ _____    ______ ____
ROOT
ATOM      1  N   UNL     1       7.297   2.078   5.875  0.00  0.00    -0.354 N 
ATOM      2  N   UNL     1       7.451  -0.023   4.913  0.00  0.00    -0.372 N 
ATOM      3  N   UNL     1       9.306   0.872   5.924  0.00  0.00    -0.372 N 
ATOM      4  C   UNL     1       8.019   0.990   5.578  0.00  0.00    +0.166 C 
ATOM      5  H   UNL     1       6.335   2.118   5.558  0.00  0.00    +0.163 HD
ATOM      6  H   UNL     1       7.970  -0.859   4.678  0.00  0.00    +0.159 HD
ATOM      7  H   UNL     1       6.476   0.000   4.638  0.00  0.00    +0.159 HD
ATOM      8  H   UNL     1       9.795   1.604   6.422  0.00  0.00    +0.159 HD
ATOM      9  H   UNL     1       9.845   0.049   5.687  0.00  0.00    +0.159 HD
ENDROOT
BRANCH   1  10
ATOM     10  C   UNL     1       7.806   3.213   6.643  0.00  0.00    +0.151 C 
BRANCH  10  11
ATOM     11  C   UNL     1       8.052   4.366   5.709  0.00  0.00    -0.028 A 
ATOM     12  C   UNL     1       7.034   4.822   4.858  0.00  0.00    +0.005 A 
ATOM     13  C   UNL     1       9.298   5.011   5.675  0.00  0.00    +0.005 A 
ATOM     14  C   UNL     1       7.253   5.912   4.012  0.00  0.00    +0.000 A 
ATOM     15  C   UNL     1       9.512   6.099   4.829  0.00  0.00    +0.000 A 
ATOM     16  C   UNL     1       8.488   6.551   3.999  0.00  0.00    +0.000 A 
ENDBRANCH  10  11
ENDBRANCH   1  10
TORSDOF 2
ENDMDL
MODEL 4
REMARK VINA RESULT:    -4.647      1.149      2.233
REMARK INTER + INTRA:          -5.347
REMARK INTER:                  -5.222
REMARK INTRA:                  -0.125
REMARK UNBOUND:                -0.157
REMARK  Name = 1550473
REMARK  2 active torsions:
REMARK  status: ('A' for Active; 'I' for Inactive)
REMARK    1  A    between atoms: N_1  and  C_4
REMARK    2  A    between atoms: C_4  and  C_5
REMARK                            x       y       z     vdW  Elec       q    Type
REMARK                         _______ _______ _______ _____ _____    ______ ____
ROOT
ATOM      1  N   UNL     1       3.798  24.877  28.243  0.00  0.00    -0.354 N 
ATOM      2  N   UNL     1       3.349  23.881  26.200  0.00  0.00    -0.372 N 
ATOM      3  N   UNL     1       2.729  22.795  28.124  0.00  0.00    -0.372 N 
ATOM      4  C   UNL     1       3.294  23.855  27.537  0.00  0.00    +0.166 C 
ATOM      5  H   UNL     1       4.241  25.637  27.739  0.00  0.00    +0.163 HD
ATOM      6  H   UNL     1       2.974  23.126  25.641  0.00  0.00    +0.159 HD
ATOM      7  H   UNL     1       3.751  24.664  25.699  0.00  0.00    +0.159 HD
ATOM      8  H   UNL     1       2.661  22.712  29.130  0.00  0.00    +0.159 HD
ATOM      9  H   UNL     1       2.358  22.024  27.582  0.00  0.00    +0.159 HD
ENDROOT
BRANCH   1  10
ATOM     10  C   UNL     1       3.741  24.971  29.700  0.00  0.00    +0.151 C 
BRANCH  10  11
ATOM     11  C   UNL     1       3.542  26.409  30.092  0.00  0.00    -0.028 A 
ATOM     12  C   UNL     1       2.530  27.176  29.496  0.00  0.00    +0.005 A 
ATOM     13  C   UNL     1       4.358  27.010  31.063  0.00  0.00    +0.005 A 
ATOM     14  C   UNL     1       2.325  28.503  29.881  0.00  0.00    +0.000 A 
ATOM     15  C   UNL     1       4.151  28.335  31.444  0.00  0.00    +0.000 A 
ATOM     16  C   UNL     1       3.133  29.081  30.854  0.00  0.00    +0.000 A 
ENDBRANCH  10  11
ENDBRANCH   1  10
TORSDOF 2
ENDMDL
MODEL 5
REMARK VINA RESULT:    -4.598      2.856      5.955
REMARK INTER + INTRA:          -5.292
REMARK INTER:                  -5.168
REMARK INTRA:                  -0.125
REMARK UNBOUND:                -0.157
REMARK  Name = 1550473
REMARK  2 active torsions:
REMARK  status: ('A' for Active; 'I' for Inactive)
REMARK    1  A    between atoms: N_1  and  C_4
REMARK    2  A    between atoms: C_4  and  C_5
REMARK                            x       y       z     vdW  Elec       q    Type
REMARK                         _______ _______ _______ _____ _____    ______ ____
ROOT
ATOM      1  N   UNL     1       3.265  23.332  28.295  0.00  0.00    -0.354 N 
ATOM      2  N   UNL     1       4.434  24.329  30.028  0.00  0.00    -0.372 N 
ATOM      3  N   UNL     1       2.457  23.261  30.494  0.00  0.00    -0.372 N 
ATOM      4  C   UNL     1       3.376  23.633  29.596  0.00  0.00    +0.166 C 
ATOM      5  H   UNL     1       3.980  23.669  27.660  0.00  0.00    +0.163 HD
ATOM      6  H   UNL     1       4.546  24.568  31.004  0.00  0.00    +0.159 HD
ATOM      7  H   UNL     1       5.170  24.625  29.399  0.00  0.00    +0.159 HD
ATOM      8  H   UNL     1       1.632  22.739  30.231  0.00  0.00    +0.159 HD
ATOM      9  H   UNL     1       2.546  23.501  31.473  0.00  0.00    +0.159 HD
ENDROOT
BRANCH   1  10
ATOM     10  C   UNL     1       2.179  22.533  27.730  0.00  0.00    +0.151 C 
BRANCH  10  11
ATOM     11  C   UNL     1       2.071  22.822  26.258  0.00  0.00    -0.028 A 
ATOM     12  C   UNL     1       0.949  22.399  25.530  0.00  0.00    +0.005 A 
ATOM     13  C   UNL     1       3.084  23.523  25.587  0.00  0.00    +0.005 A 
ATOM     14  C   UNL     1       0.834  22.694  24.170  0.00  0.00    +0.000 A 
ATOM     15  C   UNL     1       2.966  23.815  24.228  0.00  0.00    +0.000 A 
ATOM     16  C   UNL     1       1.839  23.402  23.520  0.00  0.00    +0.000 A 
ENDBRANCH  10  11
ENDBRANCH   1  10
TORSDOF 2
ENDMDL
MODEL 6
REMARK VINA RESULT:    -4.513     31.636     32.414
REMARK INTER + INTRA:          -5.197
REMARK INTER:                  -5.067
REMARK INTRA:                  -0.130
REMARK UNBOUND:                -0.157
REMARK  Name = 1550473
REMARK  2 active torsions:
REMARK  status: ('A' for Active; 'I' for Inactive)
REMARK    1  A    between atoms: N_1  and  C_4
REMARK    2  A    between atoms: C_4  and  C_5
REMARK                            x       y       z     vdW  Elec       q    Type
REMARK                         _______ _______ _______ _____ _____    ______ ____
ROOT
ATOM      1  N   UNL     1       7.503   3.757   5.384  0.00  0.00    -0.354 N 
ATOM      2  N   UNL     1       8.162   1.567   5.751  0.00  0.00    -0.372 N 
ATOM      3  N   UNL     1       7.358   2.152   3.683  0.00  0.00    -0.372 N 
ATOM      4  C   UNL     1       7.669   2.506   4.935  0.00  0.00    +0.166 C 
ATOM      5  H   UNL     1       7.729   3.954   6.352  0.00  0.00    +0.163 HD
ATOM      6  H   UNL     1       8.302   0.616   5.439  0.00  0.00    +0.159 HD
ATOM      7  H   UNL     1       8.430   1.778   6.705  0.00  0.00    +0.159 HD
ATOM      8  H   UNL     1       6.977   2.812   3.019  0.00  0.00    +0.159 HD
ATOM      9  H   UNL     1       7.480   1.202   3.355  0.00  0.00    +0.159 HD
ENDROOT
BRANCH   1  10
ATOM     10  C   UNL     1       7.023   4.865   4.560  0.00  0.00    +0.151 C 
BRANCH  10  11
ATOM     11  C   UNL     1       8.124   5.879   4.413  0.00  0.00    -0.028 A 
ATOM     12  C   UNL     1       7.942   7.016   3.612  0.00  0.00    +0.005 A 
ATOM     13  C   UNL     1       9.350   5.712   5.076  0.00  0.00    +0.005 A 
ATOM     14  C   UNL     1       8.953   7.974   3.499  0.00  0.00    +0.000 A 
ATOM     15  C   UNL     1      10.357   6.669   4.959  0.00  0.00    +0.000 A 
ATOM     16  C   UNL     1      10.157   7.801   4.173  0.00  0.00    +0.000 A 
ENDBRANCH  10  11
ENDBRANCH   1  10
TORSDOF 2
ENDMDL
MODEL 7
REMARK VINA RESULT:    -4.456      4.665      6.302
REMARK INTER + INTRA:          -5.134
REMARK INTER:                  -5.000
REMARK INTRA:                  -0.134
REMARK UNBOUND:                -0.157
REMARK  Name = 1550473
REMARK  2 active torsions:
REMARK  status: ('A' for Active; 'I' for Inactive)
REMARK    1  A    between atoms: N_1  and  C_4
REMARK    2  A    between atoms: C_4  and  C_5
REMARK                            x       y       z     vdW  Elec       q    Type
REMARK                         _______ _______ _______ _____ _____    ______ ____
ROOT
ATOM      1  N   UNL     1       5.419  28.828  33.375  0.00  0.00    -0.354 N 
ATOM      2  N   UNL     1       5.010  30.955  34.193  0.00  0.00    -0.372 N 
ATOM      3  N   UNL     1       6.934  30.576  33.001  0.00  0.00    -0.372 N 
ATOM      4  C   UNL     1       5.793  30.106  33.517  0.00  0.00    +0.166 C 
ATOM      5  H   UNL     1       4.557  28.526  33.816  0.00  0.00    +0.163 HD
ATOM      6  H   UNL     1       5.264  31.927  34.313  0.00  0.00    +0.159 HD
ATOM      7  H   UNL     1       4.127  30.663  34.593  0.00  0.00    +0.159 HD
ATOM      8  H   UNL     1       7.572  29.985  32.485  0.00  0.00    +0.159 HD
ATOM      9  H   UNL     1       7.211  31.542  33.121  0.00  0.00    +0.159 HD
ENDROOT
BRANCH   1  10
ATOM     10  C   UNL     1       6.173  27.835  32.612  0.00  0.00    +0.151 C 
BRANCH  10  11
ATOM     11  C   UNL     1       5.257  27.183  31.614  0.00  0.00    -0.028 A 
ATOM     12  C   UNL     1       4.040  27.786  31.264  0.00  0.00    +0.005 A 
ATOM     13  C   UNL     1       5.603  25.965  31.009  0.00  0.00    +0.005 A 
ATOM     14  C   UNL     1       3.202  27.196  30.315  0.00  0.00    +0.000 A 
ATOM     15  C   UNL     1       4.763  25.378  30.062  0.00  0.00    +0.000 A 
ATOM     16  C   UNL     1       3.565  25.995  29.713  0.00  0.00    +0.000 A 
ENDBRANCH  10  11
ENDBRANCH   1  10
TORSDOF 2
ENDMDL
MODEL 8
REMARK VINA RESULT:    -4.416     61.687     62.452
REMARK INTER + INTRA:          -5.089
REMARK INTER:                  -4.991
REMARK INTRA:                  -0.098
REMARK UNBOUND:                -0.157
REMARK  Name = 1550473
REMARK  2 active torsions:
REMARK  status: ('A' for Active; 'I' for Inactive)
REMARK    1  A    between atoms: N_1  and  C_4
REMARK    2  A    between atoms: C_4  and  C_5
REMARK                            x       y       z     vdW  Elec       q    Type
REMARK                         _______ _______ _______ _____ _____    ______ ____
ROOT
ATOM      1  N   UNL     1      -3.135 -11.362 -20.235  0.00  0.00    -0.354 N 
ATOM      2  N   UNL     1      -1.881  -9.417 -20.320  0.00  0.00    -0.372 N 
ATOM      3  N   UNL     1      -2.597 -10.361 -22.285  0.00  0.00    -0.372 N 
ATOM      4  C   UNL     1      -2.546 -10.393 -20.949  0.00  0.00    +0.166 C 
ATOM      5  H   UNL     1      -3.034 -11.346 -19.227  0.00  0.00    +0.163 HD
ATOM      6  H   UNL     1      -1.430  -8.670 -20.831  0.00  0.00    +0.159 HD
ATOM      7  H   UNL     1      -1.821  -9.378 -19.309  0.00  0.00    +0.159 HD
ATOM      8  H   UNL     1      -3.077 -11.072 -22.820  0.00  0.00    +0.159 HD
ATOM      9  H   UNL     1      -2.141  -9.628 -22.815  0.00  0.00    +0.159 HD
ENDROOT
BRANCH   1  10
ATOM     10  C   UNL     1      -3.928 -12.441 -20.821  0.00  0.00    +0.151 C 
BRANCH  10  11
ATOM     11  C   UNL     1      -4.846 -13.002 -19.770  0.00  0.00    -0.028 A 
ATOM     12  C   UNL     1      -6.238 -12.909 -19.917  0.00  0.00    +0.005 A 
ATOM     13  C   UNL     1      -4.330 -13.633 -18.627  0.00  0.00    +0.005 A 
ATOM     14  C   UNL     1      -7.091 -13.456 -18.956  0.00  0.00    +0.000 A 
ATOM     15  C   UNL     1      -5.186 -14.177 -17.669  0.00  0.00    +0.000 A 
ATOM     16  C   UNL     1      -6.566 -14.090 -17.835  0.00  0.00    +0.000 A 
ENDBRANCH  10  11
ENDBRANCH   1  10
TORSDOF 2
ENDMDL
MODEL 9
REMARK VINA RESULT:    -4.288      2.287      5.083
REMARK INTER + INTRA:          -4.946
REMARK INTER:                  -4.767
REMARK INTRA:                  -0.179
REMARK UNBOUND:                -0.157
REMARK  Name = 1550473
REMARK  2 active torsions:
REMARK  status: ('A' for Active; 'I' for Inactive)
REMARK    1  A    between atoms: N_1  and  C_4
REMARK    2  A    between atoms: C_4  and  C_5
REMARK                            x       y       z     vdW  Elec       q    Type
REMARK                         _______ _______ _______ _____ _____    ______ ____
ROOT
ATOM      1  N   UNL     1       3.447  25.739  29.074  0.00  0.00    -0.354 N 
ATOM      2  N   UNL     1       5.494  25.569  30.145  0.00  0.00    -0.372 N 
ATOM      3  N   UNL     1       4.189  23.693  29.942  0.00  0.00    -0.372 N 
ATOM      4  C   UNL     1       4.362  24.999  29.714  0.00  0.00    +0.166 C 
ATOM      5  H   UNL     1       3.625  26.730  28.959  0.00  0.00    +0.163 HD
ATOM      6  H   UNL     1       6.204  25.035  30.627  0.00  0.00    +0.159 HD
ATOM      7  H   UNL     1       5.689  26.550  29.988  0.00  0.00    +0.159 HD
ATOM      8  H   UNL     1       3.354  23.204  29.648  0.00  0.00    +0.159 HD
ATOM      9  H   UNL     1       4.883  23.144  30.434  0.00  0.00    +0.159 HD
ENDROOT
BRANCH   1  10
ATOM     10  C   UNL     1       2.206  25.203  28.518  0.00  0.00    +0.151 C 
BRANCH  10  11
ATOM     11  C   UNL     1       2.387  24.976  27.042  0.00  0.00    -0.028 A 
ATOM     12  C   UNL     1       2.196  26.025  26.131  0.00  0.00    +0.005 A 
ATOM     13  C   UNL     1       2.755  23.715  26.549  0.00  0.00    +0.005 A 
ATOM     14  C   UNL     1       2.394  25.822  24.763  0.00  0.00    +0.000 A 
ATOM     15  C   UNL     1       2.950  23.516  25.182  0.00  0.00    +0.000 A 
ATOM     16  C   UNL     1       2.772  24.570  24.290  0.00  0.00    +0.000 A 
ENDBRANCH  10  11
ENDBRANCH   1  10
TORSDOF 2
ENDMDL
