MODEL 1
REMARK VINA RESULT:    -6.537      0.000      0.000
REMARK INTER + INTRA:          -7.406
REMARK INTER:                  -7.302
REMARK INTRA:                  -0.104
REMARK UNBOUND:                -0.104
REMARK  Name = 1550473
REMARK  2 active torsions:
REMARK  status: ('A' for Active; 'I' for Inactive)
REMARK    1  A    between atoms: N_1  and  C_4
REMARK    2  A    between atoms: C_4  and  C_5
REMARK                            x       y       z     vdW  Elec       q    Type
REMARK                         _______ _______ _______ _____ _____    ______ ____
ROOT
ATOM      1  N   UNL     1      -1.253 -10.581  -9.455  0.00  0.00    -0.354 N 
ATOM      2  N   UNL     1       0.914 -10.405  -8.657  0.00  0.00    -0.372 N 
ATOM      3  N   UNL     1      -0.755  -9.238  -7.600  0.00  0.00    -0.372 N 
ATOM      4  C   UNL     1      -0.380 -10.074  -8.574  0.00  0.00    +0.166 C 
ATOM      5  H   UNL     1      -0.900 -11.185 -10.189  0.00  0.00    +0.163 HD
ATOM      6  H   UNL     1       1.596 -10.041  -8.005  0.00  0.00    +0.159 HD
ATOM      7  H   UNL     1       1.256 -11.046  -9.363  0.00  0.00    +0.159 HD
ATOM      8  H   UNL     1      -1.716  -8.944  -7.487  0.00  0.00    +0.159 HD
ATOM      9  H   UNL     1      -0.086  -8.854  -6.945  0.00  0.00    +0.159 HD
ENDROOT
BRANCH   1  10
ATOM     10  C   UNL     1      -2.692 -10.326  -9.420  0.00  0.00    +0.151 C 
BRANCH  10  11
ATOM     11  C   UNL     1      -3.373 -11.212 -10.426  0.00  0.00    -0.028 A 
ATOM     12  C   UNL     1      -3.205 -12.603 -10.378  0.00  0.00    +0.005 A 
ATOM     13  C   UNL     1      -4.191 -10.666 -11.427  0.00  0.00    +0.005 A 
ATOM     14  C   UNL     1      -3.862 -13.429 -11.294  0.00  0.00    +0.000 A 
ATOM     15  C   UNL     1      -4.844 -11.494 -12.340  0.00  0.00    +0.000 A 
ATOM     16  C   UNL     1      -4.681 -12.875 -12.272  0.00  0.00    +0.000 A 
ENDBRANCH  10  11
ENDBRANCH   1  10
TORSDOF 2
ENDMDL
MODEL 2
REMARK VINA RESULT:    -6.521      1.500      2.621
REMARK INTER + INTRA:          -7.388
REMARK INTER:                  -7.290
REMARK INTRA:                  -0.099
REMARK UNBOUND:                -0.104
REMARK  Name = 1550473
REMARK  2 active torsions:
REMARK  status: ('A' for Active; 'I' for Inactive)
REMARK    1  A    between atoms: N_1  and  C_4
REMARK    2  A    between atoms: C_4  and  C_5
REMARK                            x       y       z     vdW  Elec       q    Type
REMARK                         _______ _______ _______ _____ _____    ______ ____
ROOT
ATOM      1  N   UNL     1      -2.757 -10.754 -11.236  0.00  0.00    -0.354 N 
ATOM      2  N   UNL     1      -0.791 -10.730 -10.012  0.00  0.00    -0.372 N 
ATOM      3  N   UNL     1      -2.786 -10.469  -8.910  0.00  0.00    -0.372 N 
ATOM      4  C   UNL     1      -2.126 -10.651 -10.059  0.00  0.00    +0.166 C 
ATOM      5  H   UNL     1      -2.198 -10.860 -12.074  0.00  0.00    +0.163 HD
ATOM      6  H   UNL     1      -0.287 -10.660  -9.139  0.00  0.00    +0.159 HD
ATOM      7  H   UNL     1      -0.237 -10.883 -10.847  0.00  0.00    +0.159 HD
ATOM      8  H   UNL     1      -3.794 -10.395  -8.877  0.00  0.00    +0.159 HD
ATOM      9  H   UNL     1      -2.299 -10.384  -8.026  0.00  0.00    +0.159 HD
ENDROOT
BRANCH   1  10
ATOM     10  C   UNL     1      -4.211 -10.734 -11.388  0.00  0.00    +0.151 C 
BRANCH  10  11
ATOM     11  C   UNL     1      -4.672 -12.082 -11.871  0.00  0.00    -0.028 A 
ATOM     12  C   UNL     1      -5.749 -12.188 -12.764  0.00  0.00    +0.005 A 
ATOM     13  C   UNL     1      -4.033 -13.256 -11.444  0.00  0.00    +0.005 A 
ATOM     14  C   UNL     1      -6.158 -13.437 -13.236  0.00  0.00    +0.000 A 
ATOM     15  C   UNL     1      -4.446 -14.501 -11.917  0.00  0.00    +0.000 A 
ATOM     16  C   UNL     1      -5.507 -14.591 -12.815  0.00  0.00    +0.000 A 
ENDBRANCH  10  11
ENDBRANCH   1  10
TORSDOF 2
ENDMDL
MODEL 3
REMARK VINA RESULT:    -6.039      5.781      7.550
REMARK INTER + INTRA:          -6.850
REMARK INTER:                  -6.742
REMARK INTRA:                  -0.108
REMARK UNBOUND:                -0.104
REMARK  Name = 1550473
REMARK  2 active torsions:
REMARK  status: ('A' for Active; 'I' for Inactive)
REMARK    1  A    between atoms: N_1  and  C_4
REMARK    2  A    between atoms: C_4  and  C_5
REMARK                            x       y       z     vdW  Elec       q    Type
REMARK                         _______ _______ _______ _____ _____    ______ ____
ROOT
ATOM      1  N   UNL     1      -4.878 -15.418 -15.798  0.00  0.00    -0.354 N 
ATOM      2  N   UNL     1      -3.891 -16.151 -17.761  0.00  0.00    -0.372 N 
ATOM      3  N   UNL     1      -4.423 -17.691 -16.146  0.00  0.00    -0.372 N 
ATOM      4  C   UNL     1      -4.404 -16.418 -16.554  0.00  0.00    +0.166 C 
ATOM      5  H   UNL     1      -4.807 -14.471 -16.153  0.00  0.00    +0.163 HD
ATOM      6  H   UNL     1      -3.529 -16.885 -18.356  0.00  0.00    +0.159 HD
ATOM      7  H   UNL     1      -3.863 -15.209 -18.132  0.00  0.00    +0.159 HD
ATOM      8  H   UNL     1      -4.791 -17.958 -15.242  0.00  0.00    +0.159 HD
ATOM      9  H   UNL     1      -4.055 -18.438 -16.721  0.00  0.00    +0.159 HD
ENDROOT
BRANCH   1  10
ATOM     10  C   UNL     1      -5.506 -15.608 -14.492  0.00  0.00    +0.151 C 
BRANCH  10  11
ATOM     11  C   UNL     1      -5.127 -14.462 -13.594  0.00  0.00    -0.028 A 
ATOM     12  C   UNL     1      -5.400 -13.140 -13.974  0.00  0.00    +0.005 A 
ATOM     13  C   UNL     1      -4.501 -14.693 -12.360  0.00  0.00    +0.005 A 
ATOM     14  C   UNL     1      -5.076 -12.077 -13.127  0.00  0.00    +0.000 A 
ATOM     15  C   UNL     1      -4.178 -13.629 -11.518  0.00  0.00    +0.000 A 
ATOM     16  C   UNL     1      -4.468 -12.322 -11.900  0.00  0.00    +0.000 A 
ENDBRANCH  10  11
ENDBRANCH   1  10
TORSDOF 2
ENDMDL
MODEL 4
REMARK VINA RESULT:    -5.946      1.358      2.200
REMARK INTER + INTRA:          -6.745
REMARK INTER:                  -6.631
REMARK INTRA:                  -0.114
REMARK UNBOUND:                -0.104
REMARK  Name = 1550473
REMARK  2 active torsions:
REMARK  status: ('A' for Active; 'I' for Inactive)
REMARK    1  A    between atoms: N_1  and  C_4
REMARK    2  A    between atoms: C_4  and  C_5
REMARK                            x       y       z     vdW  Elec       q    Type
REMARK                         _______ _______ _______ _____ _____    ______ ____
ROOT
ATOM      1  N   UNL     1      -2.448 -11.015  -8.869  0.00  0.00    -0.354 N 
ATOM      2  N   UNL     1      -1.865  -9.985  -6.879  0.00  0.00    -0.372 N 
ATOM      3  N   UNL     1      -0.806 -11.932  -7.471  0.00  0.00    -0.372 N 
ATOM      4  C   UNL     1      -1.708 -10.987  -7.753  0.00  0.00    +0.166 C 
ATOM      5  H   UNL     1      -3.136 -10.285  -9.010  0.00  0.00    +0.163 HD
ATOM      6  H   UNL     1      -1.319  -9.934  -6.029  0.00  0.00    +0.159 HD
ATOM      7  H   UNL     1      -2.521  -9.231  -7.044  0.00  0.00    +0.159 HD
ATOM      8  H   UNL     1      -0.644 -12.718  -8.086  0.00  0.00    +0.159 HD
ATOM      9  H   UNL     1      -0.258 -11.905  -6.620  0.00  0.00    +0.159 HD
ENDROOT
BRANCH   1  10
ATOM     10  C   UNL     1      -2.317 -12.033  -9.910  0.00  0.00    +0.151 C 
BRANCH  10  11
ATOM     11  C   UNL     1      -3.500 -11.946 -10.834  0.00  0.00    -0.028 A 
ATOM     12  C   UNL     1      -4.099 -10.708 -11.109  0.00  0.00    +0.005 A 
ATOM     13  C   UNL     1      -4.023 -13.097 -11.443  0.00  0.00    +0.005 A 
ATOM     14  C   UNL     1      -5.180 -10.622 -11.990  0.00  0.00    +0.000 A 
ATOM     15  C   UNL     1      -5.103 -13.007 -12.322  0.00  0.00    +0.000 A 
ATOM     16  C   UNL     1      -5.679 -11.770 -12.597  0.00  0.00    +0.000 A 
ENDBRANCH  10  11
ENDBRANCH   1  10
TORSDOF 2
ENDMDL
MODEL 5
REMARK VINA RESULT:    -5.756      5.747      7.276
REMARK INTER + INTRA:          -6.534
REMARK INTER:                  -6.391
REMARK INTRA:                  -0.143
REMARK UNBOUND:                -0.104
REMARK  Name = 1550473
REMARK  2 active torsions:
REMARK  status: ('A' for Active; 'I' for Inactive)
REMARK    1  A    between atoms: N_1  and  C_4
REMARK    2  A    between atoms: C_4  and  C_5
REMARK                            x       y       z     vdW  Elec       q    Type
REMARK                         _______ _______ _______ _____ _____    ______ ____
ROOT
ATOM      1  N   UNL     1      -7.634 -11.103 -13.290  0.00  0.00    -0.354 N 
ATOM      2  N   UNL     1      -5.508 -11.986 -13.545  0.00  0.00    -0.372 N 
ATOM      3  N   UNL     1      -6.177 -10.287 -14.934  0.00  0.00    -0.372 N 
ATOM      4  C   UNL     1      -6.453 -11.118 -13.923  0.00  0.00    +0.166 C 
ATOM      5  H   UNL     1      -7.792 -11.779 -12.551  0.00  0.00    +0.163 HD
ATOM      6  H   UNL     1      -4.606 -12.018 -14.001  0.00  0.00    +0.159 HD
ATOM      7  H   UNL     1      -5.652 -12.629 -12.776  0.00  0.00    +0.159 HD
ATOM      8  H   UNL     1      -6.850  -9.612 -15.272  0.00  0.00    +0.159 HD
ATOM      9  H   UNL     1      -5.284 -10.312 -15.412  0.00  0.00    +0.159 HD
ENDROOT
BRANCH   1  10
ATOM     10  C   UNL     1      -8.711 -10.161 -13.590  0.00  0.00    +0.151 C 
BRANCH  10  11
ATOM     11  C   UNL     1      -8.881  -9.224 -12.426  0.00  0.00    -0.028 A 
ATOM     12  C   UNL     1      -8.291  -9.512 -11.187  0.00  0.00    +0.005 A 
ATOM     13  C   UNL     1      -9.627  -8.042 -12.559  0.00  0.00    +0.005 A 
ATOM     14  C   UNL     1      -8.424  -8.627 -10.115  0.00  0.00    +0.000 A 
ATOM     15  C   UNL     1      -9.758  -7.161 -11.485  0.00  0.00    +0.000 A 
ATOM     16  C   UNL     1      -9.154  -7.453 -10.264  0.00  0.00    +0.000 A 
ENDBRANCH  10  11
ENDBRANCH   1  10
TORSDOF 2
ENDMDL
MODEL 6
REMARK VINA RESULT:    -5.671      8.970     10.193
REMARK INTER + INTRA:          -6.439
REMARK INTER:                  -6.322
REMARK INTRA:                  -0.116
REMARK UNBOUND:                -0.104
REMARK  Name = 1550473
REMARK  2 active torsions:
REMARK  status: ('A' for Active; 'I' for Inactive)
REMARK    1  A    between atoms: N_1  and  C_4
REMARK    2  A    between atoms: C_4  and  C_5
REMARK                            x       y       z     vdW  Elec       q    Type
REMARK                         _______ _______ _______ _____ _____    ______ ____
ROOT
ATOM      1  N   UNL     1     -10.045  -4.315 -13.218  0.00  0.00    -0.354 N 
ATOM      2  N   UNL     1      -9.634  -2.125 -13.847  0.00  0.00    -0.372 N 
ATOM      3  N   UNL     1     -11.804  -2.861 -13.748  0.00  0.00    -0.372 N 
ATOM      4  C   UNL     1     -10.500  -3.115 -13.601  0.00  0.00    +0.166 C 
ATOM      5  H   UNL     1      -9.043  -4.452 -13.154  0.00  0.00    +0.163 HD
ATOM      6  H   UNL     1      -9.947  -1.207 -14.134  0.00  0.00    +0.159 HD
ATOM      7  H   UNL     1      -8.635  -2.251 -13.737  0.00  0.00    +0.159 HD
ATOM      8  H   UNL     1     -12.509  -3.568 -13.584  0.00  0.00    +0.159 HD
ATOM      9  H   UNL     1     -12.137  -1.953 -14.046  0.00  0.00    +0.159 HD
ENDROOT
BRANCH   1  10
ATOM     10  C   UNL     1     -10.907  -5.445 -12.874  0.00  0.00    +0.151 C 
BRANCH  10  11
ATOM     11  C   UNL     1     -10.098  -6.472 -12.131  0.00  0.00    -0.028 A 
ATOM     12  C   UNL     1      -9.151  -6.076 -11.175  0.00  0.00    +0.005 A 
ATOM     13  C   UNL     1     -10.278  -7.842 -12.374  0.00  0.00    +0.005 A 
ATOM     14  C   UNL     1      -8.421  -7.031 -10.462  0.00  0.00    +0.000 A 
ATOM     15  C   UNL     1      -9.546  -8.792 -11.661  0.00  0.00    +0.000 A 
ATOM     16  C   UNL     1      -8.619  -8.386 -10.704  0.00  0.00    +0.000 A 
ENDBRANCH  10  11
ENDBRANCH   1  10
TORSDOF 2
ENDMDL
MODEL 7
REMARK VINA RESULT:    -5.662      4.102      5.137
REMARK INTER + INTRA:          -6.429
REMARK INTER:                  -6.259
REMARK INTRA:                  -0.170
REMARK UNBOUND:                -0.104
REMARK  Name = 1550473
REMARK  2 active torsions:
REMARK  status: ('A' for Active; 'I' for Inactive)
REMARK    1  A    between atoms: N_1  and  C_4
REMARK    2  A    between atoms: C_4  and  C_5
REMARK                            x       y       z     vdW  Elec       q    Type
REMARK                         _______ _______ _______ _____ _____    ______ ____
ROOT
ATOM      1  N   UNL     1      -2.314 -12.483  -4.688  0.00  0.00    -0.354 N 
ATOM      2  N   UNL     1      -4.135 -13.061  -3.378  0.00  0.00    -0.372 N 
ATOM      3  N   UNL     1      -3.283 -14.612  -4.840  0.00  0.00    -0.372 N 
ATOM      4  C   UNL     1      -3.232 -13.384  -4.312  0.00  0.00    +0.166 C 
ATOM      5  H   UNL     1      -2.348 -11.560  -4.272  0.00  0.00    +0.163 HD
ATOM      6  H   UNL     1      -4.837 -13.721  -3.072  0.00  0.00    +0.159 HD
ATOM      7  H   UNL     1      -4.137 -12.153  -2.931  0.00  0.00    +0.159 HD
ATOM      8  H   UNL     1      -2.634 -14.916  -5.553  0.00  0.00    +0.159 HD
ATOM      9  H   UNL     1      -3.986 -15.282  -4.554  0.00  0.00    +0.159 HD
ENDROOT
BRANCH   1  10
ATOM     10  C   UNL     1      -1.254 -12.752  -5.658  0.00  0.00    +0.151 C 
BRANCH  10  11
ATOM     11  C   UNL     1      -1.603 -12.091  -6.963  0.00  0.00    -0.028 A 
ATOM     12  C   UNL     1      -1.591 -12.826  -8.158  0.00  0.00    +0.005 A 
ATOM     13  C   UNL     1      -1.951 -10.733  -7.011  0.00  0.00    +0.005 A 
ATOM     14  C   UNL     1      -1.944 -12.220  -9.366  0.00  0.00    +0.000 A 
ATOM     15  C   UNL     1      -2.302 -10.131  -8.219  0.00  0.00    +0.000 A 
ATOM     16  C   UNL     1      -2.301 -10.876  -9.396  0.00  0.00    +0.000 A 
ENDBRANCH  10  11
ENDBRANCH   1  10
TORSDOF 2
ENDMDL
MODEL 8
REMARK VINA RESULT:    -5.659      2.912      4.039
REMARK INTER + INTRA:          -6.425
REMARK INTER:                  -6.287
REMARK INTRA:                  -0.138
REMARK UNBOUND:                -0.104
REMARK  Name = 1550473
REMARK  2 active torsions:
REMARK  status: ('A' for Active; 'I' for Inactive)
REMARK    1  A    between atoms: N_1  and  C_4
REMARK    2  A    between atoms: C_4  and  C_5
REMARK                            x       y       z     vdW  Elec       q    Type
REMARK                         _______ _______ _______ _____ _____    ______ ____
ROOT
ATOM      1  N   UNL     1      -0.274 -11.202  -9.260  0.00  0.00    -0.354 N 
ATOM      2  N   UNL     1       1.122  -9.480  -8.591  0.00  0.00    -0.372 N 
ATOM      3  N   UNL     1      -1.136  -9.277  -8.240  0.00  0.00    -0.372 N 
ATOM      4  C   UNL     1      -0.108  -9.997  -8.701  0.00  0.00    +0.166 C 
ATOM      5  H   UNL     1       0.543 -11.684  -9.617  0.00  0.00    +0.163 HD
ATOM      6  H   UNL     1       1.279  -8.574  -8.170  0.00  0.00    +0.159 HD
ATOM      7  H   UNL     1       1.942  -9.984  -8.907  0.00  0.00    +0.159 HD
ATOM      8  H   UNL     1      -2.090  -9.608  -8.298  0.00  0.00    +0.159 HD
ATOM      9  H   UNL     1      -1.001  -8.363  -7.826  0.00  0.00    +0.159 HD
ENDROOT
BRANCH   1  10
ATOM     10  C   UNL     1      -1.565 -11.878  -9.379  0.00  0.00    +0.151 C 
BRANCH  10  11
ATOM     11  C   UNL     1      -1.610 -13.027  -8.411  0.00  0.00    -0.028 A 
ATOM     12  C   UNL     1      -1.644 -12.793  -7.028  0.00  0.00    +0.005 A 
ATOM     13  C   UNL     1      -1.623 -14.353  -8.869  0.00  0.00    +0.005 A 
ATOM     14  C   UNL     1      -1.715 -13.859  -6.129  0.00  0.00    +0.000 A 
ATOM     15  C   UNL     1      -1.693 -15.416  -7.968  0.00  0.00    +0.000 A 
ATOM     16  C   UNL     1      -1.742 -15.168  -6.598  0.00  0.00    +0.000 A 
ENDBRANCH  10  11
ENDBRANCH   1  10
TORSDOF 2
ENDMDL
MODEL 9
REMARK VINA RESULT:    -5.499      4.548      5.923
REMARK INTER + INTRA:          -6.246
REMARK INTER:                  -6.102
REMARK INTRA:                  -0.145
REMARK UNBOUND:                -0.104
REMARK  Name = 1550473
REMARK  2 active torsions:
REMARK  status: ('A' for Active; 'I' for Inactive)
REMARK    1  A    between atoms: N_1  and  C_4
REMARK    2  A    between atoms: C_4  and  C_5
REMARK                            x       y       z     vdW  Elec       q    Type
REMARK                         _______ _______ _______ _____ _____    ______ ____
ROOT
ATOM      1  N   UNL     1      -1.148 -13.392  -5.295  0.00  0.00    -0.354 N 
ATOM      2  N   UNL     1      -2.902 -14.904  -5.259  0.00  0.00    -0.372 N 
ATOM      3  N   UNL     1      -2.964 -13.099  -3.844  0.00  0.00    -0.372 N 
ATOM      4  C   UNL     1      -2.328 -13.787  -4.797  0.00  0.00    +0.166 C 
ATOM      5  H   UNL     1      -0.702 -13.974  -5.995  0.00  0.00    +0.163 HD
ATOM      6  H   UNL     1      -3.794 -15.225  -4.905  0.00  0.00    +0.159 HD
ATOM      7  H   UNL     1      -2.476 -15.459  -5.992  0.00  0.00    +0.159 HD
ATOM      8  H   UNL     1      -2.581 -12.251  -3.449  0.00  0.00    +0.159 HD
ATOM      9  H   UNL     1      -3.852 -13.410  -3.469  0.00  0.00    +0.159 HD
ENDROOT
BRANCH   1  10
ATOM     10  C   UNL     1      -0.463 -12.163  -4.899  0.00  0.00    +0.151 C 
BRANCH  10  11
ATOM     11  C   UNL     1      -0.368 -11.249  -6.089  0.00  0.00    -0.028 A 
ATOM     12  C   UNL     1       0.882 -10.827  -6.565  0.00  0.00    +0.005 A 
ATOM     13  C   UNL     1      -1.524 -10.805  -6.749  0.00  0.00    +0.005 A 
ATOM     14  C   UNL     1       0.972 -10.002  -7.688  0.00  0.00    +0.000 A 
ATOM     15  C   UNL     1      -1.430  -9.981  -7.871  0.00  0.00    +0.000 A 
ATOM     16  C   UNL     1      -0.182  -9.581  -8.341  0.00  0.00    +0.000 A 
ENDBRANCH  10  11
ENDBRANCH   1  10
TORSDOF 2
ENDMDL
