MODEL 1
REMARK VINA RESULT:    -5.503      0.000      0.000
REMARK INTER + INTRA:          -6.286
REMARK INTER:                  -6.146
REMARK INTRA:                  -0.140
REMARK UNBOUND:                -0.140
REMARK  Name = 1550473
REMARK  2 active torsions:
REMARK  status: ('A' for Active; 'I' for Inactive)
REMARK    1  A    between atoms: N_1  and  C_4
REMARK    2  A    between atoms: C_4  and  C_5
REMARK                            x       y       z     vdW  Elec       q    Type
REMARK                         _______ _______ _______ _____ _____    ______ ____
ROOT
ATOM      1  N   UNL     1       2.332  -4.623  -7.367  0.00  0.00    -0.354 N 
ATOM      2  N   UNL     1       1.131  -5.127  -5.452  0.00  0.00    -0.372 N 
ATOM      3  N   UNL     1       3.423  -5.098  -5.348  0.00  0.00    -0.372 N 
ATOM      4  C   UNL     1       2.306  -4.946  -6.068  0.00  0.00    +0.166 C 
ATOM      5  H   UNL     1       1.451  -4.553  -7.864  0.00  0.00    +0.163 HD
ATOM      6  H   UNL     1       1.080  -5.368  -4.472  0.00  0.00    +0.159 HD
ATOM      7  H   UNL     1       0.251  -5.011  -5.940  0.00  0.00    +0.159 HD
ATOM      8  H   UNL     1       4.342  -4.981  -5.755  0.00  0.00    +0.159 HD
ATOM      9  H   UNL     1       3.393  -5.350  -4.369  0.00  0.00    +0.159 HD
ENDROOT
BRANCH   1  10
ATOM     10  C   UNL     1       3.557  -4.352  -8.118  0.00  0.00    +0.151 C 
BRANCH  10  11
ATOM     11  C   UNL     1       3.633  -5.290  -9.291  0.00  0.00    -0.028 A 
ATOM     12  C   UNL     1       4.859  -5.850  -9.677  0.00  0.00    +0.005 A 
ATOM     13  C   UNL     1       2.480  -5.629 -10.016  0.00  0.00    +0.005 A 
ATOM     14  C   UNL     1       4.925  -6.745 -10.747  0.00  0.00    +0.000 A 
ATOM     15  C   UNL     1       2.550  -6.522 -11.085  0.00  0.00    +0.000 A 
ATOM     16  C   UNL     1       3.772  -7.082 -11.448  0.00  0.00    +0.000 A 
ENDBRANCH  10  11
ENDBRANCH   1  10
TORSDOF 2
ENDMDL
MODEL 2
REMARK VINA RESULT:    -5.438      8.431     10.250
REMARK INTER + INTRA:          -6.214
REMARK INTER:                  -6.047
REMARK INTRA:                  -0.166
REMARK UNBOUND:                -0.140
REMARK  Name = 1550473
REMARK  2 active torsions:
REMARK  status: ('A' for Active; 'I' for Inactive)
REMARK    1  A    between atoms: N_1  and  C_4
REMARK    2  A    between atoms: C_4  and  C_5
REMARK                            x       y       z     vdW  Elec       q    Type
REMARK                         _______ _______ _______ _____ _____    ______ ____
ROOT
ATOM      1  N   UNL     1       2.189   1.240  -4.459  0.00  0.00    -0.354 N 
ATOM      2  N   UNL     1       3.299   0.317  -2.648  0.00  0.00    -0.372 N 
ATOM      3  N   UNL     1       4.528   1.097  -4.422  0.00  0.00    -0.372 N 
ATOM      4  C   UNL     1       3.334   0.891  -3.856  0.00  0.00    +0.166 C 
ATOM      5  H   UNL     1       1.315   1.030  -3.990  0.00  0.00    +0.163 HD
ATOM      6  H   UNL     1       4.146   0.046  -2.167  0.00  0.00    +0.159 HD
ATOM      7  H   UNL     1       2.426   0.150  -2.162  0.00  0.00    +0.159 HD
ATOM      8  H   UNL     1       4.622   1.521  -5.335  0.00  0.00    +0.159 HD
ATOM      9  H   UNL     1       5.387   0.822  -3.962  0.00  0.00    +0.159 HD
ENDROOT
BRANCH   1  10
ATOM     10  C   UNL     1       2.119   1.920  -5.751  0.00  0.00    +0.151 C 
BRANCH  10  11
ATOM     11  C   UNL     1       1.865   3.385  -5.522  0.00  0.00    -0.028 A 
ATOM     12  C   UNL     1       0.557   3.889  -5.525  0.00  0.00    +0.005 A 
ATOM     13  C   UNL     1       2.929   4.272  -5.297  0.00  0.00    +0.005 A 
ATOM     14  C   UNL     1       0.318   5.244  -5.283  0.00  0.00    +0.000 A 
ATOM     15  C   UNL     1       2.686   5.625  -5.057  0.00  0.00    +0.000 A 
ATOM     16  C   UNL     1       1.381   6.110  -5.047  0.00  0.00    +0.000 A 
ENDBRANCH  10  11
ENDBRANCH   1  10
TORSDOF 2
ENDMDL
MODEL 3
REMARK VINA RESULT:    -5.209     16.066     17.128
REMARK INTER + INTRA:          -5.958
REMARK INTER:                  -5.839
REMARK INTRA:                  -0.119
REMARK UNBOUND:                -0.140
REMARK  Name = 1550473
REMARK  2 active torsions:
REMARK  status: ('A' for Active; 'I' for Inactive)
REMARK    1  A    between atoms: N_1  and  C_4
REMARK    2  A    between atoms: C_4  and  C_5
REMARK                            x       y       z     vdW  Elec       q    Type
REMARK                         _______ _______ _______ _____ _____    ______ ____
ROOT
ATOM      1  N   UNL     1      19.706  -0.916  -7.271  0.00  0.00    -0.354 N 
ATOM      2  N   UNL     1      20.231   1.227  -6.567  0.00  0.00    -0.372 N 
ATOM      3  N   UNL     1      18.111   0.799  -7.333  0.00  0.00    -0.372 N 
ATOM      4  C   UNL     1      19.344   0.357  -7.063  0.00  0.00    +0.166 C 
ATOM      5  H   UNL     1      20.665  -1.182  -7.075  0.00  0.00    +0.163 HD
ATOM      6  H   UNL     1      19.985   2.193  -6.396  0.00  0.00    +0.159 HD
ATOM      7  H   UNL     1      21.175   0.948  -6.329  0.00  0.00    +0.159 HD
ATOM      8  H   UNL     1      17.396   0.194  -7.714  0.00  0.00    +0.159 HD
ATOM      9  H   UNL     1      17.849   1.765  -7.179  0.00  0.00    +0.159 HD
ENDROOT
BRANCH   1  10
ATOM     10  C   UNL     1      18.801  -1.956  -7.757  0.00  0.00    +0.151 C 
BRANCH  10  11
ATOM     11  C   UNL     1      19.572  -2.916  -8.618  0.00  0.00    -0.028 A 
ATOM     12  C   UNL     1      20.900  -3.244  -8.306  0.00  0.00    +0.005 A 
ATOM     13  C   UNL     1      18.980  -3.507  -9.745  0.00  0.00    +0.005 A 
ATOM     14  C   UNL     1      21.607  -4.160  -9.089  0.00  0.00    +0.000 A 
ATOM     15  C   UNL     1      19.690  -4.420 -10.525  0.00  0.00    +0.000 A 
ATOM     16  C   UNL     1      21.003  -4.748 -10.195  0.00  0.00    +0.000 A 
ENDBRANCH  10  11
ENDBRANCH   1  10
TORSDOF 2
ENDMDL
MODEL 4
REMARK VINA RESULT:    -5.202      2.980      4.773
REMARK INTER + INTRA:          -5.950
REMARK INTER:                  -5.829
REMARK INTRA:                  -0.121
REMARK UNBOUND:                -0.140
REMARK  Name = 1550473
REMARK  2 active torsions:
REMARK  status: ('A' for Active; 'I' for Inactive)
REMARK    1  A    between atoms: N_1  and  C_4
REMARK    2  A    between atoms: C_4  and  C_5
REMARK                            x       y       z     vdW  Elec       q    Type
REMARK                         _______ _______ _______ _____ _____    ______ ____
ROOT
ATOM      1  N   UNL     1       2.699  -5.732 -10.074  0.00  0.00    -0.354 N 
ATOM      2  N   UNL     1       2.258  -7.442 -11.572  0.00  0.00    -0.372 N 
ATOM      3  N   UNL     1       3.977  -7.696 -10.074  0.00  0.00    -0.372 N 
ATOM      4  C   UNL     1       2.983  -6.946 -10.562  0.00  0.00    +0.166 C 
ATOM      5  H   UNL     1       1.952  -5.201 -10.508  0.00  0.00    +0.163 HD
ATOM      6  H   UNL     1       2.447  -8.357 -11.959  0.00  0.00    +0.159 HD
ATOM      7  H   UNL     1       1.483  -6.928 -11.974  0.00  0.00    +0.159 HD
ATOM      8  H   UNL     1       4.565  -7.377  -9.315  0.00  0.00    +0.159 HD
ATOM      9  H   UNL     1       4.189  -8.609 -10.455  0.00  0.00    +0.159 HD
ENDROOT
BRANCH   1  10
ATOM     10  C   UNL     1       3.393  -5.123  -8.940  0.00  0.00    +0.151 C 
BRANCH  10  11
ATOM     11  C   UNL     1       2.676  -3.862  -8.545  0.00  0.00    -0.028 A 
ATOM     12  C   UNL     1       3.348  -2.851  -7.841  0.00  0.00    +0.005 A 
ATOM     13  C   UNL     1       1.326  -3.668  -8.877  0.00  0.00    +0.005 A 
ATOM     14  C   UNL     1       2.690  -1.667  -7.501  0.00  0.00    +0.000 A 
ATOM     15  C   UNL     1       0.673  -2.484  -8.534  0.00  0.00    +0.000 A 
ATOM     16  C   UNL     1       1.356  -1.483  -7.848  0.00  0.00    +0.000 A 
ENDBRANCH  10  11
ENDBRANCH   1  10
TORSDOF 2
ENDMDL
MODEL 5
REMARK VINA RESULT:    -5.105      6.603      7.953
REMARK INTER + INTRA:          -5.841
REMARK INTER:                  -5.691
REMARK INTRA:                  -0.150
REMARK UNBOUND:                -0.140
REMARK  Name = 1550473
REMARK  2 active torsions:
REMARK  status: ('A' for Active; 'I' for Inactive)
REMARK    1  A    between atoms: N_1  and  C_4
REMARK    2  A    between atoms: C_4  and  C_5
REMARK                            x       y       z     vdW  Elec       q    Type
REMARK                         _______ _______ _______ _____ _____    ______ ____
ROOT
ATOM      1  N   UNL     1       8.118  -7.288 -11.986  0.00  0.00    -0.354 N 
ATOM      2  N   UNL     1       7.356  -9.453 -11.677  0.00  0.00    -0.372 N 
ATOM      3  N   UNL     1       7.771  -8.149  -9.835  0.00  0.00    -0.372 N 
ATOM      4  C   UNL     1       7.754  -8.282 -11.165  0.00  0.00    +0.166 C 
ATOM      5  H   UNL     1       8.112  -7.462 -12.985  0.00  0.00    +0.163 HD
ATOM      6  H   UNL     1       7.072 -10.220 -11.082  0.00  0.00    +0.159 HD
ATOM      7  H   UNL     1       7.306  -9.608 -12.676  0.00  0.00    +0.159 HD
ATOM      8  H   UNL     1       8.067  -7.293  -9.386  0.00  0.00    +0.159 HD
ATOM      9  H   UNL     1       7.502  -8.909  -9.223  0.00  0.00    +0.159 HD
ENDROOT
BRANCH   1  10
ATOM     10  C   UNL     1       8.516  -5.957 -11.532  0.00  0.00    +0.151 C 
BRANCH  10  11
ATOM     11  C   UNL     1       9.905  -5.663 -12.030  0.00  0.00    -0.028 A 
ATOM     12  C   UNL     1      11.027  -6.102 -11.312  0.00  0.00    +0.005 A 
ATOM     13  C   UNL     1      10.105  -4.950 -13.223  0.00  0.00    +0.005 A 
ATOM     14  C   UNL     1      12.316  -5.855 -11.790  0.00  0.00    +0.000 A 
ATOM     15  C   UNL     1      11.394  -4.705 -13.696  0.00  0.00    +0.000 A 
ATOM     16  C   UNL     1      12.499  -5.160 -12.980  0.00  0.00    +0.000 A 
ENDBRANCH  10  11
ENDBRANCH   1  10
TORSDOF 2
ENDMDL
MODEL 6
REMARK VINA RESULT:    -5.084      3.703      4.754
REMARK INTER + INTRA:          -5.818
REMARK INTER:                  -5.711
REMARK INTRA:                  -0.106
REMARK UNBOUND:                -0.140
REMARK  Name = 1550473
REMARK  2 active torsions:
REMARK  status: ('A' for Active; 'I' for Inactive)
REMARK    1  A    between atoms: N_1  and  C_4
REMARK    2  A    between atoms: C_4  and  C_5
REMARK                            x       y       z     vdW  Elec       q    Type
REMARK                         _______ _______ _______ _____ _____    ______ ____
ROOT
ATOM      1  N   UNL     1       3.451  -1.322  -5.017  0.00  0.00    -0.354 N 
ATOM      2  N   UNL     1       3.738  -1.087  -2.731  0.00  0.00    -0.372 N 
ATOM      3  N   UNL     1       5.104   0.093  -4.147  0.00  0.00    -0.372 N 
ATOM      4  C   UNL     1       4.098  -0.772  -3.981  0.00  0.00    +0.166 C 
ATOM      5  H   UNL     1       2.717  -1.994  -4.824  0.00  0.00    +0.163 HD
ATOM      6  H   UNL     1       4.206  -0.685  -1.929  0.00  0.00    +0.159 HD
ATOM      7  H   UNL     1       2.974  -1.723  -2.541  0.00  0.00    +0.159 HD
ATOM      8  H   UNL     1       5.428   0.368  -5.065  0.00  0.00    +0.159 HD
ATOM      9  H   UNL     1       5.592   0.497  -3.358  0.00  0.00    +0.159 HD
ENDROOT
BRANCH   1  10
ATOM     10  C   UNL     1       3.730  -1.005  -6.416  0.00  0.00    +0.151 C 
BRANCH  10  11
ATOM     11  C   UNL     1       2.834  -1.834  -7.295  0.00  0.00    -0.028 A 
ATOM     12  C   UNL     1       3.364  -2.547  -8.381  0.00  0.00    +0.005 A 
ATOM     13  C   UNL     1       1.456  -1.916  -7.045  0.00  0.00    +0.005 A 
ATOM     14  C   UNL     1       2.538  -3.341  -9.180  0.00  0.00    +0.000 A 
ATOM     15  C   UNL     1       0.634  -2.709  -7.845  0.00  0.00    +0.000 A 
ATOM     16  C   UNL     1       1.176  -3.424  -8.911  0.00  0.00    +0.000 A 
ENDBRANCH  10  11
ENDBRANCH   1  10
TORSDOF 2
ENDMDL
MODEL 7
REMARK VINA RESULT:    -5.066     16.304     16.792
REMARK INTER + INTRA:          -5.798
REMARK INTER:                  -5.647
REMARK INTRA:                  -0.151
REMARK UNBOUND:                -0.140
REMARK  Name = 1550473
REMARK  2 active torsions:
REMARK  status: ('A' for Active; 'I' for Inactive)
REMARK    1  A    between atoms: N_1  and  C_4
REMARK    2  A    between atoms: C_4  and  C_5
REMARK                            x       y       z     vdW  Elec       q    Type
REMARK                         _______ _______ _______ _____ _____    ______ ____
ROOT
ATOM      1  N   UNL     1      19.709  -0.195  -7.090  0.00  0.00    -0.354 N 
ATOM      2  N   UNL     1      20.660   1.791  -6.372  0.00  0.00    -0.372 N 
ATOM      3  N   UNL     1      18.386   1.692  -6.666  0.00  0.00    -0.372 N 
ATOM      4  C   UNL     1      19.576   1.084  -6.714  0.00  0.00    +0.166 C 
ATOM      5  H   UNL     1      20.642  -0.589  -7.135  0.00  0.00    +0.163 HD
ATOM      6  H   UNL     1      20.590   2.757  -6.081  0.00  0.00    +0.159 HD
ATOM      7  H   UNL     1      21.586   1.381  -6.374  0.00  0.00    +0.159 HD
ATOM      8  H   UNL     1      17.530   1.215  -6.917  0.00  0.00    +0.159 HD
ATOM      9  H   UNL     1      18.297   2.661  -6.388  0.00  0.00    +0.159 HD
ENDROOT
BRANCH   1  10
ATOM     10  C   UNL     1      18.587  -1.069  -7.431  0.00  0.00    +0.151 C 
BRANCH  10  11
ATOM     11  C   UNL     1      18.795  -1.617  -8.815  0.00  0.00    -0.028 A 
ATOM     12  C   UNL     1      19.043  -2.984  -9.010  0.00  0.00    +0.005 A 
ATOM     13  C   UNL     1      18.738  -0.777  -9.938  0.00  0.00    +0.005 A 
ATOM     14  C   UNL     1      19.206  -3.499 -10.298  0.00  0.00    +0.000 A 
ATOM     15  C   UNL     1      18.902  -1.295 -11.222  0.00  0.00    +0.000 A 
ATOM     16  C   UNL     1      19.133  -2.656 -11.402  0.00  0.00    +0.000 A 
ENDBRANCH  10  11
ENDBRANCH   1  10
TORSDOF 2
ENDMDL
MODEL 8
REMARK VINA RESULT:    -5.055      7.842      9.599
REMARK INTER + INTRA:          -5.786
REMARK INTER:                  -5.640
REMARK INTRA:                  -0.146
REMARK UNBOUND:                -0.140
REMARK  Name = 1550473
REMARK  2 active torsions:
REMARK  status: ('A' for Active; 'I' for Inactive)
REMARK    1  A    between atoms: N_1  and  C_4
REMARK    2  A    between atoms: C_4  and  C_5
REMARK                            x       y       z     vdW  Elec       q    Type
REMARK                         _______ _______ _______ _____ _____    ______ ____
ROOT
ATOM      1  N   UNL     1       4.653   0.665  -3.917  0.00  0.00    -0.354 N 
ATOM      2  N   UNL     1       5.758  -0.282  -2.115  0.00  0.00    -0.372 N 
ATOM      3  N   UNL     1       3.529  -0.737  -2.413  0.00  0.00    -0.372 N 
ATOM      4  C   UNL     1       4.637  -0.113  -2.826  0.00  0.00    +0.166 C 
ATOM      5  H   UNL     1       5.518   1.135  -4.160  0.00  0.00    +0.163 HD
ATOM      6  H   UNL     1       5.777  -0.866  -1.289  0.00  0.00    +0.159 HD
ATOM      7  H   UNL     1       6.632   0.152  -2.386  0.00  0.00    +0.159 HD
ATOM      8  H   UNL     1       2.649  -0.646  -2.902  0.00  0.00    +0.159 HD
ATOM      9  H   UNL     1       3.525  -1.316  -1.582  0.00  0.00    +0.159 HD
ENDROOT
BRANCH   1  10
ATOM     10  C   UNL     1       3.500   0.872  -4.791  0.00  0.00    +0.151 C 
BRANCH  10  11
ATOM     11  C   UNL     1       3.236   2.347  -4.915  0.00  0.00    -0.028 A 
ATOM     12  C   UNL     1       2.015   2.812  -5.424  0.00  0.00    +0.005 A 
ATOM     13  C   UNL     1       4.201   3.286  -4.519  0.00  0.00    +0.005 A 
ATOM     14  C   UNL     1       1.757   4.182  -5.511  0.00  0.00    +0.000 A 
ATOM     15  C   UNL     1       3.941   4.653  -4.608  0.00  0.00    +0.000 A 
ATOM     16  C   UNL     1       2.718   5.101  -5.102  0.00  0.00    +0.000 A 
ENDBRANCH  10  11
ENDBRANCH   1  10
TORSDOF 2
ENDMDL
MODEL 9
REMARK VINA RESULT:    -5.000      3.118      4.878
REMARK INTER + INTRA:          -5.724
REMARK INTER:                  -5.580
REMARK INTRA:                  -0.144
REMARK UNBOUND:                -0.140
REMARK  Name = 1550473
REMARK  2 active torsions:
REMARK  status: ('A' for Active; 'I' for Inactive)
REMARK    1  A    between atoms: N_1  and  C_4
REMARK    2  A    between atoms: C_4  and  C_5
REMARK                            x       y       z     vdW  Elec       q    Type
REMARK                         _______ _______ _______ _____ _____    ______ ____
ROOT
ATOM      1  N   UNL     1       4.912  -6.333  -9.684  0.00  0.00    -0.354 N 
ATOM      2  N   UNL     1       5.122  -8.048 -11.226  0.00  0.00    -0.372 N 
ATOM      3  N   UNL     1       6.453  -6.192 -11.444  0.00  0.00    -0.372 N 
ATOM      4  C   UNL     1       5.496  -6.845 -10.776  0.00  0.00    +0.166 C 
ATOM      5  H   UNL     1       4.172  -6.865  -9.240  0.00  0.00    +0.163 HD
ATOM      6  H   UNL     1       5.547  -8.462 -12.045  0.00  0.00    +0.159 HD
ATOM      7  H   UNL     1       4.414  -8.598 -10.754  0.00  0.00    +0.159 HD
ATOM      8  H   UNL     1       6.777  -5.278 -11.159  0.00  0.00    +0.159 HD
ATOM      9  H   UNL     1       6.882  -6.584 -12.273  0.00  0.00    +0.159 HD
ENDROOT
BRANCH   1  10
ATOM     10  C   UNL     1       5.285  -5.055  -9.080  0.00  0.00    +0.151 C 
BRANCH  10  11
ATOM     11  C   UNL     1       4.049  -4.218  -8.901  0.00  0.00    -0.028 A 
ATOM     12  C   UNL     1       2.796  -4.702  -9.305  0.00  0.00    +0.005 A 
ATOM     13  C   UNL     1       4.122  -2.942  -8.321  0.00  0.00    +0.005 A 
ATOM     14  C   UNL     1       1.643  -3.937  -9.111  0.00  0.00    +0.000 A 
ATOM     15  C   UNL     1       2.969  -2.181  -8.130  0.00  0.00    +0.000 A 
ATOM     16  C   UNL     1       1.730  -2.680  -8.523  0.00  0.00    +0.000 A 
ENDBRANCH  10  11
ENDBRANCH   1  10
TORSDOF 2
ENDMDL
