MODEL 1
REMARK VINA RESULT:    -5.826      0.000      0.000
REMARK INTER + INTRA:          -6.633
REMARK INTER:                  -6.507
REMARK INTRA:                  -0.126
REMARK UNBOUND:                -0.126
REMARK  Name = 1550473
REMARK  2 active torsions:
REMARK  status: ('A' for Active; 'I' for Inactive)
REMARK    1  A    between atoms: N_1  and  C_4
REMARK    2  A    between atoms: C_4  and  C_5
REMARK                            x       y       z     vdW  Elec       q    Type
REMARK                         _______ _______ _______ _____ _____    ______ ____
ROOT
ATOM      1  N   UNL     1       1.779  -4.317  -8.362  0.00  0.00    -0.354 N 
ATOM      2  N   UNL     1       0.480  -4.233  -6.447  0.00  0.00    -0.372 N 
ATOM      3  N   UNL     1       2.304  -2.850  -6.612  0.00  0.00    -0.372 N 
ATOM      4  C   UNL     1       1.532  -3.799  -7.152  0.00  0.00    +0.166 C 
ATOM      5  H   UNL     1       1.173  -5.054  -8.703  0.00  0.00    +0.163 HD
ATOM      6  H   UNL     1       0.267  -3.858  -5.532  0.00  0.00    +0.159 HD
ATOM      7  H   UNL     1      -0.150  -4.937  -6.809  0.00  0.00    +0.159 HD
ATOM      8  H   UNL     1       3.117  -2.484  -7.090  0.00  0.00    +0.159 HD
ATOM      9  H   UNL     1       2.114  -2.471  -5.692  0.00  0.00    +0.159 HD
ENDROOT
BRANCH   1  10
ATOM     10  C   UNL     1       2.866  -3.876  -9.234  0.00  0.00    +0.151 C 
BRANCH  10  11
ATOM     11  C   UNL     1       3.425  -5.066  -9.964  0.00  0.00    -0.028 A 
ATOM     12  C   UNL     1       4.763  -5.081 -10.382  0.00  0.00    +0.005 A 
ATOM     13  C   UNL     1       2.622  -6.185 -10.235  0.00  0.00    +0.005 A 
ATOM     14  C   UNL     1       5.291  -6.199 -11.033  0.00  0.00    +0.000 A 
ATOM     15  C   UNL     1       3.152  -7.298 -10.886  0.00  0.00    +0.000 A 
ATOM     16  C   UNL     1       4.487  -7.306 -11.282  0.00  0.00    +0.000 A 
ENDBRANCH  10  11
ENDBRANCH   1  10
TORSDOF 2
ENDMDL
MODEL 2
REMARK VINA RESULT:    -5.617      5.212      8.317
REMARK INTER + INTRA:          -6.399
REMARK INTER:                  -6.283
REMARK INTRA:                  -0.117
REMARK UNBOUND:                -0.126
REMARK  Name = 1550473
REMARK  2 active torsions:
REMARK  status: ('A' for Active; 'I' for Inactive)
REMARK    1  A    between atoms: N_1  and  C_4
REMARK    2  A    between atoms: C_4  and  C_5
REMARK                            x       y       z     vdW  Elec       q    Type
REMARK                         _______ _______ _______ _____ _____    ______ ____
ROOT
ATOM      1  N   UNL     1      -1.058  -2.490  -6.544  0.00  0.00    -0.354 N 
ATOM      2  N   UNL     1       0.957  -3.135  -5.602  0.00  0.00    -0.372 N 
ATOM      3  N   UNL     1       0.594  -3.544  -7.830  0.00  0.00    -0.372 N 
ATOM      4  C   UNL     1       0.151  -3.053  -6.667  0.00  0.00    +0.166 C 
ATOM      5  H   UNL     1      -1.346  -2.165  -5.628  0.00  0.00    +0.163 HD
ATOM      6  H   UNL     1       1.876  -3.552  -5.665  0.00  0.00    +0.159 HD
ATOM      7  H   UNL     1       0.685  -2.768  -4.698  0.00  0.00    +0.159 HD
ATOM      8  H   UNL     1       0.032  -3.518  -8.671  0.00  0.00    +0.159 HD
ATOM      9  H   UNL     1       1.506  -3.975  -7.911  0.00  0.00    +0.159 HD
ENDROOT
BRANCH   1  10
ATOM     10  C   UNL     1      -1.990  -2.304  -7.654  0.00  0.00    +0.151 C 
BRANCH  10  11
ATOM     11  C   UNL     1      -3.195  -1.550  -7.163  0.00  0.00    -0.028 A 
ATOM     12  C   UNL     1      -3.957  -0.771  -8.046  0.00  0.00    +0.005 A 
ATOM     13  C   UNL     1      -3.584  -1.616  -5.816  0.00  0.00    +0.005 A 
ATOM     14  C   UNL     1      -5.094  -0.096  -7.596  0.00  0.00    +0.000 A 
ATOM     15  C   UNL     1      -4.719  -0.939  -5.370  0.00  0.00    +0.000 A 
ATOM     16  C   UNL     1      -5.475  -0.181  -6.261  0.00  0.00    +0.000 A 
ENDBRANCH  10  11
ENDBRANCH   1  10
TORSDOF 2
ENDMDL
MODEL 3
REMARK VINA RESULT:    -5.586     23.597     24.906
REMARK INTER + INTRA:          -6.365
REMARK INTER:                  -6.220
REMARK INTRA:                  -0.145
REMARK UNBOUND:                -0.126
REMARK  Name = 1550473
REMARK  2 active torsions:
REMARK  status: ('A' for Active; 'I' for Inactive)
REMARK    1  A    between atoms: N_1  and  C_4
REMARK    2  A    between atoms: C_4  and  C_5
REMARK                            x       y       z     vdW  Elec       q    Type
REMARK                         _______ _______ _______ _____ _____    ______ ____
ROOT
ATOM      1  N   UNL     1      -3.872  -3.280  15.487  0.00  0.00    -0.354 N 
ATOM      2  N   UNL     1      -2.476  -4.810  16.523  0.00  0.00    -0.372 N 
ATOM      3  N   UNL     1      -1.646  -3.540  14.802  0.00  0.00    -0.372 N 
ATOM      4  C   UNL     1      -2.672  -3.866  15.595  0.00  0.00    +0.166 C 
ATOM      5  H   UNL     1      -4.617  -3.594  16.098  0.00  0.00    +0.163 HD
ATOM      6  H   UNL     1      -1.580  -5.267  16.630  0.00  0.00    +0.159 HD
ATOM      7  H   UNL     1      -3.210  -5.089  17.163  0.00  0.00    +0.159 HD
ATOM      8  H   UNL     1      -1.730  -2.839  14.078  0.00  0.00    +0.159 HD
ATOM      9  H   UNL     1      -0.745  -3.994  14.887  0.00  0.00    +0.159 HD
ENDROOT
BRANCH   1  10
ATOM     10  C   UNL     1      -4.174  -2.203  14.545  0.00  0.00    +0.151 C 
BRANCH  10  11
ATOM     11  C   UNL     1      -5.353  -2.605  13.702  0.00  0.00    -0.028 A 
ATOM     12  C   UNL     1      -5.179  -3.435  12.585  0.00  0.00    +0.005 A 
ATOM     13  C   UNL     1      -6.647  -2.162  14.018  0.00  0.00    +0.005 A 
ATOM     14  C   UNL     1      -6.278  -3.832  11.819  0.00  0.00    +0.000 A 
ATOM     15  C   UNL     1      -7.741  -2.561  13.249  0.00  0.00    +0.000 A 
ATOM     16  C   UNL     1      -7.556  -3.398  12.152  0.00  0.00    +0.000 A 
ENDBRANCH  10  11
ENDBRANCH   1  10
TORSDOF 2
ENDMDL
MODEL 4
REMARK VINA RESULT:    -5.313      5.075      7.351
REMARK INTER + INTRA:          -6.060
REMARK INTER:                  -5.943
REMARK INTRA:                  -0.117
REMARK UNBOUND:                -0.126
REMARK  Name = 1550473
REMARK  2 active torsions:
REMARK  status: ('A' for Active; 'I' for Inactive)
REMARK    1  A    between atoms: N_1  and  C_4
REMARK    2  A    between atoms: C_4  and  C_5
REMARK                            x       y       z     vdW  Elec       q    Type
REMARK                         _______ _______ _______ _____ _____    ______ ____
ROOT
ATOM      1  N   UNL     1      -0.476  -2.178  -6.391  0.00  0.00    -0.354 N 
ATOM      2  N   UNL     1       1.695  -2.449  -5.632  0.00  0.00    -0.372 N 
ATOM      3  N   UNL     1       0.617  -4.242  -6.574  0.00  0.00    -0.372 N 
ATOM      4  C   UNL     1       0.597  -2.957  -6.205  0.00  0.00    +0.166 C 
ATOM      5  H   UNL     1      -0.439  -1.220  -6.061  0.00  0.00    +0.163 HD
ATOM      6  H   UNL     1       2.522  -3.012  -5.482  0.00  0.00    +0.159 HD
ATOM      7  H   UNL     1       1.746  -1.479  -5.346  0.00  0.00    +0.159 HD
ATOM      8  H   UNL     1      -0.181  -4.688  -7.006  0.00  0.00    +0.159 HD
ATOM      9  H   UNL     1       1.431  -4.825  -6.422  0.00  0.00    +0.159 HD
ENDROOT
BRANCH   1  10
ATOM     10  C   UNL     1      -1.702  -2.619  -7.054  0.00  0.00    +0.151 C 
BRANCH  10  11
ATOM     11  C   UNL     1      -2.344  -1.442  -7.735  0.00  0.00    -0.028 A 
ATOM     12  C   UNL     1      -1.634  -0.697  -8.688  0.00  0.00    +0.005 A 
ATOM     13  C   UNL     1      -3.663  -1.069  -7.436  0.00  0.00    +0.005 A 
ATOM     14  C   UNL     1      -2.239   0.378  -9.343  0.00  0.00    +0.000 A 
ATOM     15  C   UNL     1      -4.264   0.005  -8.091  0.00  0.00    +0.000 A 
ATOM     16  C   UNL     1      -3.552   0.727  -9.046  0.00  0.00    +0.000 A 
ENDBRANCH  10  11
ENDBRANCH   1  10
TORSDOF 2
ENDMDL
MODEL 5
REMARK VINA RESULT:    -5.126      4.768      5.617
REMARK INTER + INTRA:          -5.851
REMARK INTER:                  -5.715
REMARK INTRA:                  -0.136
REMARK UNBOUND:                -0.126
REMARK  Name = 1550473
REMARK  2 active torsions:
REMARK  status: ('A' for Active; 'I' for Inactive)
REMARK    1  A    between atoms: N_1  and  C_4
REMARK    2  A    between atoms: C_4  and  C_5
REMARK                            x       y       z     vdW  Elec       q    Type
REMARK                         _______ _______ _______ _____ _____    ______ ____
ROOT
ATOM      1  N   UNL     1       0.659  -2.165  -7.356  0.00  0.00    -0.354 N 
ATOM      2  N   UNL     1       0.837  -4.359  -6.636  0.00  0.00    -0.372 N 
ATOM      3  N   UNL     1       1.099  -2.666  -5.109  0.00  0.00    -0.372 N 
ATOM      4  C   UNL     1       0.865  -3.047  -6.369  0.00  0.00    +0.166 C 
ATOM      5  H   UNL     1       0.516  -2.517  -8.295  0.00  0.00    +0.163 HD
ATOM      6  H   UNL     1       0.985  -5.048  -5.911  0.00  0.00    +0.159 HD
ATOM      7  H   UNL     1       0.649  -4.709  -7.567  0.00  0.00    +0.159 HD
ATOM      8  H   UNL     1       1.138  -1.691  -4.844  0.00  0.00    +0.159 HD
ATOM      9  H   UNL     1       1.261  -3.341  -4.373  0.00  0.00    +0.159 HD
ENDROOT
BRANCH   1  10
ATOM     10  C   UNL     1       0.615  -0.717  -7.161  0.00  0.00    +0.151 C 
BRANCH  10  11
ATOM     11  C   UNL     1       1.636  -0.070  -8.056  0.00  0.00    -0.028 A 
ATOM     12  C   UNL     1       2.452   0.964  -7.574  0.00  0.00    +0.005 A 
ATOM     13  C   UNL     1       1.796  -0.490  -9.385  0.00  0.00    +0.005 A 
ATOM     14  C   UNL     1       3.421   1.545  -8.396  0.00  0.00    +0.000 A 
ATOM     15  C   UNL     1       2.764   0.094 -10.203  0.00  0.00    +0.000 A 
ATOM     16  C   UNL     1       3.578   1.109  -9.707  0.00  0.00    +0.000 A 
ENDBRANCH  10  11
ENDBRANCH   1  10
TORSDOF 2
ENDMDL
MODEL 6
REMARK VINA RESULT:    -5.039     18.359     19.419
REMARK INTER + INTRA:          -5.754
REMARK INTER:                  -5.624
REMARK INTRA:                  -0.130
REMARK UNBOUND:                -0.126
REMARK  Name = 1550473
REMARK  2 active torsions:
REMARK  status: ('A' for Active; 'I' for Inactive)
REMARK    1  A    between atoms: N_1  and  C_4
REMARK    2  A    between atoms: C_4  and  C_5
REMARK                            x       y       z     vdW  Elec       q    Type
REMARK                         _______ _______ _______ _____ _____    ______ ____
ROOT
ATOM      1  N   UNL     1     -10.033   8.568 -12.540  0.00  0.00    -0.354 N 
ATOM      2  N   UNL     1     -12.257   8.162 -12.035  0.00  0.00    -0.372 N 
ATOM      3  N   UNL     1     -11.020   6.495 -13.014  0.00  0.00    -0.372 N 
ATOM      4  C   UNL     1     -11.088   7.742 -12.534  0.00  0.00    +0.166 C 
ATOM      5  H   UNL     1     -10.158   9.510 -12.190  0.00  0.00    +0.163 HD
ATOM      6  H   UNL     1     -13.069   7.560 -12.013  0.00  0.00    +0.159 HD
ATOM      7  H   UNL     1     -12.367   9.089 -11.643  0.00  0.00    +0.159 HD
ATOM      8  H   UNL     1     -10.169   6.120 -13.410  0.00  0.00    +0.159 HD
ATOM      9  H   UNL     1     -11.825   5.882 -13.012  0.00  0.00    +0.159 HD
ENDROOT
BRANCH   1  10
ATOM     10  C   UNL     1      -8.702   8.190 -13.012  0.00  0.00    +0.151 C 
BRANCH  10  11
ATOM     11  C   UNL     1      -8.067   9.374 -13.688  0.00  0.00    -0.028 A 
ATOM     12  C   UNL     1      -6.965   9.202 -14.538  0.00  0.00    +0.005 A 
ATOM     13  C   UNL     1      -8.566  10.670 -13.486  0.00  0.00    +0.005 A 
ATOM     14  C   UNL     1      -6.394  10.297 -15.190  0.00  0.00    +0.000 A 
ATOM     15  C   UNL     1      -7.992  11.761 -14.138  0.00  0.00    +0.000 A 
ATOM     16  C   UNL     1      -6.907  11.574 -14.992  0.00  0.00    +0.000 A 
ENDBRANCH  10  11
ENDBRANCH   1  10
TORSDOF 2
ENDMDL
MODEL 7
REMARK VINA RESULT:    -5.031     18.826     19.895
REMARK INTER + INTRA:          -5.744
REMARK INTER:                  -5.616
REMARK INTRA:                  -0.129
REMARK UNBOUND:                -0.126
REMARK  Name = 1550473
REMARK  2 active torsions:
REMARK  status: ('A' for Active; 'I' for Inactive)
REMARK    1  A    between atoms: N_1  and  C_4
REMARK    2  A    between atoms: C_4  and  C_5
REMARK                            x       y       z     vdW  Elec       q    Type
REMARK                         _______ _______ _______ _____ _____    ______ ____
ROOT
ATOM      1  N   UNL     1      -6.577  10.737 -14.091  0.00  0.00    -0.354 N 
ATOM      2  N   UNL     1      -4.941  10.266 -15.662  0.00  0.00    -0.372 N 
ATOM      3  N   UNL     1      -6.731  11.562 -16.279  0.00  0.00    -0.372 N 
ATOM      4  C   UNL     1      -6.096  10.860 -15.336  0.00  0.00    +0.166 C 
ATOM      5  H   UNL     1      -6.063  10.166 -13.430  0.00  0.00    +0.163 HD
ATOM      6  H   UNL     1      -4.552  10.344 -16.592  0.00  0.00    +0.159 HD
ATOM      7  H   UNL     1      -4.406   9.734 -14.987  0.00  0.00    +0.159 HD
ATOM      8  H   UNL     1      -7.610  12.029 -16.099  0.00  0.00    +0.159 HD
ATOM      9  H   UNL     1      -6.363  11.642 -17.219  0.00  0.00    +0.159 HD
ENDROOT
BRANCH   1  10
ATOM     10  C   UNL     1      -7.798  11.388 -13.619  0.00  0.00    +0.151 C 
BRANCH  10  11
ATOM     11  C   UNL     1      -8.752  10.338 -13.120  0.00  0.00    -0.028 A 
ATOM     12  C   UNL     1      -9.807  10.685 -12.263  0.00  0.00    +0.005 A 
ATOM     13  C   UNL     1      -8.611   8.996 -13.506  0.00  0.00    +0.005 A 
ATOM     14  C   UNL     1     -10.712   9.715 -11.823  0.00  0.00    +0.000 A 
ATOM     15  C   UNL     1      -9.516   8.031 -13.064  0.00  0.00    +0.000 A 
ATOM     16  C   UNL     1     -10.568   8.392 -12.225  0.00  0.00    +0.000 A 
ENDBRANCH  10  11
ENDBRANCH   1  10
TORSDOF 2
ENDMDL
MODEL 8
REMARK VINA RESULT:    -4.982      8.375      9.150
REMARK INTER + INTRA:          -5.690
REMARK INTER:                  -5.528
REMARK INTRA:                  -0.162
REMARK UNBOUND:                -0.126
REMARK  Name = 1550473
REMARK  2 active torsions:
REMARK  status: ('A' for Active; 'I' for Inactive)
REMARK    1  A    between atoms: N_1  and  C_4
REMARK    2  A    between atoms: C_4  and  C_5
REMARK                            x       y       z     vdW  Elec       q    Type
REMARK                         _______ _______ _______ _____ _____    ______ ____
ROOT
ATOM      1  N   UNL     1      -4.499   0.058  -5.316  0.00  0.00    -0.354 N 
ATOM      2  N   UNL     1      -2.844  -0.583  -3.829  0.00  0.00    -0.372 N 
ATOM      3  N   UNL     1      -4.048  -2.206  -4.916  0.00  0.00    -0.372 N 
ATOM      4  C   UNL     1      -3.809  -0.909  -4.698  0.00  0.00    +0.166 C 
ATOM      5  H   UNL     1      -4.290   1.022  -5.085  0.00  0.00    +0.163 HD
ATOM      6  H   UNL     1      -2.304  -1.291  -3.349  0.00  0.00    +0.159 HD
ATOM      7  H   UNL     1      -2.606   0.381  -3.634  0.00  0.00    +0.159 HD
ATOM      8  H   UNL     1      -4.767  -2.518  -5.555  0.00  0.00    +0.159 HD
ATOM      9  H   UNL     1      -3.526  -2.929  -4.437  0.00  0.00    +0.159 HD
ENDROOT
BRANCH   1  10
ATOM     10  C   UNL     1      -5.533  -0.189  -6.320  0.00  0.00    +0.151 C 
BRANCH  10  11
ATOM     11  C   UNL     1      -4.896  -0.232  -7.681  0.00  0.00    -0.028 A 
ATOM     12  C   UNL     1      -4.293   0.914  -8.221  0.00  0.00    +0.005 A 
ATOM     13  C   UNL     1      -4.888  -1.415  -8.435  0.00  0.00    +0.005 A 
ATOM     14  C   UNL     1      -3.675   0.867  -9.473  0.00  0.00    +0.000 A 
ATOM     15  C   UNL     1      -4.271  -1.458  -9.685  0.00  0.00    +0.000 A 
ATOM     16  C   UNL     1      -3.662  -0.317 -10.202  0.00  0.00    +0.000 A 
ENDBRANCH  10  11
ENDBRANCH   1  10
TORSDOF 2
ENDMDL
MODEL 9
REMARK VINA RESULT:    -4.922     30.728     31.195
REMARK INTER + INTRA:          -5.623
REMARK INTER:                  -5.500
REMARK INTRA:                  -0.123
REMARK UNBOUND:                -0.126
REMARK  Name = 1550473
REMARK  2 active torsions:
REMARK  status: ('A' for Active; 'I' for Inactive)
REMARK    1  A    between atoms: N_1  and  C_4
REMARK    2  A    between atoms: C_4  and  C_5
REMARK                            x       y       z     vdW  Elec       q    Type
REMARK                         _______ _______ _______ _____ _____    ______ ____
ROOT
ATOM      1  N   UNL     1      -1.321   7.782  18.484  0.00  0.00    -0.354 N 
ATOM      2  N   UNL     1      -2.994   8.648  17.136  0.00  0.00    -0.372 N 
ATOM      3  N   UNL     1      -1.336  10.047  17.885  0.00  0.00    -0.372 N 
ATOM      4  C   UNL     1      -1.871   8.822  17.844  0.00  0.00    +0.166 C 
ATOM      5  H   UNL     1      -1.792   6.885  18.438  0.00  0.00    +0.163 HD
ATOM      6  H   UNL     1      -3.430   9.414  16.640  0.00  0.00    +0.159 HD
ATOM      7  H   UNL     1      -3.437   7.742  17.055  0.00  0.00    +0.159 HD
ATOM      8  H   UNL     1      -0.493  10.246  18.407  0.00  0.00    +0.159 HD
ATOM      9  H   UNL     1      -1.764  10.829  17.405  0.00  0.00    +0.159 HD
ENDROOT
BRANCH   1  10
ATOM     10  C   UNL     1      -0.071   7.853  19.238  0.00  0.00    +0.151 C 
BRANCH  10  11
ATOM     11  C   UNL     1       0.281   6.478  19.736  0.00  0.00    -0.028 A 
ATOM     12  C   UNL     1       1.463   6.265  20.460  0.00  0.00    +0.005 A 
ATOM     13  C   UNL     1      -0.565   5.386  19.492  0.00  0.00    +0.005 A 
ATOM     14  C   UNL     1       1.777   4.994  20.948  0.00  0.00    +0.000 A 
ATOM     15  C   UNL     1      -0.249   4.119  19.980  0.00  0.00    +0.000 A 
ATOM     16  C   UNL     1       0.921   3.924  20.711  0.00  0.00    +0.000 A 
ENDBRANCH  10  11
ENDBRANCH   1  10
TORSDOF 2
ENDMDL
