MODEL 1
REMARK VINA RESULT:    -4.718      0.000      0.000
REMARK INTER + INTRA:          -5.398
REMARK INTER:                  -5.269
REMARK INTRA:                  -0.128
REMARK UNBOUND:                -0.128
REMARK  Name = 1550473
REMARK  2 active torsions:
REMARK  status: ('A' for Active; 'I' for Inactive)
REMARK    1  A    between atoms: N_1  and  C_4
REMARK    2  A    between atoms: C_4  and  C_5
REMARK                            x       y       z     vdW  Elec       q    Type
REMARK                         _______ _______ _______ _____ _____    ______ ____
ROOT
ATOM      1  N   UNL     1       1.570  12.282 -11.330  0.00  0.00    -0.354 N 
ATOM      2  N   UNL     1      -0.669  11.695 -11.274  0.00  0.00    -0.372 N 
ATOM      3  N   UNL     1       0.510  11.385 -13.218  0.00  0.00    -0.372 N 
ATOM      4  C   UNL     1       0.486  11.791 -11.944  0.00  0.00    +0.166 C 
ATOM      5  H   UNL     1       1.479  12.600 -10.372  0.00  0.00    +0.163 HD
ATOM      6  H   UNL     1      -1.504  11.325 -11.709  0.00  0.00    +0.159 HD
ATOM      7  H   UNL     1      -0.746  11.971 -10.303  0.00  0.00    +0.159 HD
ATOM      8  H   UNL     1       1.349  11.437 -13.780  0.00  0.00    +0.159 HD
ATOM      9  H   UNL     1      -0.318  11.023 -13.675  0.00  0.00    +0.159 HD
ENDROOT
BRANCH   1  10
ATOM     10  C   UNL     1       2.889  12.379 -11.954  0.00  0.00    +0.151 C 
BRANCH  10  11
ATOM     11  C   UNL     1       3.698  13.422 -11.233  0.00  0.00    -0.028 A 
ATOM     12  C   UNL     1       3.089  14.279 -10.305  0.00  0.00    +0.005 A 
ATOM     13  C   UNL     1       5.075  13.555 -11.471  0.00  0.00    +0.005 A 
ATOM     14  C   UNL     1       3.846  15.228  -9.614  0.00  0.00    +0.000 A 
ATOM     15  C   UNL     1       5.826  14.505 -10.779  0.00  0.00    +0.000 A 
ATOM     16  C   UNL     1       5.212  15.340  -9.849  0.00  0.00    +0.000 A 
ENDBRANCH  10  11
ENDBRANCH   1  10
TORSDOF 2
ENDMDL
MODEL 2
REMARK VINA RESULT:    -4.608     32.974     33.341
REMARK INTER + INTRA:          -5.275
REMARK INTER:                  -5.135
REMARK INTRA:                  -0.139
REMARK UNBOUND:                -0.128
REMARK  Name = 1550473
REMARK  2 active torsions:
REMARK  status: ('A' for Active; 'I' for Inactive)
REMARK    1  A    between atoms: N_1  and  C_4
REMARK    2  A    between atoms: C_4  and  C_5
REMARK                            x       y       z     vdW  Elec       q    Type
REMARK                         _______ _______ _______ _____ _____    ______ ____
ROOT
ATOM      1  N   UNL     1       1.437  -4.765  16.428  0.00  0.00    -0.354 N 
ATOM      2  N   UNL     1       0.448  -5.858  14.642  0.00  0.00    -0.372 N 
ATOM      3  N   UNL     1       0.962  -7.058  16.529  0.00  0.00    -0.372 N 
ATOM      4  C   UNL     1       0.956  -5.889  15.880  0.00  0.00    +0.166 C 
ATOM      5  H   UNL     1       1.431  -3.917  15.873  0.00  0.00    +0.163 HD
ATOM      6  H   UNL     1       0.074  -6.689  14.203  0.00  0.00    +0.159 HD
ATOM      7  H   UNL     1       0.401  -4.999  14.107  0.00  0.00    +0.159 HD
ATOM      8  H   UNL     1       1.338  -7.149  17.463  0.00  0.00    +0.159 HD
ATOM      9  H   UNL     1       0.604  -7.903  16.102  0.00  0.00    +0.159 HD
ENDROOT
BRANCH   1  10
ATOM     10  C   UNL     1       1.963  -4.680  17.790  0.00  0.00    +0.151 C 
BRANCH  10  11
ATOM     11  C   UNL     1       3.300  -3.993  17.758  0.00  0.00    -0.028 A 
ATOM     12  C   UNL     1       4.213  -4.163  18.809  0.00  0.00    +0.005 A 
ATOM     13  C   UNL     1       3.663  -3.176  16.676  0.00  0.00    +0.005 A 
ATOM     14  C   UNL     1       5.468  -3.549  18.765  0.00  0.00    +0.000 A 
ATOM     15  C   UNL     1       4.916  -2.564  16.637  0.00  0.00    +0.000 A 
ATOM     16  C   UNL     1       5.819  -2.753  17.680  0.00  0.00    +0.000 A 
ENDBRANCH  10  11
ENDBRANCH   1  10
TORSDOF 2
ENDMDL
MODEL 3
REMARK VINA RESULT:    -4.502     14.685     15.930
REMARK INTER + INTRA:          -5.156
REMARK INTER:                  -5.014
REMARK INTRA:                  -0.142
REMARK UNBOUND:                -0.128
REMARK  Name = 1550473
REMARK  2 active torsions:
REMARK  status: ('A' for Active; 'I' for Inactive)
REMARK    1  A    between atoms: N_1  and  C_4
REMARK    2  A    between atoms: C_4  and  C_5
REMARK                            x       y       z     vdW  Elec       q    Type
REMARK                         _______ _______ _______ _____ _____    ______ ____
ROOT
ATOM      1  N   UNL     1      -8.502   2.985 -11.503  0.00  0.00    -0.354 N 
ATOM      2  N   UNL     1     -10.686   3.482 -10.916  0.00  0.00    -0.372 N 
ATOM      3  N   UNL     1      -9.559   4.915 -12.310  0.00  0.00    -0.372 N 
ATOM      4  C   UNL     1      -9.567   3.793 -11.582  0.00  0.00    +0.166 C 
ATOM      5  H   UNL     1      -8.562   2.165 -10.910  0.00  0.00    +0.163 HD
ATOM      6  H   UNL     1     -11.508   4.070 -10.959  0.00  0.00    +0.159 HD
ATOM      7  H   UNL     1     -10.759   2.638 -10.361  0.00  0.00    +0.159 HD
ATOM      8  H   UNL     1      -8.744   5.209 -12.831  0.00  0.00    +0.159 HD
ATOM      9  H   UNL     1     -10.367   5.523 -12.356  0.00  0.00    +0.159 HD
ENDROOT
BRANCH   1  10
ATOM     10  C   UNL     1      -7.254   3.205 -12.232  0.00  0.00    +0.151 C 
BRANCH  10  11
ATOM     11  C   UNL     1      -6.972   2.007 -13.097  0.00  0.00    -0.028 A 
ATOM     12  C   UNL     1      -7.367   0.725 -12.688  0.00  0.00    +0.005 A 
ATOM     13  C   UNL     1      -6.316   2.149 -14.329  0.00  0.00    +0.005 A 
ATOM     14  C   UNL     1      -7.133  -0.383 -13.505  0.00  0.00    +0.000 A 
ATOM     15  C   UNL     1      -6.084   1.040 -15.142  0.00  0.00    +0.000 A 
ATOM     16  C   UNL     1      -6.494  -0.226 -14.731  0.00  0.00    +0.000 A 
ENDBRANCH  10  11
ENDBRANCH   1  10
TORSDOF 2
ENDMDL
MODEL 4
REMARK VINA RESULT:    -4.409      1.469      1.712
REMARK INTER + INTRA:          -5.053
REMARK INTER:                  -4.936
REMARK INTRA:                  -0.116
REMARK UNBOUND:                -0.128
REMARK  Name = 1550473
REMARK  2 active torsions:
REMARK  status: ('A' for Active; 'I' for Inactive)
REMARK    1  A    between atoms: N_1  and  C_4
REMARK    2  A    between atoms: C_4  and  C_5
REMARK                            x       y       z     vdW  Elec       q    Type
REMARK                         _______ _______ _______ _____ _____    ______ ____
ROOT
ATOM      1  N   UNL     1       1.336  14.169 -10.842  0.00  0.00    -0.354 N 
ATOM      2  N   UNL     1      -0.902  14.737 -10.660  0.00  0.00    -0.372 N 
ATOM      3  N   UNL     1      -0.342  12.545 -11.045  0.00  0.00    -0.372 N 
ATOM      4  C   UNL     1       0.045  13.811 -10.851  0.00  0.00    +0.166 C 
ATOM      5  H   UNL     1       1.562  15.149 -10.720  0.00  0.00    +0.163 HD
ATOM      6  H   UNL     1      -1.884  14.496 -10.658  0.00  0.00    +0.159 HD
ATOM      7  H   UNL     1      -0.671  15.709 -10.492  0.00  0.00    +0.159 HD
ATOM      8  H   UNL     1       0.323  11.800 -11.201  0.00  0.00    +0.159 HD
ATOM      9  H   UNL     1      -1.321  12.287 -11.059  0.00  0.00    +0.159 HD
ENDROOT
BRANCH   1  10
ATOM     10  C   UNL     1       2.446  13.229 -10.986  0.00  0.00    +0.151 C 
BRANCH  10  11
ATOM     11  C   UNL     1       3.736  13.944 -10.696  0.00  0.00    -0.028 A 
ATOM     12  C   UNL     1       3.790  14.946  -9.716  0.00  0.00    +0.005 A 
ATOM     13  C   UNL     1       4.911  13.620 -11.393  0.00  0.00    +0.005 A 
ATOM     14  C   UNL     1       4.995  15.590  -9.425  0.00  0.00    +0.000 A 
ATOM     15  C   UNL     1       6.111  14.266 -11.099  0.00  0.00    +0.000 A 
ATOM     16  C   UNL     1       6.154  15.249 -10.114  0.00  0.00    +0.000 A 
ENDBRANCH  10  11
ENDBRANCH   1  10
TORSDOF 2
ENDMDL
MODEL 5
REMARK VINA RESULT:    -4.391     33.826     34.286
REMARK INTER + INTRA:          -5.032
REMARK INTER:                  -4.875
REMARK INTRA:                  -0.157
REMARK UNBOUND:                -0.128
REMARK  Name = 1550473
REMARK  2 active torsions:
REMARK  status: ('A' for Active; 'I' for Inactive)
REMARK    1  A    between atoms: N_1  and  C_4
REMARK    2  A    between atoms: C_4  and  C_5
REMARK                            x       y       z     vdW  Elec       q    Type
REMARK                         _______ _______ _______ _____ _____    ______ ____
ROOT
ATOM      1  N   UNL     1       1.212  -4.803  16.470  0.00  0.00    -0.354 N 
ATOM      2  N   UNL     1       0.478  -5.908  14.572  0.00  0.00    -0.372 N 
ATOM      3  N   UNL     1       0.928  -7.129  16.462  0.00  0.00    -0.372 N 
ATOM      4  C   UNL     1       0.878  -5.941  15.849  0.00  0.00    +0.166 C 
ATOM      5  H   UNL     1       1.182  -3.939  15.941  0.00  0.00    +0.163 HD
ATOM      6  H   UNL     1       0.216  -6.751  14.078  0.00  0.00    +0.159 HD
ATOM      7  H   UNL     1       0.405  -5.038  14.059  0.00  0.00    +0.159 HD
ATOM      8  H   UNL     1       1.227  -7.223  17.424  0.00  0.00    +0.159 HD
ATOM      9  H   UNL     1       0.681  -7.985  15.981  0.00  0.00    +0.159 HD
ENDROOT
BRANCH   1  10
ATOM     10  C   UNL     1       1.609  -4.723  17.875  0.00  0.00    +0.151 C 
BRANCH  10  11
ATOM     11  C   UNL     1       0.558  -3.968  18.640  0.00  0.00    -0.028 A 
ATOM     12  C   UNL     1       0.823  -2.681  19.131  0.00  0.00    +0.005 A 
ATOM     13  C   UNL     1      -0.706  -4.532  18.873  0.00  0.00    +0.005 A 
ATOM     14  C   UNL     1      -0.163  -1.967  19.817  0.00  0.00    +0.000 A 
ATOM     15  C   UNL     1      -1.687  -3.816  19.559  0.00  0.00    +0.000 A 
ATOM     16  C   UNL     1      -1.416  -2.533  20.028  0.00  0.00    +0.000 A 
ENDBRANCH  10  11
ENDBRANCH   1  10
TORSDOF 2
ENDMDL
MODEL 6
REMARK VINA RESULT:    -4.256     19.075     20.304
REMARK INTER + INTRA:          -4.882
REMARK INTER:                  -4.764
REMARK INTRA:                  -0.118
REMARK UNBOUND:                -0.128
REMARK  Name = 1550473
REMARK  2 active torsions:
REMARK  status: ('A' for Active; 'I' for Inactive)
REMARK    1  A    between atoms: N_1  and  C_4
REMARK    2  A    between atoms: C_4  and  C_5
REMARK                            x       y       z     vdW  Elec       q    Type
REMARK                         _______ _______ _______ _____ _____    ______ ____
ROOT
ATOM      1  N   UNL     1      -5.122   8.660   6.281  0.00  0.00    -0.354 N 
ATOM      2  N   UNL     1      -3.689   8.401   8.082  0.00  0.00    -0.372 N 
ATOM      3  N   UNL     1      -3.165   9.937   6.461  0.00  0.00    -0.372 N 
ATOM      4  C   UNL     1      -4.000   9.003   6.928  0.00  0.00    +0.166 C 
ATOM      5  H   UNL     1      -5.697   7.923   6.672  0.00  0.00    +0.163 HD
ATOM      6  H   UNL     1      -2.851   8.641   8.595  0.00  0.00    +0.159 HD
ATOM      7  H   UNL     1      -4.290   7.697   8.494  0.00  0.00    +0.159 HD
ATOM      8  H   UNL     1      -3.339  10.425   5.592  0.00  0.00    +0.159 HD
ATOM      9  H   UNL     1      -2.316  10.183   6.953  0.00  0.00    +0.159 HD
ENDROOT
BRANCH   1  10
ATOM     10  C   UNL     1      -5.579   9.292   5.045  0.00  0.00    +0.151 C 
BRANCH  10  11
ATOM     11  C   UNL     1      -7.059   9.073   4.899  0.00  0.00    -0.028 A 
ATOM     12  C   UNL     1      -7.845   9.980   4.173  0.00  0.00    +0.005 A 
ATOM     13  C   UNL     1      -7.682   7.958   5.480  0.00  0.00    +0.005 A 
ATOM     14  C   UNL     1      -9.215   9.761   4.012  0.00  0.00    +0.000 A 
ATOM     15  C   UNL     1      -9.050   7.743   5.317  0.00  0.00    +0.000 A 
ATOM     16  C   UNL     1      -9.816   8.644   4.581  0.00  0.00    +0.000 A 
ENDBRANCH  10  11
ENDBRANCH   1  10
TORSDOF 2
ENDMDL
MODEL 7
REMARK VINA RESULT:    -4.195     13.070     15.977
REMARK INTER + INTRA:          -4.814
REMARK INTER:                  -4.680
REMARK INTRA:                  -0.134
REMARK UNBOUND:                -0.128
REMARK  Name = 1550473
REMARK  2 active torsions:
REMARK  status: ('A' for Active; 'I' for Inactive)
REMARK    1  A    between atoms: N_1  and  C_4
REMARK    2  A    between atoms: C_4  and  C_5
REMARK                            x       y       z     vdW  Elec       q    Type
REMARK                         _______ _______ _______ _____ _____    ______ ____
ROOT
ATOM      1  N   UNL     1      -6.960   3.191 -13.497  0.00  0.00    -0.354 N 
ATOM      2  N   UNL     1      -5.628   5.084 -13.431  0.00  0.00    -0.372 N 
ATOM      3  N   UNL     1      -5.790   3.776 -11.553  0.00  0.00    -0.372 N 
ATOM      4  C   UNL     1      -6.135   4.004 -12.825  0.00  0.00    +0.166 C 
ATOM      5  H   UNL     1      -7.206   3.435 -14.449  0.00  0.00    +0.163 HD
ATOM      6  H   UNL     1      -5.000   5.714 -12.951  0.00  0.00    +0.159 HD
ATOM      7  H   UNL     1      -5.839   5.301 -14.398  0.00  0.00    +0.159 HD
ATOM      8  H   UNL     1      -6.143   2.982 -11.036  0.00  0.00    +0.159 HD
ATOM      9  H   UNL     1      -5.172   4.402 -11.051  0.00  0.00    +0.159 HD
ENDROOT
BRANCH   1  10
ATOM     10  C   UNL     1      -7.523   1.959 -12.946  0.00  0.00    +0.151 C 
BRANCH  10  11
ATOM     11  C   UNL     1      -7.045   0.791 -13.763  0.00  0.00    -0.028 A 
ATOM     12  C   UNL     1      -7.456  -0.513 -13.449  0.00  0.00    +0.005 A 
ATOM     13  C   UNL     1      -6.185   0.982 -14.855  0.00  0.00    +0.005 A 
ATOM     14  C   UNL     1      -7.035  -1.595 -14.226  0.00  0.00    +0.000 A 
ATOM     15  C   UNL     1      -5.767  -0.101 -15.628  0.00  0.00    +0.000 A 
ATOM     16  C   UNL     1      -6.194  -1.389 -15.314  0.00  0.00    +0.000 A 
ENDBRANCH  10  11
ENDBRANCH   1  10
TORSDOF 2
ENDMDL
MODEL 8
REMARK VINA RESULT:    -4.122     19.606     20.708
REMARK INTER + INTRA:          -4.733
REMARK INTER:                  -4.568
REMARK INTRA:                  -0.165
REMARK UNBOUND:                -0.128
REMARK  Name = 1550473
REMARK  2 active torsions:
REMARK  status: ('A' for Active; 'I' for Inactive)
REMARK    1  A    between atoms: N_1  and  C_4
REMARK    2  A    between atoms: C_4  and  C_5
REMARK                            x       y       z     vdW  Elec       q    Type
REMARK                         _______ _______ _______ _____ _____    ______ ____
ROOT
ATOM      1  N   UNL     1      -3.527   9.606   6.625  0.00  0.00    -0.354 N 
ATOM      2  N   UNL     1      -2.295  11.566   6.714  0.00  0.00    -0.372 N 
ATOM      3  N   UNL     1      -3.084  10.662   8.670  0.00  0.00    -0.372 N 
ATOM      4  C   UNL     1      -2.977  10.599   7.338  0.00  0.00    +0.166 C 
ATOM      5  H   UNL     1      -3.435   9.632   5.616  0.00  0.00    +0.163 HD
ATOM      6  H   UNL     1      -1.867  12.325   7.226  0.00  0.00    +0.159 HD
ATOM      7  H   UNL     1      -2.166  11.564   5.709  0.00  0.00    +0.159 HD
ATOM      8  H   UNL     1      -3.591   9.967   9.200  0.00  0.00    +0.159 HD
ATOM      9  H   UNL     1      -2.673  11.421   9.199  0.00  0.00    +0.159 HD
ENDROOT
BRANCH   1  10
ATOM     10  C   UNL     1      -4.244   8.476   7.213  0.00  0.00    +0.151 C 
BRANCH  10  11
ATOM     11  C   UNL     1      -5.678   8.517   6.763  0.00  0.00    -0.028 A 
ATOM     12  C   UNL     1      -6.582   9.418   7.344  0.00  0.00    +0.005 A 
ATOM     13  C   UNL     1      -6.138   7.660   5.751  0.00  0.00    +0.005 A 
ATOM     14  C   UNL     1      -7.907   9.477   6.906  0.00  0.00    +0.000 A 
ATOM     15  C   UNL     1      -7.462   7.721   5.316  0.00  0.00    +0.000 A 
ATOM     16  C   UNL     1      -8.345   8.631   5.892  0.00  0.00    +0.000 A 
ENDBRANCH  10  11
ENDBRANCH   1  10
TORSDOF 2
ENDMDL
MODEL 9
REMARK VINA RESULT:    -4.119     17.762     19.023
REMARK INTER + INTRA:          -4.729
REMARK INTER:                  -4.589
REMARK INTRA:                  -0.140
REMARK UNBOUND:                -0.128
REMARK  Name = 1550473
REMARK  2 active torsions:
REMARK  status: ('A' for Active; 'I' for Inactive)
REMARK    1  A    between atoms: N_1  and  C_4
REMARK    2  A    between atoms: C_4  and  C_5
REMARK                            x       y       z     vdW  Elec       q    Type
REMARK                         _______ _______ _______ _____ _____    ______ ____
ROOT
ATOM      1  N   UNL     1      -4.786  11.400   3.893  0.00  0.00    -0.354 N 
ATOM      2  N   UNL     1      -2.681  12.297   4.251  0.00  0.00    -0.372 N 
ATOM      3  N   UNL     1      -4.526  13.551   4.786  0.00  0.00    -0.372 N 
ATOM      4  C   UNL     1      -4.013  12.412   4.308  0.00  0.00    +0.166 C 
ATOM      5  H   UNL     1      -4.336  10.575   3.513  0.00  0.00    +0.163 HD
ATOM      6  H   UNL     1      -2.072  13.042   4.560  0.00  0.00    +0.159 HD
ATOM      7  H   UNL     1      -2.233  11.453   3.913  0.00  0.00    +0.159 HD
ATOM      8  H   UNL     1      -5.524  13.703   4.850  0.00  0.00    +0.159 HD
ATOM      9  H   UNL     1      -3.933  14.313   5.089  0.00  0.00    +0.159 HD
ENDROOT
BRANCH   1  10
ATOM     10  C   UNL     1      -6.246  11.404   3.963  0.00  0.00    +0.151 C 
BRANCH  10  11
ATOM     11  C   UNL     1      -6.716  10.078   4.496  0.00  0.00    -0.028 A 
ATOM     12  C   UNL     1      -5.795   9.063   4.792  0.00  0.00    +0.005 A 
ATOM     13  C   UNL     1      -8.081   9.834   4.714  0.00  0.00    +0.005 A 
ATOM     14  C   UNL     1      -6.228   7.842   5.315  0.00  0.00    +0.000 A 
ATOM     15  C   UNL     1      -8.509   8.614   5.236  0.00  0.00    +0.000 A 
ATOM     16  C   UNL     1      -7.582   7.619   5.539  0.00  0.00    +0.000 A 
ENDBRANCH  10  11
ENDBRANCH   1  10
TORSDOF 2
ENDMDL
