MODEL 1
REMARK VINA RESULT:    -5.881      0.000      0.000
REMARK INTER + INTRA:          -6.718
REMARK INTER:                  -6.569
REMARK INTRA:                  -0.149
REMARK UNBOUND:                -0.149
REMARK  Name = 1550473
REMARK  2 active torsions:
REMARK  status: ('A' for Active; 'I' for Inactive)
REMARK    1  A    between atoms: N_1  and  C_4
REMARK    2  A    between atoms: C_4  and  C_5
REMARK                            x       y       z     vdW  Elec       q    Type
REMARK                         _______ _______ _______ _____ _____    ______ ____
ROOT
ATOM      1  N   UNL     1       2.432   0.990  -3.238  0.00  0.00    -0.354 N 
ATOM      2  N   UNL     1       3.434  -1.098  -3.230  0.00  0.00    -0.372 N 
ATOM      3  N   UNL     1       4.622   0.706  -2.455  0.00  0.00    -0.372 N 
ATOM      4  C   UNL     1       3.492   0.215  -2.974  0.00  0.00    +0.166 C 
ATOM      5  H   UNL     1       1.615   0.562  -3.660  0.00  0.00    +0.163 HD
ATOM      6  H   UNL     1       4.217  -1.709  -3.038  0.00  0.00    +0.159 HD
ATOM      7  H   UNL     1       2.600  -1.531  -3.609  0.00  0.00    +0.159 HD
ATOM      8  H   UNL     1       4.732   1.688  -2.243  0.00  0.00    +0.159 HD
ATOM      9  H   UNL     1       5.420   0.112  -2.266  0.00  0.00    +0.159 HD
ENDROOT
BRANCH   1  10
ATOM     10  C   UNL     1       2.373   2.421  -2.946  0.00  0.00    +0.151 C 
BRANCH  10  11
ATOM     11  C   UNL     1       2.290   3.184  -4.240  0.00  0.00    -0.028 A 
ATOM     12  C   UNL     1       1.170   3.978  -4.527  0.00  0.00    +0.005 A 
ATOM     13  C   UNL     1       3.330   3.121  -5.179  0.00  0.00    +0.005 A 
ATOM     14  C   UNL     1       1.106   4.710  -5.715  0.00  0.00    +0.000 A 
ATOM     15  C   UNL     1       3.262   3.852  -6.365  0.00  0.00    +0.000 A 
ATOM     16  C   UNL     1       2.151   4.649  -6.631  0.00  0.00    +0.000 A 
ENDBRANCH  10  11
ENDBRANCH   1  10
TORSDOF 2
ENDMDL
MODEL 2
REMARK VINA RESULT:    -5.844      1.949      2.218
REMARK INTER + INTRA:          -6.677
REMARK INTER:                  -6.519
REMARK INTRA:                  -0.158
REMARK UNBOUND:                -0.149
REMARK  Name = 1550473
REMARK  2 active torsions:
REMARK  status: ('A' for Active; 'I' for Inactive)
REMARK    1  A    between atoms: N_1  and  C_4
REMARK    2  A    between atoms: C_4  and  C_5
REMARK                            x       y       z     vdW  Elec       q    Type
REMARK                         _______ _______ _______ _____ _____    ______ ____
ROOT
ATOM      1  N   UNL     1       0.119   2.192  -2.821  0.00  0.00    -0.354 N 
ATOM      2  N   UNL     1      -0.225   0.017  -2.101  0.00  0.00    -0.372 N 
ATOM      3  N   UNL     1       1.566   1.189  -1.274  0.00  0.00    -0.372 N 
ATOM      4  C   UNL     1       0.491   1.148  -2.069  0.00  0.00    +0.166 C 
ATOM      5  H   UNL     1      -0.688   2.087  -3.425  0.00  0.00    +0.163 HD
ATOM      6  H   UNL     1       0.029  -0.786  -1.542  0.00  0.00    +0.159 HD
ATOM      7  H   UNL     1      -1.058  -0.069  -2.671  0.00  0.00    +0.159 HD
ATOM      8  H   UNL     1       2.152   2.010  -1.208  0.00  0.00    +0.159 HD
ATOM      9  H   UNL     1       1.843   0.391  -0.715  0.00  0.00    +0.159 HD
ENDROOT
BRANCH   1  10
ATOM     10  C   UNL     1       0.799   3.486  -2.817  0.00  0.00    +0.151 C 
BRANCH  10  11
ATOM     11  C   UNL     1       1.569   3.640  -4.100  0.00  0.00    -0.028 A 
ATOM     12  C   UNL     1       1.096   4.482  -5.117  0.00  0.00    +0.005 A 
ATOM     13  C   UNL     1       2.774   2.951  -4.303  0.00  0.00    +0.005 A 
ATOM     14  C   UNL     1       1.825   4.648  -6.297  0.00  0.00    +0.000 A 
ATOM     15  C   UNL     1       3.499   3.119  -5.482  0.00  0.00    +0.000 A 
ATOM     16  C   UNL     1       3.026   3.970  -6.478  0.00  0.00    +0.000 A 
ENDBRANCH  10  11
ENDBRANCH   1  10
TORSDOF 2
ENDMDL
MODEL 3
REMARK VINA RESULT:    -5.736     21.303     22.228
REMARK INTER + INTRA:          -6.556
REMARK INTER:                  -6.451
REMARK INTRA:                  -0.105
REMARK UNBOUND:                -0.149
REMARK  Name = 1550473
REMARK  2 active torsions:
REMARK  status: ('A' for Active; 'I' for Inactive)
REMARK    1  A    between atoms: N_1  and  C_4
REMARK    2  A    between atoms: C_4  and  C_5
REMARK                            x       y       z     vdW  Elec       q    Type
REMARK                         _______ _______ _______ _____ _____    ______ ____
ROOT
ATOM      1  N   UNL     1      -9.633 -10.804   8.741  0.00  0.00    -0.354 N 
ATOM      2  N   UNL     1     -11.933 -11.050   8.617  0.00  0.00    -0.372 N 
ATOM      3  N   UNL     1     -10.976  -9.136   7.788  0.00  0.00    -0.372 N 
ATOM      4  C   UNL     1     -10.832 -10.326   8.382  0.00  0.00    +0.166 C 
ATOM      5  H   UNL     1      -9.594 -11.699   9.215  0.00  0.00    +0.163 HD
ATOM      6  H   UNL     1     -12.850 -10.717   8.354  0.00  0.00    +0.159 HD
ATOM      7  H   UNL     1     -11.886 -11.965   9.050  0.00  0.00    +0.159 HD
ATOM      8  H   UNL     1     -10.185  -8.539   7.588  0.00  0.00    +0.159 HD
ATOM      9  H   UNL     1     -11.887  -8.781   7.528  0.00  0.00    +0.159 HD
ENDROOT
BRANCH   1  10
ATOM     10  C   UNL     1      -8.368 -10.118   8.482  0.00  0.00    +0.151 C 
BRANCH  10  11
ATOM     11  C   UNL     1      -7.739  -9.736   9.793  0.00  0.00    -0.028 A 
ATOM     12  C   UNL     1      -8.537  -9.358  10.883  0.00  0.00    +0.005 A 
ATOM     13  C   UNL     1      -6.345  -9.755   9.954  0.00  0.00    +0.005 A 
ATOM     14  C   UNL     1      -7.954  -9.032  12.110  0.00  0.00    +0.000 A 
ATOM     15  C   UNL     1      -5.766  -9.428  11.180  0.00  0.00    +0.000 A 
ATOM     16  C   UNL     1      -6.571  -9.069  12.259  0.00  0.00    +0.000 A 
ENDBRANCH  10  11
ENDBRANCH   1  10
TORSDOF 2
ENDMDL
MODEL 4
REMARK VINA RESULT:    -5.613      2.565      3.864
REMARK INTER + INTRA:          -6.418
REMARK INTER:                  -6.285
REMARK INTRA:                  -0.133
REMARK UNBOUND:                -0.149
REMARK  Name = 1550473
REMARK  2 active torsions:
REMARK  status: ('A' for Active; 'I' for Inactive)
REMARK    1  A    between atoms: N_1  and  C_4
REMARK    2  A    between atoms: C_4  and  C_5
REMARK                            x       y       z     vdW  Elec       q    Type
REMARK                         _______ _______ _______ _____ _____    ______ ____
ROOT
ATOM      1  N   UNL     1       1.184  -1.750  -2.300  0.00  0.00    -0.354 N 
ATOM      2  N   UNL     1       1.334  -4.000  -1.772  0.00  0.00    -0.372 N 
ATOM      3  N   UNL     1       0.976  -2.487  -0.085  0.00  0.00    -0.372 N 
ATOM      4  C   UNL     1       1.164  -2.730  -1.387  0.00  0.00    +0.166 C 
ATOM      5  H   UNL     1       1.361  -1.997  -3.267  0.00  0.00    +0.163 HD
ATOM      6  H   UNL     1       1.320  -4.761  -1.107  0.00  0.00    +0.159 HD
ATOM      7  H   UNL     1       1.465  -4.249  -2.746  0.00  0.00    +0.159 HD
ATOM      8  H   UNL     1       0.847  -1.550   0.272  0.00  0.00    +0.159 HD
ATOM      9  H   UNL     1       0.970  -3.234   0.598  0.00  0.00    +0.159 HD
ENDROOT
BRANCH   1  10
ATOM     10  C   UNL     1       0.955  -0.340  -1.991  0.00  0.00    +0.151 C 
BRANCH  10  11
ATOM     11  C   UNL     1       1.804   0.506  -2.900  0.00  0.00    -0.028 A 
ATOM     12  C   UNL     1       2.938  -0.035  -3.522  0.00  0.00    +0.005 A 
ATOM     13  C   UNL     1       1.475   1.848  -3.148  0.00  0.00    +0.005 A 
ATOM     14  C   UNL     1       3.710   0.742  -4.390  0.00  0.00    +0.000 A 
ATOM     15  C   UNL     1       2.249   2.620  -4.014  0.00  0.00    +0.000 A 
ATOM     16  C   UNL     1       3.364   2.066  -4.637  0.00  0.00    +0.000 A 
ENDBRANCH  10  11
ENDBRANCH   1  10
TORSDOF 2
ENDMDL
MODEL 5
REMARK VINA RESULT:    -5.383      6.247      9.483
REMARK INTER + INTRA:          -6.162
REMARK INTER:                  -6.017
REMARK INTRA:                  -0.145
REMARK UNBOUND:                -0.149
REMARK  Name = 1550473
REMARK  2 active torsions:
REMARK  status: ('A' for Active; 'I' for Inactive)
REMARK    1  A    between atoms: N_1  and  C_4
REMARK    2  A    between atoms: C_4  and  C_5
REMARK                            x       y       z     vdW  Elec       q    Type
REMARK                         _______ _______ _______ _____ _____    ______ ____
ROOT
ATOM      1  N   UNL     1       1.714  -3.104  -0.884  0.00  0.00    -0.354 N 
ATOM      2  N   UNL     1       2.345  -1.848  -2.725  0.00  0.00    -0.372 N 
ATOM      3  N   UNL     1       0.562  -3.280  -2.917  0.00  0.00    -0.372 N 
ATOM      4  C   UNL     1       1.534  -2.754  -2.165  0.00  0.00    +0.166 C 
ATOM      5  H   UNL     1       2.488  -2.691  -0.376  0.00  0.00    +0.163 HD
ATOM      6  H   UNL     1       2.232  -1.562  -3.688  0.00  0.00    +0.159 HD
ATOM      7  H   UNL     1       3.089  -1.403  -2.202  0.00  0.00    +0.159 HD
ATOM      8  H   UNL     1      -0.079  -3.973  -2.555  0.00  0.00    +0.159 HD
ATOM      9  H   UNL     1       0.440  -3.015  -3.887  0.00  0.00    +0.159 HD
ENDROOT
BRANCH   1  10
ATOM     10  C   UNL     1       0.854  -4.040  -0.164  0.00  0.00    +0.151 C 
BRANCH  10  11
ATOM     11  C   UNL     1       1.554  -5.367  -0.055  0.00  0.00    -0.028 A 
ATOM     12  C   UNL     1       0.819  -6.545   0.146  0.00  0.00    +0.005 A 
ATOM     13  C   UNL     1       2.950  -5.453  -0.159  0.00  0.00    +0.005 A 
ATOM     14  C   UNL     1       1.467  -7.781   0.216  0.00  0.00    +0.000 A 
ATOM     15  C   UNL     1       3.593  -6.689  -0.087  0.00  0.00    +0.000 A 
ATOM     16  C   UNL     1       2.851  -7.853   0.098  0.00  0.00    +0.000 A 
ENDBRANCH  10  11
ENDBRANCH   1  10
TORSDOF 2
ENDMDL
MODEL 6
REMARK VINA RESULT:    -5.339     10.114     11.053
REMARK INTER + INTRA:          -6.112
REMARK INTER:                  -5.991
REMARK INTRA:                  -0.122
REMARK UNBOUND:                -0.149
REMARK  Name = 1550473
REMARK  2 active torsions:
REMARK  status: ('A' for Active; 'I' for Inactive)
REMARK    1  A    between atoms: N_1  and  C_4
REMARK    2  A    between atoms: C_4  and  C_5
REMARK                            x       y       z     vdW  Elec       q    Type
REMARK                         _______ _______ _______ _____ _____    ______ ____
ROOT
ATOM      1  N   UNL     1      12.126  -4.460  -5.722  0.00  0.00    -0.354 N 
ATOM      2  N   UNL     1      13.819  -5.224  -4.338  0.00  0.00    -0.372 N 
ATOM      3  N   UNL     1      14.002  -3.133  -5.265  0.00  0.00    -0.372 N 
ATOM      4  C   UNL     1      13.306  -4.265  -5.118  0.00  0.00    +0.166 C 
ATOM      5  H   UNL     1      11.662  -5.353  -5.595  0.00  0.00    +0.163 HD
ATOM      6  H   UNL     1      14.705  -5.103  -3.866  0.00  0.00    +0.159 HD
ATOM      7  H   UNL     1      13.331  -6.096  -4.176  0.00  0.00    +0.159 HD
ATOM      8  H   UNL     1      13.672  -2.373  -5.845  0.00  0.00    +0.159 HD
ATOM      9  H   UNL     1      14.897  -2.998  -4.810  0.00  0.00    +0.159 HD
ENDROOT
BRANCH   1  10
ATOM     10  C   UNL     1      11.455  -3.459  -6.549  0.00  0.00    +0.151 C 
BRANCH  10  11
ATOM     11  C   UNL     1      10.096  -3.973  -6.937  0.00  0.00    -0.028 A 
ATOM     12  C   UNL     1       9.394  -3.394  -8.004  0.00  0.00    +0.005 A 
ATOM     13  C   UNL     1       9.508  -5.044  -6.245  0.00  0.00    +0.005 A 
ATOM     14  C   UNL     1       8.144  -3.891  -8.384  0.00  0.00    +0.000 A 
ATOM     15  C   UNL     1       8.260  -5.536  -6.628  0.00  0.00    +0.000 A 
ATOM     16  C   UNL     1       7.580  -4.962  -7.699  0.00  0.00    +0.000 A 
ENDBRANCH  10  11
ENDBRANCH   1  10
TORSDOF 2
ENDMDL
MODEL 7
REMARK VINA RESULT:    -5.141      7.715      9.119
REMARK INTER + INTRA:          -5.892
REMARK INTER:                  -5.714
REMARK INTRA:                  -0.178
REMARK UNBOUND:                -0.149
REMARK  Name = 1550473
REMARK  2 active torsions:
REMARK  status: ('A' for Active; 'I' for Inactive)
REMARK    1  A    between atoms: N_1  and  C_4
REMARK    2  A    between atoms: C_4  and  C_5
REMARK                            x       y       z     vdW  Elec       q    Type
REMARK                         _______ _______ _______ _____ _____    ______ ____
ROOT
ATOM      1  N   UNL     1       2.263  -3.689  -1.306  0.00  0.00    -0.354 N 
ATOM      2  N   UNL     1       0.911  -2.655   0.265  0.00  0.00    -0.372 N 
ATOM      3  N   UNL     1       0.971  -4.947   0.190  0.00  0.00    -0.372 N 
ATOM      4  C   UNL     1       1.390  -3.773  -0.294  0.00  0.00    +0.166 C 
ATOM      5  H   UNL     1       2.518  -2.769  -1.646  0.00  0.00    +0.163 HD
ATOM      6  H   UNL     1       0.254  -2.687   1.032  0.00  0.00    +0.159 HD
ATOM      7  H   UNL     1       1.203  -1.737  -0.047  0.00  0.00    +0.159 HD
ATOM      8  H   UNL     1       1.290  -5.828  -0.192  0.00  0.00    +0.159 HD
ATOM      9  H   UNL     1       0.304  -5.000   0.950  0.00  0.00    +0.159 HD
ENDROOT
BRANCH   1  10
ATOM     10  C   UNL     1       2.885  -4.845  -1.948  0.00  0.00    +0.151 C 
BRANCH  10  11
ATOM     11  C   UNL     1       4.236  -5.082  -1.331  0.00  0.00    -0.028 A 
ATOM     12  C   UNL     1       4.424  -6.114  -0.401  0.00  0.00    +0.005 A 
ATOM     13  C   UNL     1       5.335  -4.280  -1.678  0.00  0.00    +0.005 A 
ATOM     14  C   UNL     1       5.685  -6.353   0.150  0.00  0.00    +0.000 A 
ATOM     15  C   UNL     1       6.593  -4.522  -1.126  0.00  0.00    +0.000 A 
ATOM     16  C   UNL     1       6.768  -5.560  -0.214  0.00  0.00    +0.000 A 
ENDBRANCH  10  11
ENDBRANCH   1  10
TORSDOF 2
ENDMDL
MODEL 8
REMARK VINA RESULT:    -5.122      7.573      9.106
REMARK INTER + INTRA:          -5.870
REMARK INTER:                  -5.728
REMARK INTRA:                  -0.142
REMARK UNBOUND:                -0.149
REMARK  Name = 1550473
REMARK  2 active torsions:
REMARK  status: ('A' for Active; 'I' for Inactive)
REMARK    1  A    between atoms: N_1  and  C_4
REMARK    2  A    between atoms: C_4  and  C_5
REMARK                            x       y       z     vdW  Elec       q    Type
REMARK                         _______ _______ _______ _____ _____    ______ ____
ROOT
ATOM      1  N   UNL     1       1.630  -7.202  -2.988  0.00  0.00    -0.354 N 
ATOM      2  N   UNL     1       0.935  -9.363  -2.525  0.00  0.00    -0.372 N 
ATOM      3  N   UNL     1      -0.225  -7.606  -1.613  0.00  0.00    -0.372 N 
ATOM      4  C   UNL     1       0.783  -8.041  -2.377  0.00  0.00    +0.166 C 
ATOM      5  H   UNL     1       2.391  -7.596  -3.528  0.00  0.00    +0.163 HD
ATOM      6  H   UNL     1       0.309 -10.020  -2.079  0.00  0.00    +0.159 HD
ATOM      7  H   UNL     1       1.669  -9.753  -3.103  0.00  0.00    +0.159 HD
ATOM      8  H   UNL     1      -0.391  -6.620  -1.456  0.00  0.00    +0.159 HD
ATOM      9  H   UNL     1      -0.855  -8.248  -1.149  0.00  0.00    +0.159 HD
ENDROOT
BRANCH   1  10
ATOM     10  C   UNL     1       1.519  -5.746  -2.934  0.00  0.00    +0.151 C 
BRANCH  10  11
ATOM     11  C   UNL     1       2.871  -5.161  -2.632  0.00  0.00    -0.028 A 
ATOM     12  C   UNL     1       3.068  -3.773  -2.661  0.00  0.00    +0.005 A 
ATOM     13  C   UNL     1       3.957  -5.989  -2.311  0.00  0.00    +0.005 A 
ATOM     14  C   UNL     1       4.317  -3.227  -2.351  0.00  0.00    +0.000 A 
ATOM     15  C   UNL     1       5.202  -5.441  -2.003  0.00  0.00    +0.000 A 
ATOM     16  C   UNL     1       5.381  -4.060  -2.020  0.00  0.00    +0.000 A 
ENDBRANCH  10  11
ENDBRANCH   1  10
TORSDOF 2
ENDMDL
MODEL 9
REMARK VINA RESULT:    -5.082     10.117     11.724
REMARK INTER + INTRA:          -5.825
REMARK INTER:                  -5.673
REMARK INTRA:                  -0.152
REMARK UNBOUND:                -0.149
REMARK  Name = 1550473
REMARK  2 active torsions:
REMARK  status: ('A' for Active; 'I' for Inactive)
REMARK    1  A    between atoms: N_1  and  C_4
REMARK    2  A    between atoms: C_4  and  C_5
REMARK                            x       y       z     vdW  Elec       q    Type
REMARK                         _______ _______ _______ _____ _____    ______ ____
ROOT
ATOM      1  N   UNL     1       0.047  -9.483  -0.424  0.00  0.00    -0.354 N 
ATOM      2  N   UNL     1      -1.179 -10.422  -2.149  0.00  0.00    -0.372 N 
ATOM      3  N   UNL     1       1.077 -10.827  -2.044  0.00  0.00    -0.372 N 
ATOM      4  C   UNL     1      -0.008 -10.239  -1.529  0.00  0.00    +0.166 C 
ATOM      5  H   UNL     1      -0.805  -9.040  -0.101  0.00  0.00    +0.163 HD
ATOM      6  H   UNL     1      -1.252 -10.990  -2.983  0.00  0.00    +0.159 HD
ATOM      7  H   UNL     1      -2.038 -10.016  -1.798  0.00  0.00    +0.159 HD
ATOM      8  H   UNL     1       1.992 -10.723  -1.626  0.00  0.00    +0.159 HD
ATOM      9  H   UNL     1       1.026 -11.390  -2.884  0.00  0.00    +0.159 HD
ENDROOT
BRANCH   1  10
ATOM     10  C   UNL     1       1.263  -9.264   0.357  0.00  0.00    +0.151 C 
BRANCH  10  11
ATOM     11  C   UNL     1       1.661  -7.818   0.252  0.00  0.00    -0.028 A 
ATOM     12  C   UNL     1       3.010  -7.458   0.119  0.00  0.00    +0.005 A 
ATOM     13  C   UNL     1       0.693  -6.802   0.279  0.00  0.00    +0.005 A 
ATOM     14  C   UNL     1       3.378  -6.116  -0.009  0.00  0.00    +0.000 A 
ATOM     15  C   UNL     1       1.064  -5.463   0.152  0.00  0.00    +0.000 A 
ATOM     16  C   UNL     1       2.406  -5.121   0.005  0.00  0.00    +0.000 A 
ENDBRANCH  10  11
ENDBRANCH   1  10
TORSDOF 2
ENDMDL
