MODEL 1
REMARK VINA RESULT:    -4.469      0.000      0.000
REMARK INTER + INTRA:          -5.129
REMARK INTER:                  -4.992
REMARK INTRA:                  -0.137
REMARK UNBOUND:                -0.137
REMARK  Name = 1550473
REMARK  2 active torsions:
REMARK  status: ('A' for Active; 'I' for Inactive)
REMARK    1  A    between atoms: N_1  and  C_4
REMARK    2  A    between atoms: C_4  and  C_5
REMARK                            x       y       z     vdW  Elec       q    Type
REMARK                         _______ _______ _______ _____ _____    ______ ____
ROOT
ATOM      1  N   UNL     1       2.019   9.068  22.158  0.00  0.00    -0.354 N 
ATOM      2  N   UNL     1       4.171   8.679  22.921  0.00  0.00    -0.372 N 
ATOM      3  N   UNL     1       3.572   7.902  20.846  0.00  0.00    -0.372 N 
ATOM      4  C   UNL     1       3.240   8.551  21.968  0.00  0.00    +0.166 C 
ATOM      5  H   UNL     1       1.821   9.521  23.043  0.00  0.00    +0.163 HD
ATOM      6  H   UNL     1       5.102   8.302  22.804  0.00  0.00    +0.159 HD
ATOM      7  H   UNL     1       3.984   9.172  23.785  0.00  0.00    +0.159 HD
ATOM      8  H   UNL     1       2.913   7.767  20.091  0.00  0.00    +0.159 HD
ATOM      9  H   UNL     1       4.495   7.508  20.715  0.00  0.00    +0.159 HD
ENDROOT
BRANCH   1  10
ATOM     10  C   UNL     1       0.950   9.030  21.162  0.00  0.00    +0.151 C 
BRANCH  10  11
ATOM     11  C   UNL     1      -0.332   8.621  21.832  0.00  0.00    -0.028 A 
ATOM     12  C   UNL     1      -0.454   8.674  23.228  0.00  0.00    +0.005 A 
ATOM     13  C   UNL     1      -1.431   8.185  21.076  0.00  0.00    +0.005 A 
ATOM     14  C   UNL     1      -1.655   8.323  23.849  0.00  0.00    +0.000 A 
ATOM     15  C   UNL     1      -2.628   7.834  21.700  0.00  0.00    +0.000 A 
ATOM     16  C   UNL     1      -2.741   7.906  23.086  0.00  0.00    +0.000 A 
ENDBRANCH  10  11
ENDBRANCH   1  10
TORSDOF 2
ENDMDL
MODEL 2
REMARK VINA RESULT:    -4.461     34.508     35.708
REMARK INTER + INTRA:          -5.120
REMARK INTER:                  -4.997
REMARK INTRA:                  -0.123
REMARK UNBOUND:                -0.137
REMARK  Name = 1550473
REMARK  2 active torsions:
REMARK  status: ('A' for Active; 'I' for Inactive)
REMARK    1  A    between atoms: N_1  and  C_4
REMARK    2  A    between atoms: C_4  and  C_5
REMARK                            x       y       z     vdW  Elec       q    Type
REMARK                         _______ _______ _______ _____ _____    ______ ____
ROOT
ATOM      1  N   UNL     1     -12.211  -0.517 -10.011  0.00  0.00    -0.354 N 
ATOM      2  N   UNL     1     -12.270  -2.768 -10.553  0.00  0.00    -0.372 N 
ATOM      3  N   UNL     1     -12.309  -2.158  -8.341  0.00  0.00    -0.372 N 
ATOM      4  C   UNL     1     -12.263  -1.800  -9.629  0.00  0.00    +0.166 C 
ATOM      5  H   UNL     1     -12.147  -0.312 -11.002  0.00  0.00    +0.163 HD
ATOM      6  H   UNL     1     -12.312  -3.745 -10.294  0.00  0.00    +0.159 HD
ATOM      7  H   UNL     1     -12.253  -2.559 -11.544  0.00  0.00    +0.159 HD
ATOM      8  H   UNL     1     -12.300  -1.476  -7.595  0.00  0.00    +0.159 HD
ATOM      9  H   UNL     1     -12.339  -3.131  -8.062  0.00  0.00    +0.159 HD
ENDROOT
BRANCH   1  10
ATOM     10  C   UNL     1     -12.252   0.614  -9.086  0.00  0.00    +0.151 C 
BRANCH  10  11
ATOM     11  C   UNL     1     -12.396   1.887  -9.873  0.00  0.00    -0.028 A 
ATOM     12  C   UNL     1     -12.236   3.133  -9.248  0.00  0.00    +0.005 A 
ATOM     13  C   UNL     1     -12.685   1.855 -11.246  0.00  0.00    +0.005 A 
ATOM     14  C   UNL     1     -12.340   4.315  -9.985  0.00  0.00    +0.000 A 
ATOM     15  C   UNL     1     -12.788   3.038 -11.978  0.00  0.00    +0.000 A 
ATOM     16  C   UNL     1     -12.613   4.267 -11.348  0.00  0.00    +0.000 A 
ENDBRANCH  10  11
ENDBRANCH   1  10
TORSDOF 2
ENDMDL
MODEL 3
REMARK VINA RESULT:    -4.297     63.171     64.374
REMARK INTER + INTRA:          -4.937
REMARK INTER:                  -4.806
REMARK INTRA:                  -0.131
REMARK UNBOUND:                -0.137
REMARK  Name = 1550473
REMARK  2 active torsions:
REMARK  status: ('A' for Active; 'I' for Inactive)
REMARK    1  A    between atoms: N_1  and  C_4
REMARK    2  A    between atoms: C_4  and  C_5
REMARK                            x       y       z     vdW  Elec       q    Type
REMARK                         _______ _______ _______ _____ _____    ______ ____
ROOT
ATOM      1  N   UNL     1      -7.858 -24.427 -34.383  0.00  0.00    -0.354 N 
ATOM      2  N   UNL     1      -7.340 -23.431 -36.408  0.00  0.00    -0.372 N 
ATOM      3  N   UNL     1      -5.698 -24.569 -35.280  0.00  0.00    -0.372 N 
ATOM      4  C   UNL     1      -6.966 -24.150 -35.343  0.00  0.00    +0.166 C 
ATOM      5  H   UNL     1      -8.796 -24.055 -34.475  0.00  0.00    +0.163 HD
ATOM      6  H   UNL     1      -6.691 -23.209 -37.151  0.00  0.00    +0.159 HD
ATOM      7  H   UNL     1      -8.291 -23.099 -36.520  0.00  0.00    +0.159 HD
ATOM      8  H   UNL     1      -5.351 -25.110 -34.500  0.00  0.00    +0.159 HD
ATOM      9  H   UNL     1      -5.030 -24.347 -36.008  0.00  0.00    +0.159 HD
ENDROOT
BRANCH   1  10
ATOM     10  C   UNL     1      -7.566 -25.248 -33.208  0.00  0.00    +0.151 C 
BRANCH  10  11
ATOM     11  C   UNL     1      -8.054 -24.534 -31.977  0.00  0.00    -0.028 A 
ATOM     12  C   UNL     1      -7.293 -23.507 -31.401  0.00  0.00    +0.005 A 
ATOM     13  C   UNL     1      -9.279 -24.878 -31.386  0.00  0.00    +0.005 A 
ATOM     14  C   UNL     1      -7.760 -22.824 -30.276  0.00  0.00    +0.000 A 
ATOM     15  C   UNL     1      -9.741 -24.194 -30.261  0.00  0.00    +0.000 A 
ATOM     16  C   UNL     1      -8.983 -23.165 -29.708  0.00  0.00    +0.000 A 
ENDBRANCH  10  11
ENDBRANCH   1  10
TORSDOF 2
ENDMDL
MODEL 4
REMARK VINA RESULT:    -4.250     29.101     30.212
REMARK INTER + INTRA:          -4.884
REMARK INTER:                  -4.785
REMARK INTRA:                  -0.099
REMARK UNBOUND:                -0.137
REMARK  Name = 1550473
REMARK  2 active torsions:
REMARK  status: ('A' for Active; 'I' for Inactive)
REMARK    1  A    between atoms: N_1  and  C_4
REMARK    2  A    between atoms: C_4  and  C_5
REMARK                            x       y       z     vdW  Elec       q    Type
REMARK                         _______ _______ _______ _____ _____    ______ ____
ROOT
ATOM      1  N   UNL     1       3.127 -10.055   0.602  0.00  0.00    -0.354 N 
ATOM      2  N   UNL     1       3.816 -11.665   2.117  0.00  0.00    -0.372 N 
ATOM      3  N   UNL     1       1.890 -12.020   0.921  0.00  0.00    -0.372 N 
ATOM      4  C   UNL     1       2.938 -11.237   1.203  0.00  0.00    +0.166 C 
ATOM      5  H   UNL     1       3.925  -9.495   0.882  0.00  0.00    +0.163 HD
ATOM      6  H   UNL     1       3.701 -12.555   2.585  0.00  0.00    +0.159 HD
ATOM      7  H   UNL     1       4.637 -11.125   2.362  0.00  0.00    +0.159 HD
ATOM      8  H   UNL     1       1.188 -11.752   0.245  0.00  0.00    +0.159 HD
ATOM      9  H   UNL     1       1.752 -12.908   1.387  0.00  0.00    +0.159 HD
ENDROOT
BRANCH   1  10
ATOM     10  C   UNL     1       2.259  -9.522  -0.446  0.00  0.00    +0.151 C 
BRANCH  10  11
ATOM     11  C   UNL     1       3.038  -9.430  -1.729  0.00  0.00    -0.028 A 
ATOM     12  C   UNL     1       2.648  -8.534  -2.736  0.00  0.00    +0.005 A 
ATOM     13  C   UNL     1       4.170 -10.230  -1.942  0.00  0.00    +0.005 A 
ATOM     14  C   UNL     1       3.388  -8.427  -3.916  0.00  0.00    +0.000 A 
ATOM     15  C   UNL     1       4.906 -10.120  -3.122  0.00  0.00    +0.000 A 
ATOM     16  C   UNL     1       4.517  -9.217  -4.107  0.00  0.00    +0.000 A 
ENDBRANCH  10  11
ENDBRANCH   1  10
TORSDOF 2
ENDMDL
MODEL 5
REMARK VINA RESULT:    -4.245     33.710     34.530
REMARK INTER + INTRA:          -4.879
REMARK INTER:                  -4.745
REMARK INTRA:                  -0.133
REMARK UNBOUND:                -0.137
REMARK  Name = 1550473
REMARK  2 active torsions:
REMARK  status: ('A' for Active; 'I' for Inactive)
REMARK    1  A    between atoms: N_1  and  C_4
REMARK    2  A    between atoms: C_4  and  C_5
REMARK                            x       y       z     vdW  Elec       q    Type
REMARK                         _______ _______ _______ _____ _____    ______ ____
ROOT
ATOM      1  N   UNL     1     -12.079   0.044  -8.796  0.00  0.00    -0.354 N 
ATOM      2  N   UNL     1     -12.368  -2.173  -8.192  0.00  0.00    -0.372 N 
ATOM      3  N   UNL     1     -12.684  -1.570 -10.383  0.00  0.00    -0.372 N 
ATOM      4  C   UNL     1     -12.376  -1.219  -9.130  0.00  0.00    +0.166 C 
ATOM      5  H   UNL     1     -11.883   0.251  -7.823  0.00  0.00    +0.163 HD
ATOM      6  H   UNL     1     -12.584  -3.135  -8.415  0.00  0.00    +0.159 HD
ATOM      7  H   UNL     1     -12.127  -1.971  -7.229  0.00  0.00    +0.159 HD
ATOM      8  H   UNL     1     -12.714  -0.897 -11.136  0.00  0.00    +0.159 HD
ATOM      9  H   UNL     1     -12.915  -2.526 -10.624  0.00  0.00    +0.159 HD
ENDROOT
BRANCH   1  10
ATOM     10  C   UNL     1     -12.007   1.148  -9.752  0.00  0.00    +0.151 C 
BRANCH  10  11
ATOM     11  C   UNL     1     -12.557   2.391  -9.109  0.00  0.00    -0.028 A 
ATOM     12  C   UNL     1     -13.636   2.314  -8.217  0.00  0.00    +0.005 A 
ATOM     13  C   UNL     1     -11.999   3.649  -9.384  0.00  0.00    +0.005 A 
ATOM     14  C   UNL     1     -14.127   3.465  -7.596  0.00  0.00    +0.000 A 
ATOM     15  C   UNL     1     -12.493   4.796  -8.763  0.00  0.00    +0.000 A 
ATOM     16  C   UNL     1     -13.555   4.703  -7.867  0.00  0.00    +0.000 A 
ENDBRANCH  10  11
ENDBRANCH   1  10
TORSDOF 2
ENDMDL
MODEL 6
REMARK VINA RESULT:    -4.206     44.865     46.155
REMARK INTER + INTRA:          -4.835
REMARK INTER:                  -4.741
REMARK INTRA:                  -0.094
REMARK UNBOUND:                -0.137
REMARK  Name = 1550473
REMARK  2 active torsions:
REMARK  status: ('A' for Active; 'I' for Inactive)
REMARK    1  A    between atoms: N_1  and  C_4
REMARK    2  A    between atoms: C_4  and  C_5
REMARK                            x       y       z     vdW  Elec       q    Type
REMARK                         _______ _______ _______ _____ _____    ______ ____
ROOT
ATOM      1  N   UNL     1     -10.726  -3.263 -20.067  0.00  0.00    -0.354 N 
ATOM      2  N   UNL     1     -12.086  -2.006 -18.676  0.00  0.00    -0.372 N 
ATOM      3  N   UNL     1     -13.058  -3.310 -20.295  0.00  0.00    -0.372 N 
ATOM      4  C   UNL     1     -11.950  -2.869 -19.690  0.00  0.00    +0.166 C 
ATOM      5  H   UNL     1      -9.925  -2.869 -19.587  0.00  0.00    +0.163 HD
ATOM      6  H   UNL     1     -12.997  -1.693 -18.368  0.00  0.00    +0.159 HD
ATOM      7  H   UNL     1     -11.286  -1.649 -18.169  0.00  0.00    +0.159 HD
ATOM      8  H   UNL     1     -13.023  -3.958 -21.071  0.00  0.00    +0.159 HD
ATOM      9  H   UNL     1     -13.978  -2.999 -20.009  0.00  0.00    +0.159 HD
ENDROOT
BRANCH   1  10
ATOM     10  C   UNL     1     -10.471  -4.241 -21.123  0.00  0.00    +0.151 C 
BRANCH  10  11
ATOM     11  C   UNL     1      -9.007  -4.219 -21.469  0.00  0.00    -0.028 A 
ATOM     12  C   UNL     1      -8.566  -3.632 -22.663  0.00  0.00    +0.005 A 
ATOM     13  C   UNL     1      -8.056  -4.781 -20.603  0.00  0.00    +0.005 A 
ATOM     14  C   UNL     1      -7.204  -3.585 -22.971  0.00  0.00    +0.000 A 
ATOM     15  C   UNL     1      -6.697  -4.733 -20.914  0.00  0.00    +0.000 A 
ATOM     16  C   UNL     1      -6.271  -4.133 -22.096  0.00  0.00    +0.000 A 
ENDBRANCH  10  11
ENDBRANCH   1  10
TORSDOF 2
ENDMDL
MODEL 7
REMARK VINA RESULT:    -4.167     36.130     37.498
REMARK INTER + INTRA:          -4.792
REMARK INTER:                  -4.621
REMARK INTRA:                  -0.170
REMARK UNBOUND:                -0.137
REMARK  Name = 1550473
REMARK  2 active torsions:
REMARK  status: ('A' for Active; 'I' for Inactive)
REMARK    1  A    between atoms: N_1  and  C_4
REMARK    2  A    between atoms: C_4  and  C_5
REMARK                            x       y       z     vdW  Elec       q    Type
REMARK                         _______ _______ _______ _____ _____    ______ ____
ROOT
ATOM      1  N   UNL     1     -14.568 -15.630  -4.364  0.00  0.00    -0.354 N 
ATOM      2  N   UNL     1     -16.233 -15.966  -5.940  0.00  0.00    -0.372 N 
ATOM      3  N   UNL     1     -16.820 -15.250  -3.840  0.00  0.00    -0.372 N 
ATOM      4  C   UNL     1     -15.865 -15.612  -4.702  0.00  0.00    +0.166 C 
ATOM      5  H   UNL     1     -13.895 -15.943  -5.054  0.00  0.00    +0.163 HD
ATOM      6  H   UNL     1     -17.203 -15.959  -6.224  0.00  0.00    +0.159 HD
ATOM      7  H   UNL     1     -15.554 -16.235  -6.641  0.00  0.00    +0.159 HD
ATOM      8  H   UNL     1     -16.609 -14.977  -2.890  0.00  0.00    +0.159 HD
ATOM      9  H   UNL     1     -17.798 -15.248  -4.103  0.00  0.00    +0.159 HD
ENDROOT
BRANCH   1  10
ATOM     10  C   UNL     1     -14.057 -15.212  -3.060  0.00  0.00    +0.151 C 
BRANCH  10  11
ATOM     11  C   UNL     1     -13.304 -13.920  -3.218  0.00  0.00    -0.028 A 
ATOM     12  C   UNL     1     -13.987 -12.695  -3.233  0.00  0.00    +0.005 A 
ATOM     13  C   UNL     1     -11.907 -13.914  -3.349  0.00  0.00    +0.005 A 
ATOM     14  C   UNL     1     -13.284 -11.493  -3.350  0.00  0.00    +0.000 A 
ATOM     15  C   UNL     1     -11.209 -12.712  -3.466  0.00  0.00    +0.000 A 
ATOM     16  C   UNL     1     -11.898 -11.502  -3.464  0.00  0.00    +0.000 A 
ENDBRANCH  10  11
ENDBRANCH   1  10
TORSDOF 2
ENDMDL
MODEL 8
REMARK VINA RESULT:    -4.131     35.189     36.275
REMARK INTER + INTRA:          -4.751
REMARK INTER:                  -4.611
REMARK INTRA:                  -0.141
REMARK UNBOUND:                -0.137
REMARK  Name = 1550473
REMARK  2 active torsions:
REMARK  status: ('A' for Active; 'I' for Inactive)
REMARK    1  A    between atoms: N_1  and  C_4
REMARK    2  A    between atoms: C_4  and  C_5
REMARK                            x       y       z     vdW  Elec       q    Type
REMARK                         _______ _______ _______ _____ _____    ______ ____
ROOT
ATOM      1  N   UNL     1     -10.759 -15.776  -3.632  0.00  0.00    -0.354 N 
ATOM      2  N   UNL     1     -10.862 -18.057  -3.244  0.00  0.00    -0.372 N 
ATOM      3  N   UNL     1      -9.472 -16.773  -1.946  0.00  0.00    -0.372 N 
ATOM      4  C   UNL     1     -10.361 -16.853  -2.941  0.00  0.00    +0.166 C 
ATOM      5  H   UNL     1     -11.413 -15.908  -4.395  0.00  0.00    +0.163 HD
ATOM      6  H   UNL     1     -10.583 -18.887  -2.738  0.00  0.00    +0.159 HD
ATOM      7  H   UNL     1     -11.550 -18.180  -3.977  0.00  0.00    +0.159 HD
ATOM      8  H   UNL     1      -9.053 -15.894  -1.672  0.00  0.00    +0.159 HD
ATOM      9  H   UNL     1      -9.172 -17.594  -1.435  0.00  0.00    +0.159 HD
ENDROOT
BRANCH   1  10
ATOM     10  C   UNL     1     -10.316 -14.413  -3.347  0.00  0.00    +0.151 C 
BRANCH  10  11
ATOM     11  C   UNL     1     -11.508 -13.497  -3.356  0.00  0.00    -0.028 A 
ATOM     12  C   UNL     1     -11.337 -12.105  -3.343  0.00  0.00    +0.005 A 
ATOM     13  C   UNL     1     -12.812 -14.015  -3.383  0.00  0.00    +0.005 A 
ATOM     14  C   UNL     1     -12.444 -11.253  -3.382  0.00  0.00    +0.000 A 
ATOM     15  C   UNL     1     -13.915 -13.161  -3.421  0.00  0.00    +0.000 A 
ATOM     16  C   UNL     1     -13.730 -11.781  -3.423  0.00  0.00    +0.000 A 
ENDBRANCH  10  11
ENDBRANCH   1  10
TORSDOF 2
ENDMDL
MODEL 9
REMARK VINA RESULT:    -4.033     62.683     63.934
REMARK INTER + INTRA:          -4.642
REMARK INTER:                  -4.493
REMARK INTRA:                  -0.150
REMARK UNBOUND:                -0.137
REMARK  Name = 1550473
REMARK  2 active torsions:
REMARK  status: ('A' for Active; 'I' for Inactive)
REMARK    1  A    between atoms: N_1  and  C_4
REMARK    2  A    between atoms: C_4  and  C_5
REMARK                            x       y       z     vdW  Elec       q    Type
REMARK                         _______ _______ _______ _____ _____    ______ ____
ROOT
ATOM      1  N   UNL     1     -17.408 -20.979 -31.899  0.00  0.00    -0.354 N 
ATOM      2  N   UNL     1     -16.429 -18.926 -32.333  0.00  0.00    -0.372 N 
ATOM      3  N   UNL     1     -15.750 -20.755 -33.540  0.00  0.00    -0.372 N 
ATOM      4  C   UNL     1     -16.534 -20.235 -32.589  0.00  0.00    +0.166 C 
ATOM      5  H   UNL     1     -17.952 -20.531 -31.170  0.00  0.00    +0.163 HD
ATOM      6  H   UNL     1     -15.781 -18.338 -32.840  0.00  0.00    +0.159 HD
ATOM      7  H   UNL     1     -17.007 -18.471 -31.636  0.00  0.00    +0.159 HD
ATOM      8  H   UNL     1     -15.777 -21.738 -33.777  0.00  0.00    +0.159 HD
ATOM      9  H   UNL     1     -15.087 -20.186 -34.050  0.00  0.00    +0.159 HD
ENDROOT
BRANCH   1  10
ATOM     10  C   UNL     1     -17.638 -22.403 -32.137  0.00  0.00    +0.151 C 
BRANCH  10  11
ATOM     11  C   UNL     1     -17.282 -23.173 -30.895  0.00  0.00    -0.028 A 
ATOM     12  C   UNL     1     -17.123 -24.566 -30.942  0.00  0.00    +0.005 A 
ATOM     13  C   UNL     1     -17.097 -22.515 -29.670  0.00  0.00    +0.005 A 
ATOM     14  C   UNL     1     -16.763 -25.277 -29.795  0.00  0.00    +0.000 A 
ATOM     15  C   UNL     1     -16.739 -23.229 -28.527  0.00  0.00    +0.000 A 
ATOM     16  C   UNL     1     -16.569 -24.610 -28.590  0.00  0.00    +0.000 A 
ENDBRANCH  10  11
ENDBRANCH   1  10
TORSDOF 2
ENDMDL
