MODEL 1
REMARK VINA RESULT:    -5.859      0.000      0.000
REMARK INTER + INTRA:          -6.699
REMARK INTER:                  -6.544
REMARK INTRA:                  -0.154
REMARK UNBOUND:                -0.154
REMARK  Name = 1550473
REMARK  2 active torsions:
REMARK  status: ('A' for Active; 'I' for Inactive)
REMARK    1  A    between atoms: N_1  and  C_4
REMARK    2  A    between atoms: C_4  and  C_5
REMARK                            x       y       z     vdW  Elec       q    Type
REMARK                         _______ _______ _______ _____ _____    ______ ____
ROOT
ATOM      1  N   UNL     1       1.639   4.974  -3.834  0.00  0.00    -0.354 N 
ATOM      2  N   UNL     1       2.385   2.986  -2.909  0.00  0.00    -0.372 N 
ATOM      3  N   UNL     1       0.185   3.160  -3.535  0.00  0.00    -0.372 N 
ATOM      4  C   UNL     1       1.395   3.719  -3.432  0.00  0.00    +0.166 C 
ATOM      5  H   UNL     1       2.571   5.349  -3.701  0.00  0.00    +0.163 HD
ATOM      6  H   UNL     1       2.233   2.035  -2.600  0.00  0.00    +0.159 HD
ATOM      7  H   UNL     1       3.327   3.349  -2.819  0.00  0.00    +0.159 HD
ATOM      8  H   UNL     1      -0.606   3.662  -3.916  0.00  0.00    +0.159 HD
ATOM      9  H   UNL     1       0.010   2.214  -3.221  0.00  0.00    +0.159 HD
ENDROOT
BRANCH   1  10
ATOM     10  C   UNL     1       0.643   5.837  -4.466  0.00  0.00    +0.151 C 
BRANCH  10  11
ATOM     11  C   UNL     1      -0.049   6.648  -3.406  0.00  0.00    -0.028 A 
ATOM     12  C   UNL     1      -1.447   6.756  -3.391  0.00  0.00    +0.005 A 
ATOM     13  C   UNL     1       0.688   7.306  -2.409  0.00  0.00    +0.005 A 
ATOM     14  C   UNL     1      -2.092   7.484  -2.388  0.00  0.00    +0.000 A 
ATOM     15  C   UNL     1       0.041   8.033  -1.410  0.00  0.00    +0.000 A 
ATOM     16  C   UNL     1      -1.349   8.120  -1.399  0.00  0.00    +0.000 A 
ENDBRANCH  10  11
ENDBRANCH   1  10
TORSDOF 2
ENDMDL
MODEL 2
REMARK VINA RESULT:    -5.735      2.108      2.961
REMARK INTER + INTRA:          -6.560
REMARK INTER:                  -6.421
REMARK INTRA:                  -0.139
REMARK UNBOUND:                -0.154
REMARK  Name = 1550473
REMARK  2 active torsions:
REMARK  status: ('A' for Active; 'I' for Inactive)
REMARK    1  A    between atoms: N_1  and  C_4
REMARK    2  A    between atoms: C_4  and  C_5
REMARK                            x       y       z     vdW  Elec       q    Type
REMARK                         _______ _______ _______ _____ _____    ______ ____
ROOT
ATOM      1  N   UNL     1      -0.906   3.869  -2.270  0.00  0.00    -0.354 N 
ATOM      2  N   UNL     1      -1.176   3.131  -0.092  0.00  0.00    -0.372 N 
ATOM      3  N   UNL     1       0.948   3.397  -0.917  0.00  0.00    -0.372 N 
ATOM      4  C   UNL     1      -0.373   3.470  -1.108  0.00  0.00    +0.166 C 
ATOM      5  H   UNL     1      -1.915   3.874  -2.361  0.00  0.00    +0.163 HD
ATOM      6  H   UNL     1      -0.803   2.829   0.798  0.00  0.00    +0.159 HD
ATOM      7  H   UNL     1      -2.184   3.181  -0.170  0.00  0.00    +0.159 HD
ATOM      8  H   UNL     1       1.608   3.634  -1.646  0.00  0.00    +0.159 HD
ATOM      9  H   UNL     1       1.341   3.087  -0.037  0.00  0.00    +0.159 HD
ENDROOT
BRANCH   1  10
ATOM     10  C   UNL     1      -0.120   4.312  -3.421  0.00  0.00    +0.151 C 
BRANCH  10  11
ATOM     11  C   UNL     1      -0.687   5.606  -3.935  0.00  0.00    -0.028 A 
ATOM     12  C   UNL     1      -1.565   6.362  -3.145  0.00  0.00    +0.005 A 
ATOM     13  C   UNL     1      -0.346   6.085  -5.209  0.00  0.00    +0.005 A 
ATOM     14  C   UNL     1      -2.069   7.579  -3.610  0.00  0.00    +0.000 A 
ATOM     15  C   UNL     1      -0.852   7.300  -5.670  0.00  0.00    +0.000 A 
ATOM     16  C   UNL     1      -1.711   8.048  -4.869  0.00  0.00    +0.000 A 
ENDBRANCH  10  11
ENDBRANCH   1  10
TORSDOF 2
ENDMDL
MODEL 3
REMARK VINA RESULT:    -5.525      1.808      2.478
REMARK INTER + INTRA:          -6.325
REMARK INTER:                  -6.235
REMARK INTRA:                  -0.090
REMARK UNBOUND:                -0.154
REMARK  Name = 1550473
REMARK  2 active torsions:
REMARK  status: ('A' for Active; 'I' for Inactive)
REMARK    1  A    between atoms: N_1  and  C_4
REMARK    2  A    between atoms: C_4  and  C_5
REMARK                            x       y       z     vdW  Elec       q    Type
REMARK                         _______ _______ _______ _____ _____    ______ ____
ROOT
ATOM      1  N   UNL     1      -0.513   4.491  -3.455  0.00  0.00    -0.354 N 
ATOM      2  N   UNL     1       1.070   3.009  -4.265  0.00  0.00    -0.372 N 
ATOM      3  N   UNL     1       1.776   4.961  -3.288  0.00  0.00    -0.372 N 
ATOM      4  C   UNL     1       0.769   4.166  -3.663  0.00  0.00    +0.166 C 
ATOM      5  H   UNL     1      -1.231   3.859  -3.790  0.00  0.00    +0.163 HD
ATOM      6  H   UNL     1       2.029   2.734  -4.433  0.00  0.00    +0.159 HD
ATOM      7  H   UNL     1       0.352   2.357  -4.557  0.00  0.00    +0.159 HD
ATOM      8  H   UNL     1       1.616   5.851  -2.835  0.00  0.00    +0.159 HD
ATOM      9  H   UNL     1       2.742   4.709  -3.458  0.00  0.00    +0.159 HD
ENDROOT
BRANCH   1  10
ATOM     10  C   UNL     1      -0.947   5.703  -2.760  0.00  0.00    +0.151 C 
BRANCH  10  11
ATOM     11  C   UNL     1      -0.973   6.846  -3.737  0.00  0.00    -0.028 A 
ATOM     12  C   UNL     1      -1.546   6.684  -5.007  0.00  0.00    +0.005 A 
ATOM     13  C   UNL     1      -0.432   8.095  -3.396  0.00  0.00    +0.005 A 
ATOM     14  C   UNL     1      -1.598   7.755  -5.903  0.00  0.00    +0.000 A 
ATOM     15  C   UNL     1      -0.485   9.161  -4.294  0.00  0.00    +0.000 A 
ATOM     16  C   UNL     1      -1.071   8.991  -5.546  0.00  0.00    +0.000 A 
ENDBRANCH  10  11
ENDBRANCH   1  10
TORSDOF 2
ENDMDL
MODEL 4
REMARK VINA RESULT:    -5.287      1.616      2.252
REMARK INTER + INTRA:          -6.060
REMARK INTER:                  -5.954
REMARK INTRA:                  -0.106
REMARK UNBOUND:                -0.154
REMARK  Name = 1550473
REMARK  2 active torsions:
REMARK  status: ('A' for Active; 'I' for Inactive)
REMARK    1  A    between atoms: N_1  and  C_4
REMARK    2  A    between atoms: C_4  and  C_5
REMARK                            x       y       z     vdW  Elec       q    Type
REMARK                         _______ _______ _______ _____ _____    ______ ____
ROOT
ATOM      1  N   UNL     1       1.755   3.918  -3.672  0.00  0.00    -0.354 N 
ATOM      2  N   UNL     1       3.010   1.994  -3.969  0.00  0.00    -0.372 N 
ATOM      3  N   UNL     1       0.933   1.827  -3.007  0.00  0.00    -0.372 N 
ATOM      4  C   UNL     1       1.889   2.591  -3.546  0.00  0.00    +0.166 C 
ATOM      5  H   UNL     1       2.529   4.445  -4.061  0.00  0.00    +0.163 HD
ATOM      6  H   UNL     1       3.137   0.994  -3.890  0.00  0.00    +0.159 HD
ATOM      7  H   UNL     1       3.762   2.517  -4.399  0.00  0.00    +0.159 HD
ATOM      8  H   UNL     1       0.066   2.217  -2.663  0.00  0.00    +0.159 HD
ATOM      9  H   UNL     1       1.047   0.826  -2.909  0.00  0.00    +0.159 HD
ENDROOT
BRANCH   1  10
ATOM     10  C   UNL     1       0.554   4.659  -3.293  0.00  0.00    +0.151 C 
BRANCH  10  11
ATOM     11  C   UNL     1       0.850   6.133  -3.339  0.00  0.00    -0.028 A 
ATOM     12  C   UNL     1       0.494   6.964  -2.267  0.00  0.00    +0.005 A 
ATOM     13  C   UNL     1       1.492   6.702  -4.449  0.00  0.00    +0.005 A 
ATOM     14  C   UNL     1       0.796   8.328  -2.296  0.00  0.00    +0.000 A 
ATOM     15  C   UNL     1       1.791   8.065  -4.475  0.00  0.00    +0.000 A 
ATOM     16  C   UNL     1       1.445   8.876  -3.397  0.00  0.00    +0.000 A 
ENDBRANCH  10  11
ENDBRANCH   1  10
TORSDOF 2
ENDMDL
MODEL 5
REMARK VINA RESULT:    -5.271      1.749      2.459
REMARK INTER + INTRA:          -6.041
REMARK INTER:                  -5.903
REMARK INTRA:                  -0.138
REMARK UNBOUND:                -0.154
REMARK  Name = 1550473
REMARK  2 active torsions:
REMARK  status: ('A' for Active; 'I' for Inactive)
REMARK    1  A    between atoms: N_1  and  C_4
REMARK    2  A    between atoms: C_4  and  C_5
REMARK                            x       y       z     vdW  Elec       q    Type
REMARK                         _______ _______ _______ _____ _____    ______ ____
ROOT
ATOM      1  N   UNL     1       0.657   3.506  -2.376  0.00  0.00    -0.354 N 
ATOM      2  N   UNL     1      -0.384   1.771  -1.249  0.00  0.00    -0.372 N 
ATOM      3  N   UNL     1      -0.929   2.152  -3.445  0.00  0.00    -0.372 N 
ATOM      4  C   UNL     1      -0.213   2.488  -2.366  0.00  0.00    +0.166 C 
ATOM      5  H   UNL     1       1.147   3.728  -1.517  0.00  0.00    +0.163 HD
ATOM      6  H   UNL     1      -1.031   0.995  -1.213  0.00  0.00    +0.159 HD
ATOM      7  H   UNL     1       0.141   1.967  -0.405  0.00  0.00    +0.159 HD
ATOM      8  H   UNL     1      -0.851   2.657  -4.318  0.00  0.00    +0.159 HD
ATOM      9  H   UNL     1      -1.590   1.386  -3.425  0.00  0.00    +0.159 HD
ENDROOT
BRANCH   1  10
ATOM     10  C   UNL     1       0.957   4.315  -3.556  0.00  0.00    +0.151 C 
BRANCH  10  11
ATOM     11  C   UNL     1       1.048   5.760  -3.151  0.00  0.00    -0.028 A 
ATOM     12  C   UNL     1       1.713   6.688  -3.966  0.00  0.00    +0.005 A 
ATOM     13  C   UNL     1       0.467   6.209  -1.955  0.00  0.00    +0.005 A 
ATOM     14  C   UNL     1       1.772   8.036  -3.605  0.00  0.00    +0.000 A 
ATOM     15  C   UNL     1       0.529   7.556  -1.597  0.00  0.00    +0.000 A 
ATOM     16  C   UNL     1       1.179   8.469  -2.424  0.00  0.00    +0.000 A 
ENDBRANCH  10  11
ENDBRANCH   1  10
TORSDOF 2
ENDMDL
MODEL 6
REMARK VINA RESULT:    -5.081      3.339      4.117
REMARK INTER + INTRA:          -5.830
REMARK INTER:                  -5.728
REMARK INTRA:                  -0.102
REMARK UNBOUND:                -0.154
REMARK  Name = 1550473
REMARK  2 active torsions:
REMARK  status: ('A' for Active; 'I' for Inactive)
REMARK    1  A    between atoms: N_1  and  C_4
REMARK    2  A    between atoms: C_4  and  C_5
REMARK                            x       y       z     vdW  Elec       q    Type
REMARK                         _______ _______ _______ _____ _____    ______ ____
ROOT
ATOM      1  N   UNL     1       0.838   6.968  -4.179  0.00  0.00    -0.354 N 
ATOM      2  N   UNL     1       1.786   4.890  -3.794  0.00  0.00    -0.372 N 
ATOM      3  N   UNL     1       1.630   6.377  -2.054  0.00  0.00    -0.372 N 
ATOM      4  C   UNL     1       1.412   6.093  -3.342  0.00  0.00    +0.166 C 
ATOM      5  H   UNL     1       0.728   6.703  -5.151  0.00  0.00    +0.163 HD
ATOM      6  H   UNL     1       2.218   4.208  -3.186  0.00  0.00    +0.159 HD
ATOM      7  H   UNL     1       1.633   4.611  -4.756  0.00  0.00    +0.159 HD
ATOM      8  H   UNL     1       1.376   7.270  -1.652  0.00  0.00    +0.159 HD
ATOM      9  H   UNL     1       2.072   5.712  -1.432  0.00  0.00    +0.159 HD
ENDROOT
BRANCH   1  10
ATOM     10  C   UNL     1       0.345   8.284  -3.774  0.00  0.00    +0.151 C 
BRANCH  10  11
ATOM     11  C   UNL     1      -0.168   9.010  -4.987  0.00  0.00    -0.028 A 
ATOM     12  C   UNL     1       0.333  10.276  -5.323  0.00  0.00    +0.005 A 
ATOM     13  C   UNL     1      -1.151   8.435  -5.806  0.00  0.00    +0.005 A 
ATOM     14  C   UNL     1      -0.122  10.938  -6.466  0.00  0.00    +0.000 A 
ATOM     15  C   UNL     1      -1.603   9.100  -6.946  0.00  0.00    +0.000 A 
ATOM     16  C   UNL     1      -1.087  10.350  -7.277  0.00  0.00    +0.000 A 
ENDBRANCH  10  11
ENDBRANCH   1  10
TORSDOF 2
ENDMDL
MODEL 7
REMARK VINA RESULT:    -5.076      3.432      5.075
REMARK INTER + INTRA:          -5.824
REMARK INTER:                  -5.654
REMARK INTRA:                  -0.170
REMARK UNBOUND:                -0.154
REMARK  Name = 1550473
REMARK  2 active torsions:
REMARK  status: ('A' for Active; 'I' for Inactive)
REMARK    1  A    between atoms: N_1  and  C_4
REMARK    2  A    between atoms: C_4  and  C_5
REMARK                            x       y       z     vdW  Elec       q    Type
REMARK                         _______ _______ _______ _____ _____    ______ ____
ROOT
ATOM      1  N   UNL     1       1.917   3.888  -2.024  0.00  0.00    -0.354 N 
ATOM      2  N   UNL     1       1.393   5.923  -2.997  0.00  0.00    -0.372 N 
ATOM      3  N   UNL     1       0.921   3.991  -4.142  0.00  0.00    -0.372 N 
ATOM      4  C   UNL     1       1.413   4.586  -3.050  0.00  0.00    +0.166 C 
ATOM      5  H   UNL     1       2.303   4.399  -1.237  0.00  0.00    +0.163 HD
ATOM      6  H   UNL     1       1.015   6.476  -3.755  0.00  0.00    +0.159 HD
ATOM      7  H   UNL     1       1.736   6.429  -2.190  0.00  0.00    +0.159 HD
ATOM      8  H   UNL     1       0.913   2.986  -4.247  0.00  0.00    +0.159 HD
ATOM      9  H   UNL     1       0.550   4.528  -4.916  0.00  0.00    +0.159 HD
ENDROOT
BRANCH   1  10
ATOM     10  C   UNL     1       1.937   2.428  -1.959  0.00  0.00    +0.151 C 
BRANCH  10  11
ATOM     11  C   UNL     1       0.840   1.962  -1.042  0.00  0.00    -0.028 A 
ATOM     12  C   UNL     1      -0.057   0.966  -1.454  0.00  0.00    +0.005 A 
ATOM     13  C   UNL     1       0.696   2.508   0.243  0.00  0.00    +0.005 A 
ATOM     14  C   UNL     1      -1.058   0.511  -0.592  0.00  0.00    +0.000 A 
ATOM     15  C   UNL     1      -0.305   2.052   1.100  0.00  0.00    +0.000 A 
ATOM     16  C   UNL     1      -1.180   1.052   0.684  0.00  0.00    +0.000 A 
ENDBRANCH  10  11
ENDBRANCH   1  10
TORSDOF 2
ENDMDL
MODEL 8
REMARK VINA RESULT:    -5.034      2.957      5.427
REMARK INTER + INTRA:          -5.777
REMARK INTER:                  -5.648
REMARK INTRA:                  -0.129
REMARK UNBOUND:                -0.154
REMARK  Name = 1550473
REMARK  2 active torsions:
REMARK  status: ('A' for Active; 'I' for Inactive)
REMARK    1  A    between atoms: N_1  and  C_4
REMARK    2  A    between atoms: C_4  and  C_5
REMARK                            x       y       z     vdW  Elec       q    Type
REMARK                         _______ _______ _______ _____ _____    ______ ____
ROOT
ATOM      1  N   UNL     1       1.032   3.885  -4.116  0.00  0.00    -0.354 N 
ATOM      2  N   UNL     1       0.505   6.140  -4.187  0.00  0.00    -0.372 N 
ATOM      3  N   UNL     1       1.511   5.294  -2.306  0.00  0.00    -0.372 N 
ATOM      4  C   UNL     1       1.020   5.091  -3.533  0.00  0.00    +0.166 C 
ATOM      5  H   UNL     1       0.617   3.791  -5.036  0.00  0.00    +0.163 HD
ATOM      6  H   UNL     1       0.486   7.062  -3.774  0.00  0.00    +0.159 HD
ATOM      7  H   UNL     1       0.132   6.052  -5.124  0.00  0.00    +0.159 HD
ATOM      8  H   UNL     1       1.909   4.544  -1.757  0.00  0.00    +0.159 HD
ATOM      9  H   UNL     1       1.490   6.208  -1.871  0.00  0.00    +0.159 HD
ENDROOT
BRANCH   1  10
ATOM     10  C   UNL     1       1.618   2.691  -3.512  0.00  0.00    +0.151 C 
BRANCH  10  11
ATOM     11  C   UNL     1       0.525   1.700  -3.221  0.00  0.00    -0.028 A 
ATOM     12  C   UNL     1      -0.599   2.079  -2.473  0.00  0.00    +0.005 A 
ATOM     13  C   UNL     1       0.605   0.382  -3.696  0.00  0.00    +0.005 A 
ATOM     14  C   UNL     1      -1.629   1.167  -2.229  0.00  0.00    +0.000 A 
ATOM     15  C   UNL     1      -0.425  -0.526  -3.449  0.00  0.00    +0.000 A 
ATOM     16  C   UNL     1      -1.543  -0.132  -2.718  0.00  0.00    +0.000 A 
ENDBRANCH  10  11
ENDBRANCH   1  10
TORSDOF 2
ENDMDL
MODEL 9
REMARK VINA RESULT:    -4.841      6.054      7.033
REMARK INTER + INTRA:          -5.562
REMARK INTER:                  -5.386
REMARK INTRA:                  -0.176
REMARK UNBOUND:                -0.154
REMARK  Name = 1550473
REMARK  2 active torsions:
REMARK  status: ('A' for Active; 'I' for Inactive)
REMARK    1  A    between atoms: N_1  and  C_4
REMARK    2  A    between atoms: C_4  and  C_5
REMARK                            x       y       z     vdW  Elec       q    Type
REMARK                         _______ _______ _______ _____ _____    ______ ____
ROOT
ATOM      1  N   UNL     1       1.790  -1.888   0.027  0.00  0.00    -0.354 N 
ATOM      2  N   UNL     1       2.886  -2.993   1.741  0.00  0.00    -0.372 N 
ATOM      3  N   UNL     1       4.014  -1.379   0.563  0.00  0.00    -0.372 N 
ATOM      4  C   UNL     1       2.891  -2.078   0.765  0.00  0.00    +0.166 C 
ATOM      5  H   UNL     1       0.981  -2.471   0.210  0.00  0.00    +0.163 HD
ATOM      6  H   UNL     1       3.702  -3.157   2.317  0.00  0.00    +0.159 HD
ATOM      7  H   UNL     1       2.062  -3.543   1.952  0.00  0.00    +0.159 HD
ATOM      8  H   UNL     1       4.084  -0.678  -0.162  0.00  0.00    +0.159 HD
ATOM      9  H   UNL     1       4.844  -1.536   1.121  0.00  0.00    +0.159 HD
ENDROOT
BRANCH   1  10
ATOM     10  C   UNL     1       1.674  -0.879  -1.025  0.00  0.00    +0.151 C 
BRANCH  10  11
ATOM     11  C   UNL     1       0.802   0.244  -0.534  0.00  0.00    -0.028 A 
ATOM     12  C   UNL     1      -0.587   0.200  -0.718  0.00  0.00    +0.005 A 
ATOM     13  C   UNL     1       1.360   1.353   0.121  0.00  0.00    +0.005 A 
ATOM     14  C   UNL     1      -1.400   1.229  -0.236  0.00  0.00    +0.000 A 
ATOM     15  C   UNL     1       0.545   2.379   0.601  0.00  0.00    +0.000 A 
ATOM     16  C   UNL     1      -0.835   2.315   0.424  0.00  0.00    +0.000 A 
ENDBRANCH  10  11
ENDBRANCH   1  10
TORSDOF 2
ENDMDL
