MODEL 1
REMARK VINA RESULT:    -5.437      0.000      0.000
REMARK INTER + INTRA:          -6.252
REMARK INTER:                  -6.073
REMARK INTRA:                  -0.179
REMARK UNBOUND:                -0.179
REMARK  Name = 1550473
REMARK  2 active torsions:
REMARK  status: ('A' for Active; 'I' for Inactive)
REMARK    1  A    between atoms: N_1  and  C_4
REMARK    2  A    between atoms: C_4  and  C_5
REMARK                            x       y       z     vdW  Elec       q    Type
REMARK                         _______ _______ _______ _____ _____    ______ ____
ROOT
ATOM      1  N   UNL     1       9.127   9.479  27.257  0.00  0.00    -0.354 N 
ATOM      2  N   UNL     1       8.625   7.623  25.966  0.00  0.00    -0.372 N 
ATOM      3  N   UNL     1       8.413   9.710  25.037  0.00  0.00    -0.372 N 
ATOM      4  C   UNL     1       8.724   8.951  26.093  0.00  0.00    +0.166 C 
ATOM      5  H   UNL     1       9.319   8.851  28.029  0.00  0.00    +0.163 HD
ATOM      6  H   UNL     1       8.327   7.196  25.099  0.00  0.00    +0.159 HD
ATOM      7  H   UNL     1       8.862   6.996  26.725  0.00  0.00    +0.159 HD
ATOM      8  H   UNL     1       8.461  10.719  25.070  0.00  0.00    +0.159 HD
ATOM      9  H   UNL     1       8.101   9.302  24.165  0.00  0.00    +0.159 HD
ENDROOT
BRANCH   1  10
ATOM     10  C   UNL     1       9.320  10.910  27.483  0.00  0.00    +0.151 C 
BRANCH  10  11
ATOM     11  C   UNL     1      10.792  11.216  27.473  0.00  0.00    -0.028 A 
ATOM     12  C   UNL     1      11.402  11.746  26.327  0.00  0.00    +0.005 A 
ATOM     13  C   UNL     1      11.582  10.982  28.609  0.00  0.00    +0.005 A 
ATOM     14  C   UNL     1      12.763  12.058  26.327  0.00  0.00    +0.000 A 
ATOM     15  C   UNL     1      12.942  11.294  28.605  0.00  0.00    +0.000 A 
ATOM     16  C   UNL     1      13.531  11.834  27.465  0.00  0.00    +0.000 A 
ENDBRANCH  10  11
ENDBRANCH   1  10
TORSDOF 2
ENDMDL
MODEL 2
REMARK VINA RESULT:    -4.992     28.027     30.405
REMARK INTER + INTRA:          -5.755
REMARK INTER:                  -5.609
REMARK INTRA:                  -0.146
REMARK UNBOUND:                -0.179
REMARK  Name = 1550473
REMARK  2 active torsions:
REMARK  status: ('A' for Active; 'I' for Inactive)
REMARK    1  A    between atoms: N_1  and  C_4
REMARK    2  A    between atoms: C_4  and  C_5
REMARK                            x       y       z     vdW  Elec       q    Type
REMARK                         _______ _______ _______ _____ _____    ______ ____
ROOT
ATOM      1  N   UNL     1      -2.439   4.561   2.545  0.00  0.00    -0.354 N 
ATOM      2  N   UNL     1      -0.424   3.628   3.206  0.00  0.00    -0.372 N 
ATOM      3  N   UNL     1      -0.399   5.438   1.796  0.00  0.00    -0.372 N 
ATOM      4  C   UNL     1      -1.099   4.550   2.509  0.00  0.00    +0.166 C 
ATOM      5  H   UNL     1      -2.912   3.842   3.080  0.00  0.00    +0.163 HD
ATOM      6  H   UNL     1       0.586   3.597   3.201  0.00  0.00    +0.159 HD
ATOM      7  H   UNL     1      -0.899   2.939   3.777  0.00  0.00    +0.159 HD
ATOM      8  H   UNL     1      -0.848   6.156   1.244  0.00  0.00    +0.159 HD
ATOM      9  H   UNL     1       0.613   5.417   1.770  0.00  0.00    +0.159 HD
ENDROOT
BRANCH   1  10
ATOM     10  C   UNL     1      -3.267   5.556   1.866  0.00  0.00    +0.151 C 
BRANCH  10  11
ATOM     11  C   UNL     1      -4.260   4.849   0.984  0.00  0.00    -0.028 A 
ATOM     12  C   UNL     1      -5.105   5.580   0.136  0.00  0.00    +0.005 A 
ATOM     13  C   UNL     1      -4.357   3.449   0.989  0.00  0.00    +0.005 A 
ATOM     14  C   UNL     1      -6.007   4.923  -0.705  0.00  0.00    +0.000 A 
ATOM     15  C   UNL     1      -5.259   2.797   0.148  0.00  0.00    +0.000 A 
ATOM     16  C   UNL     1      -6.082   3.534  -0.700  0.00  0.00    +0.000 A 
ENDBRANCH  10  11
ENDBRANCH   1  10
TORSDOF 2
ENDMDL
MODEL 3
REMARK VINA RESULT:    -4.820     23.109     24.775
REMARK INTER + INTRA:          -5.563
REMARK INTER:                  -5.404
REMARK INTRA:                  -0.159
REMARK UNBOUND:                -0.179
REMARK  Name = 1550473
REMARK  2 active torsions:
REMARK  status: ('A' for Active; 'I' for Inactive)
REMARK    1  A    between atoms: N_1  and  C_4
REMARK    2  A    between atoms: C_4  and  C_5
REMARK                            x       y       z     vdW  Elec       q    Type
REMARK                         _______ _______ _______ _____ _____    ______ ____
ROOT
ATOM      1  N   UNL     1      -3.015  -1.084  10.614  0.00  0.00    -0.354 N 
ATOM      2  N   UNL     1      -2.655  -0.132  12.694  0.00  0.00    -0.372 N 
ATOM      3  N   UNL     1      -1.875  -2.253  12.295  0.00  0.00    -0.372 N 
ATOM      4  C   UNL     1      -2.516  -1.165  11.854  0.00  0.00    +0.166 C 
ATOM      5  H   UNL     1      -3.517  -0.244  10.351  0.00  0.00    +0.163 HD
ATOM      6  H   UNL     1      -2.286  -0.163  13.635  0.00  0.00    +0.159 HD
ATOM      7  H   UNL     1      -3.117   0.724  12.414  0.00  0.00    +0.159 HD
ATOM      8  H   UNL     1      -1.742  -3.069  11.712  0.00  0.00    +0.159 HD
ATOM      9  H   UNL     1      -1.509  -2.307  13.237  0.00  0.00    +0.159 HD
ENDROOT
BRANCH   1  10
ATOM     10  C   UNL     1      -2.871  -2.132   9.604  0.00  0.00    +0.151 C 
BRANCH  10  11
ATOM     11  C   UNL     1      -1.808  -1.724   8.622  0.00  0.00    -0.028 A 
ATOM     12  C   UNL     1      -1.028  -2.693   7.974  0.00  0.00    +0.005 A 
ATOM     13  C   UNL     1      -1.580  -0.370   8.330  0.00  0.00    +0.005 A 
ATOM     14  C   UNL     1      -0.062  -2.316   7.038  0.00  0.00    +0.000 A 
ATOM     15  C   UNL     1      -0.614   0.002   7.396  0.00  0.00    +0.000 A 
ATOM     16  C   UNL     1       0.144  -0.971   6.748  0.00  0.00    +0.000 A 
ENDBRANCH  10  11
ENDBRANCH   1  10
TORSDOF 2
ENDMDL
MODEL 4
REMARK VINA RESULT:    -4.693     23.023     24.038
REMARK INTER + INTRA:          -5.421
REMARK INTER:                  -5.308
REMARK INTRA:                  -0.113
REMARK UNBOUND:                -0.179
REMARK  Name = 1550473
REMARK  2 active torsions:
REMARK  status: ('A' for Active; 'I' for Inactive)
REMARK    1  A    between atoms: N_1  and  C_4
REMARK    2  A    between atoms: C_4  and  C_5
REMARK                            x       y       z     vdW  Elec       q    Type
REMARK                         _______ _______ _______ _____ _____    ______ ____
ROOT
ATOM      1  N   UNL     1      -2.972  -1.413   9.595  0.00  0.00    -0.354 N 
ATOM      2  N   UNL     1      -3.856  -0.810   7.540  0.00  0.00    -0.372 N 
ATOM      3  N   UNL     1      -1.606  -0.537   7.904  0.00  0.00    -0.372 N 
ATOM      4  C   UNL     1      -2.803  -0.923   8.359  0.00  0.00    +0.166 C 
ATOM      5  H   UNL     1      -3.910  -1.659   9.890  0.00  0.00    +0.163 HD
ATOM      6  H   UNL     1      -3.758  -0.447   6.601  0.00  0.00    +0.159 HD
ATOM      7  H   UNL     1      -4.784  -1.100   7.822  0.00  0.00    +0.159 HD
ATOM      8  H   UNL     1      -0.773  -0.592   8.474  0.00  0.00    +0.159 HD
ATOM      9  H   UNL     1      -1.490  -0.161   6.971  0.00  0.00    +0.159 HD
ENDROOT
BRANCH   1  10
ATOM     10  C   UNL     1      -1.883  -1.627  10.546  0.00  0.00    +0.151 C 
BRANCH  10  11
ATOM     11  C   UNL     1      -2.418  -1.486  11.944  0.00  0.00    -0.028 A 
ATOM     12  C   UNL     1      -2.888  -0.248  12.405  0.00  0.00    +0.005 A 
ATOM     13  C   UNL     1      -2.461  -2.589  12.811  0.00  0.00    +0.005 A 
ATOM     14  C   UNL     1      -3.413  -0.124  13.694  0.00  0.00    +0.000 A 
ATOM     15  C   UNL     1      -2.985  -2.460  14.098  0.00  0.00    +0.000 A 
ATOM     16  C   UNL     1      -3.463  -1.229  14.538  0.00  0.00    +0.000 A 
ENDBRANCH  10  11
ENDBRANCH   1  10
TORSDOF 2
ENDMDL
MODEL 5
REMARK VINA RESULT:    -4.497     20.027     21.077
REMARK INTER + INTRA:          -5.202
REMARK INTER:                  -5.057
REMARK INTRA:                  -0.144
REMARK UNBOUND:                -0.179
REMARK  Name = 1550473
REMARK  2 active torsions:
REMARK  status: ('A' for Active; 'I' for Inactive)
REMARK    1  A    between atoms: N_1  and  C_4
REMARK    2  A    between atoms: C_4  and  C_5
REMARK                            x       y       z     vdW  Elec       q    Type
REMARK                         _______ _______ _______ _____ _____    ______ ____
ROOT
ATOM      1  N   UNL     1      10.225  14.409   6.095  0.00  0.00    -0.354 N 
ATOM      2  N   UNL     1      12.450  14.457   6.737  0.00  0.00    -0.372 N 
ATOM      3  N   UNL     1      11.540  16.317   5.747  0.00  0.00    -0.372 N 
ATOM      4  C   UNL     1      11.390  15.063   6.188  0.00  0.00    +0.166 C 
ATOM      5  H   UNL     1      10.185  13.449   6.420  0.00  0.00    +0.163 HD
ATOM      6  H   UNL     1      13.341  14.927   6.823  0.00  0.00    +0.159 HD
ATOM      7  H   UNL     1      12.394  13.515   7.103  0.00  0.00    +0.159 HD
ATOM      8  H   UNL     1      10.781  16.828   5.317  0.00  0.00    +0.159 HD
ATOM      9  H   UNL     1      12.427  16.800   5.815  0.00  0.00    +0.159 HD
ENDROOT
BRANCH   1  10
ATOM     10  C   UNL     1       8.997  14.997   5.563  0.00  0.00    +0.151 C 
BRANCH  10  11
ATOM     11  C   UNL     1       7.957  15.029   6.649  0.00  0.00    -0.028 A 
ATOM     12  C   UNL     1       7.373  13.840   7.111  0.00  0.00    +0.005 A 
ATOM     13  C   UNL     1       7.556  16.244   7.224  0.00  0.00    +0.005 A 
ATOM     14  C   UNL     1       6.429  13.867   8.141  0.00  0.00    +0.000 A 
ATOM     15  C   UNL     1       6.612  16.267   8.251  0.00  0.00    +0.000 A 
ATOM     16  C   UNL     1       6.051  15.078   8.711  0.00  0.00    +0.000 A 
ENDBRANCH  10  11
ENDBRANCH   1  10
TORSDOF 2
ENDMDL
MODEL 6
REMARK VINA RESULT:    -4.418     29.383     31.782
REMARK INTER + INTRA:          -5.114
REMARK INTER:                  -4.964
REMARK INTRA:                  -0.150
REMARK UNBOUND:                -0.179
REMARK  Name = 1550473
REMARK  2 active torsions:
REMARK  status: ('A' for Active; 'I' for Inactive)
REMARK    1  A    between atoms: N_1  and  C_4
REMARK    2  A    between atoms: C_4  and  C_5
REMARK                            x       y       z     vdW  Elec       q    Type
REMARK                         _______ _______ _______ _____ _____    ______ ____
ROOT
ATOM      1  N   UNL     1      -3.384   4.342   1.603  0.00  0.00    -0.354 N 
ATOM      2  N   UNL     1      -1.336   5.399   1.836  0.00  0.00    -0.372 N 
ATOM      3  N   UNL     1      -1.381   3.199   1.186  0.00  0.00    -0.372 N 
ATOM      4  C   UNL     1      -2.046   4.304   1.540  0.00  0.00    +0.166 C 
ATOM      5  H   UNL     1      -3.827   5.201   1.907  0.00  0.00    +0.163 HD
ATOM      6  H   UNL     1      -0.326   5.401   1.794  0.00  0.00    +0.159 HD
ATOM      7  H   UNL     1      -1.783   6.270   2.095  0.00  0.00    +0.159 HD
ATOM      8  H   UNL     1      -1.858   2.337   0.956  0.00  0.00    +0.159 HD
ATOM      9  H   UNL     1      -0.369   3.178   1.150  0.00  0.00    +0.159 HD
ENDROOT
BRANCH   1  10
ATOM     10  C   UNL     1      -4.251   3.220   1.248  0.00  0.00    +0.151 C 
BRANCH  10  11
ATOM     11  C   UNL     1      -5.092   3.605   0.062  0.00  0.00    -0.028 A 
ATOM     12  C   UNL     1      -5.240   4.952  -0.298  0.00  0.00    +0.005 A 
ATOM     13  C   UNL     1      -5.738   2.627  -0.709  0.00  0.00    +0.005 A 
ATOM     14  C   UNL     1      -5.996   5.308  -1.418  0.00  0.00    +0.000 A 
ATOM     15  C   UNL     1      -6.493   2.986  -1.825  0.00  0.00    +0.000 A 
ATOM     16  C   UNL     1      -6.620   4.327  -2.181  0.00  0.00    +0.000 A 
ENDBRANCH  10  11
ENDBRANCH   1  10
TORSDOF 2
ENDMDL
MODEL 7
REMARK VINA RESULT:    -4.342     46.807     47.748
REMARK INTER + INTRA:          -5.029
REMARK INTER:                  -4.908
REMARK INTRA:                  -0.120
REMARK UNBOUND:                -0.179
REMARK  Name = 1550473
REMARK  2 active torsions:
REMARK  status: ('A' for Active; 'I' for Inactive)
REMARK    1  A    between atoms: N_1  and  C_4
REMARK    2  A    between atoms: C_4  and  C_5
REMARK                            x       y       z     vdW  Elec       q    Type
REMARK                         _______ _______ _______ _____ _____    ______ ____
ROOT
ATOM      1  N   UNL     1       4.755  -2.166 -19.521  0.00  0.00    -0.354 N 
ATOM      2  N   UNL     1       4.387  -4.213 -20.541  0.00  0.00    -0.372 N 
ATOM      3  N   UNL     1       2.603  -2.814 -20.183  0.00  0.00    -0.372 N 
ATOM      4  C   UNL     1       3.915  -3.050 -20.075  0.00  0.00    +0.166 C 
ATOM      5  H   UNL     1       5.734  -2.418 -19.441  0.00  0.00    +0.163 HD
ATOM      6  H   UNL     1       3.777  -4.898 -20.967  0.00  0.00    +0.159 HD
ATOM      7  H   UNL     1       5.372  -4.442 -20.502  0.00  0.00    +0.159 HD
ATOM      8  H   UNL     1       2.183  -1.959 -19.846  0.00  0.00    +0.159 HD
ATOM      9  H   UNL     1       1.975  -3.493 -20.596  0.00  0.00    +0.159 HD
ENDROOT
BRANCH   1  10
ATOM     10  C   UNL     1       4.351  -0.849 -19.031  0.00  0.00    +0.151 C 
BRANCH  10  11
ATOM     11  C   UNL     1       5.581  -0.028 -18.761  0.00  0.00    -0.028 A 
ATOM     12  C   UNL     1       5.491   1.365 -18.624  0.00  0.00    +0.005 A 
ATOM     13  C   UNL     1       6.839  -0.636 -18.634  0.00  0.00    +0.005 A 
ATOM     14  C   UNL     1       6.628   2.126 -18.343  0.00  0.00    +0.000 A 
ATOM     15  C   UNL     1       7.972   0.127 -18.353  0.00  0.00    +0.000 A 
ATOM     16  C   UNL     1       7.866   1.507 -18.206  0.00  0.00    +0.000 A 
ENDBRANCH  10  11
ENDBRANCH   1  10
TORSDOF 2
ENDMDL
MODEL 8
REMARK VINA RESULT:    -4.331      3.494      4.981
REMARK INTER + INTRA:          -5.017
REMARK INTER:                  -4.869
REMARK INTRA:                  -0.148
REMARK UNBOUND:                -0.179
REMARK  Name = 1550473
REMARK  2 active torsions:
REMARK  status: ('A' for Active; 'I' for Inactive)
REMARK    1  A    between atoms: N_1  and  C_4
REMARK    2  A    between atoms: C_4  and  C_5
REMARK                            x       y       z     vdW  Elec       q    Type
REMARK                         _______ _______ _______ _____ _____    ______ ____
ROOT
ATOM      1  N   UNL     1       8.775  11.911  29.043  0.00  0.00    -0.354 N 
ATOM      2  N   UNL     1       9.978  12.450  30.947  0.00  0.00    -0.372 N 
ATOM      3  N   UNL     1      10.652  13.310  28.929  0.00  0.00    -0.372 N 
ATOM      4  C   UNL     1       9.795  12.555  29.625  0.00  0.00    +0.166 C 
ATOM      5  H   UNL     1       8.179  11.330  29.622  0.00  0.00    +0.163 HD
ATOM      6  H   UNL     1      10.738  12.927  31.415  0.00  0.00    +0.159 HD
ATOM      7  H   UNL     1       9.354  11.906  31.530  0.00  0.00    +0.159 HD
ATOM      8  H   UNL     1      10.572  13.425  27.927  0.00  0.00    +0.159 HD
ATOM      9  H   UNL     1      11.425  13.785  29.377  0.00  0.00    +0.159 HD
ENDROOT
BRANCH   1  10
ATOM     10  C   UNL     1       8.456  12.002  27.620  0.00  0.00    +0.151 C 
BRANCH  10  11
ATOM     11  C   UNL     1       8.499  10.625  27.017  0.00  0.00    -0.028 A 
ATOM     12  C   UNL     1       8.597   9.492  27.838  0.00  0.00    +0.005 A 
ATOM     13  C   UNL     1       8.438  10.446  25.627  0.00  0.00    +0.005 A 
ATOM     14  C   UNL     1       8.607   8.211  27.281  0.00  0.00    +0.000 A 
ATOM     15  C   UNL     1       8.449   9.165  25.074  0.00  0.00    +0.000 A 
ATOM     16  C   UNL     1       8.531   8.048  25.902  0.00  0.00    +0.000 A 
ENDBRANCH  10  11
ENDBRANCH   1  10
TORSDOF 2
ENDMDL
MODEL 9
REMARK VINA RESULT:    -4.236     23.599     24.530
REMARK INTER + INTRA:          -4.911
REMARK INTER:                  -4.792
REMARK INTRA:                  -0.119
REMARK UNBOUND:                -0.179
REMARK  Name = 1550473
REMARK  2 active torsions:
REMARK  status: ('A' for Active; 'I' for Inactive)
REMARK    1  A    between atoms: N_1  and  C_4
REMARK    2  A    between atoms: C_4  and  C_5
REMARK                            x       y       z     vdW  Elec       q    Type
REMARK                         _______ _______ _______ _____ _____    ______ ____
ROOT
ATOM      1  N   UNL     1      -1.906  -2.296  11.346  0.00  0.00    -0.354 N 
ATOM      2  N   UNL     1      -2.095  -3.807  13.091  0.00  0.00    -0.372 N 
ATOM      3  N   UNL     1      -3.347  -1.886  13.148  0.00  0.00    -0.372 N 
ATOM      4  C   UNL     1      -2.450  -2.651  12.518  0.00  0.00    +0.166 C 
ATOM      5  H   UNL     1      -1.209  -2.906  10.935  0.00  0.00    +0.163 HD
ATOM      6  H   UNL     1      -2.490  -4.103  13.973  0.00  0.00    +0.159 HD
ATOM      7  H   UNL     1      -1.432  -4.437  12.655  0.00  0.00    +0.159 HD
ATOM      8  H   UNL     1      -3.652  -0.998  12.772  0.00  0.00    +0.159 HD
ATOM      9  H   UNL     1      -3.745  -2.159  14.038  0.00  0.00    +0.159 HD
ENDROOT
BRANCH   1  10
ATOM     10  C   UNL     1      -2.264  -1.084  10.613  0.00  0.00    +0.151 C 
BRANCH  10  11
ATOM     11  C   UNL     1      -1.589  -1.105   9.269  0.00  0.00    -0.028 A 
ATOM     12  C   UNL     1      -1.259   0.094   8.619  0.00  0.00    +0.005 A 
ATOM     13  C   UNL     1      -1.270  -2.320   8.644  0.00  0.00    +0.005 A 
ATOM     14  C   UNL     1      -0.605   0.075   7.385  0.00  0.00    +0.000 A 
ATOM     15  C   UNL     1      -0.617  -2.334   7.411  0.00  0.00    +0.000 A 
ATOM     16  C   UNL     1      -0.283  -1.137   6.784  0.00  0.00    +0.000 A 
ENDBRANCH  10  11
ENDBRANCH   1  10
TORSDOF 2
ENDMDL
