MODEL 1
REMARK VINA RESULT:    -4.511      0.000      0.000
REMARK INTER + INTRA:          -5.204
REMARK INTER:                  -5.038
REMARK INTRA:                  -0.165
REMARK UNBOUND:                -0.165
REMARK  Name = 1550473
REMARK  2 active torsions:
REMARK  status: ('A' for Active; 'I' for Inactive)
REMARK    1  A    between atoms: N_1  and  C_4
REMARK    2  A    between atoms: C_4  and  C_5
REMARK                            x       y       z     vdW  Elec       q    Type
REMARK                         _______ _______ _______ _____ _____    ______ ____
ROOT
ATOM      1  N   UNL     1       4.422   4.334  -0.629  0.00  0.00    -0.354 N 
ATOM      2  N   UNL     1       6.687   3.922  -0.374  0.00  0.00    -0.372 N 
ATOM      3  N   UNL     1       6.001   6.039  -0.933  0.00  0.00    -0.372 N 
ATOM      4  C   UNL     1       5.689   4.770  -0.648  0.00  0.00    +0.166 C 
ATOM      5  H   UNL     1       4.254   3.354  -0.435  0.00  0.00    +0.163 HD
ATOM      6  H   UNL     1       7.652   4.223  -0.377  0.00  0.00    +0.159 HD
ATOM      7  H   UNL     1       6.513   2.953  -0.135  0.00  0.00    +0.159 HD
ATOM      8  H   UNL     1       5.295   6.728  -1.155  0.00  0.00    +0.159 HD
ATOM      9  H   UNL     1       6.962   6.357  -0.953  0.00  0.00    +0.159 HD
ENDROOT
BRANCH   1  10
ATOM     10  C   UNL     1       3.259   5.189  -0.861  0.00  0.00    +0.151 C 
BRANCH  10  11
ATOM     11  C   UNL     1       2.481   5.316   0.420  0.00  0.00    -0.028 A 
ATOM     12  C   UNL     1       1.530   4.348   0.774  0.00  0.00    +0.005 A 
ATOM     13  C   UNL     1       2.693   6.400   1.286  0.00  0.00    +0.005 A 
ATOM     14  C   UNL     1       0.828   4.450   1.977  0.00  0.00    +0.000 A 
ATOM     15  C   UNL     1       1.990   6.498   2.486  0.00  0.00    +0.000 A 
ATOM     16  C   UNL     1       1.059   5.522   2.832  0.00  0.00    +0.000 A 
ENDBRANCH  10  11
ENDBRANCH   1  10
TORSDOF 2
ENDMDL
MODEL 2
REMARK VINA RESULT:    -4.402     26.165     27.637
REMARK INTER + INTRA:          -5.082
REMARK INTER:                  -4.966
REMARK INTRA:                  -0.116
REMARK UNBOUND:                -0.165
REMARK  Name = 1550473
REMARK  2 active torsions:
REMARK  status: ('A' for Active; 'I' for Inactive)
REMARK    1  A    between atoms: N_1  and  C_4
REMARK    2  A    between atoms: C_4  and  C_5
REMARK                            x       y       z     vdW  Elec       q    Type
REMARK                         _______ _______ _______ _____ _____    ______ ____
ROOT
ATOM      1  N   UNL     1      26.022  -0.435  13.648  0.00  0.00    -0.354 N 
ATOM      2  N   UNL     1      23.804  -1.087  13.787  0.00  0.00    -0.372 N 
ATOM      3  N   UNL     1      25.008  -0.830  15.724  0.00  0.00    -0.372 N 
ATOM      4  C   UNL     1      24.960  -0.780  14.388  0.00  0.00    +0.166 C 
ATOM      5  H   UNL     1      25.929  -0.445  12.639  0.00  0.00    +0.163 HD
ATOM      6  H   UNL     1      22.985  -1.347  14.320  0.00  0.00    +0.159 HD
ATOM      7  H   UNL     1      23.701  -1.052  12.780  0.00  0.00    +0.159 HD
ATOM      8  H   UNL     1      25.852  -0.616  16.237  0.00  0.00    +0.159 HD
ATOM      9  H   UNL     1      24.202  -1.100  16.273  0.00  0.00    +0.159 HD
ENDROOT
BRANCH   1  10
ATOM     10  C   UNL     1      27.311  -0.031  14.206  0.00  0.00    +0.151 C 
BRANCH  10  11
ATOM     11  C   UNL     1      27.829   1.154  13.439  0.00  0.00    -0.028 A 
ATOM     12  C   UNL     1      27.896   1.121  12.038  0.00  0.00    +0.005 A 
ATOM     13  C   UNL     1      28.250   2.315  14.106  0.00  0.00    +0.005 A 
ATOM     14  C   UNL     1      28.349   2.232  11.323  0.00  0.00    +0.000 A 
ATOM     15  C   UNL     1      28.703   3.422  13.388  0.00  0.00    +0.000 A 
ATOM     16  C   UNL     1      28.749   3.381  11.997  0.00  0.00    +0.000 A 
ENDBRANCH  10  11
ENDBRANCH   1  10
TORSDOF 2
ENDMDL
MODEL 3
REMARK VINA RESULT:    -4.384     20.299     21.115
REMARK INTER + INTRA:          -5.062
REMARK INTER:                  -4.938
REMARK INTRA:                  -0.123
REMARK UNBOUND:                -0.165
REMARK  Name = 1550473
REMARK  2 active torsions:
REMARK  status: ('A' for Active; 'I' for Inactive)
REMARK    1  A    between atoms: N_1  and  C_4
REMARK    2  A    between atoms: C_4  and  C_5
REMARK                            x       y       z     vdW  Elec       q    Type
REMARK                         _______ _______ _______ _____ _____    ______ ____
ROOT
ATOM      1  N   UNL     1      19.805  11.156  13.933  0.00  0.00    -0.354 N 
ATOM      2  N   UNL     1      21.640  12.521  13.569  0.00  0.00    -0.372 N 
ATOM      3  N   UNL     1      21.348  10.677  12.235  0.00  0.00    -0.372 N 
ATOM      4  C   UNL     1      20.919  11.440  13.246  0.00  0.00    +0.166 C 
ATOM      5  H   UNL     1      19.550  11.757  14.708  0.00  0.00    +0.163 HD
ATOM      6  H   UNL     1      22.483  12.763  13.067  0.00  0.00    +0.159 HD
ATOM      7  H   UNL     1      21.358  13.146  14.314  0.00  0.00    +0.159 HD
ATOM      8  H   UNL     1      20.852   9.844  11.946  0.00  0.00    +0.159 HD
ATOM      9  H   UNL     1      22.196  10.896  11.728  0.00  0.00    +0.159 HD
ENDROOT
BRANCH   1  10
ATOM     10  C   UNL     1      18.920  10.033  13.627  0.00  0.00    +0.151 C 
BRANCH  10  11
ATOM     11  C   UNL     1      17.645  10.184  14.410  0.00  0.00    -0.028 A 
ATOM     12  C   UNL     1      16.565   9.317  14.187  0.00  0.00    +0.005 A 
ATOM     13  C   UNL     1      17.513  11.189  15.381  0.00  0.00    +0.005 A 
ATOM     14  C   UNL     1      15.392   9.438  14.936  0.00  0.00    +0.000 A 
ATOM     15  C   UNL     1      16.340  11.307  16.126  0.00  0.00    +0.000 A 
ATOM     16  C   UNL     1      15.281  10.430  15.905  0.00  0.00    +0.000 A 
ENDBRANCH  10  11
ENDBRANCH   1  10
TORSDOF 2
ENDMDL
MODEL 4
REMARK VINA RESULT:    -4.299     19.938     20.990
REMARK INTER + INTRA:          -4.967
REMARK INTER:                  -4.850
REMARK INTRA:                  -0.116
REMARK UNBOUND:                -0.165
REMARK  Name = 1550473
REMARK  2 active torsions:
REMARK  status: ('A' for Active; 'I' for Inactive)
REMARK    1  A    between atoms: N_1  and  C_4
REMARK    2  A    between atoms: C_4  and  C_5
REMARK                            x       y       z     vdW  Elec       q    Type
REMARK                         _______ _______ _______ _____ _____    ______ ____
ROOT
ATOM      1  N   UNL     1      15.917   9.527  15.572  0.00  0.00    -0.354 N 
ATOM      2  N   UNL     1      14.229   9.326  17.144  0.00  0.00    -0.372 N 
ATOM      3  N   UNL     1      13.736   8.955  14.933  0.00  0.00    -0.372 N 
ATOM      4  C   UNL     1      14.637   9.270  15.870  0.00  0.00    +0.166 C 
ATOM      5  H   UNL     1      16.544   9.790  16.324  0.00  0.00    +0.163 HD
ATOM      6  H   UNL     1      13.269   9.134  17.400  0.00  0.00    +0.159 HD
ATOM      7  H   UNL     1      14.867   9.544  17.899  0.00  0.00    +0.159 HD
ATOM      8  H   UNL     1      13.979   8.902  13.953  0.00  0.00    +0.159 HD
ATOM      9  H   UNL     1      12.769   8.771  15.169  0.00  0.00    +0.159 HD
ENDROOT
BRANCH   1  10
ATOM     10  C   UNL     1      16.476   9.441  14.223  0.00  0.00    +0.151 C 
BRANCH  10  11
ATOM     11  C   UNL     1      17.718  10.286  14.151  0.00  0.00    -0.028 A 
ATOM     12  C   UNL     1      17.703  11.613  14.606  0.00  0.00    +0.005 A 
ATOM     13  C   UNL     1      18.913   9.765  13.634  0.00  0.00    +0.005 A 
ATOM     14  C   UNL     1      18.864  12.389  14.567  0.00  0.00    +0.000 A 
ATOM     15  C   UNL     1      20.070  10.543  13.596  0.00  0.00    +0.000 A 
ATOM     16  C   UNL     1      20.046  11.854  14.065  0.00  0.00    +0.000 A 
ENDBRANCH  10  11
ENDBRANCH   1  10
TORSDOF 2
ENDMDL
MODEL 5
REMARK VINA RESULT:    -4.289     26.791     27.637
REMARK INTER + INTRA:          -4.955
REMARK INTER:                  -4.810
REMARK INTRA:                  -0.146
REMARK UNBOUND:                -0.165
REMARK  Name = 1550473
REMARK  2 active torsions:
REMARK  status: ('A' for Active; 'I' for Inactive)
REMARK    1  A    between atoms: N_1  and  C_4
REMARK    2  A    between atoms: C_4  and  C_5
REMARK                            x       y       z     vdW  Elec       q    Type
REMARK                         _______ _______ _______ _____ _____    ______ ____
ROOT
ATOM      1  N   UNL     1      -8.016 -16.914 -11.904  0.00  0.00    -0.354 N 
ATOM      2  N   UNL     1      -6.829 -18.410 -13.213  0.00  0.00    -0.372 N 
ATOM      3  N   UNL     1      -9.113 -18.330 -13.414  0.00  0.00    -0.372 N 
ATOM      4  C   UNL     1      -7.996 -17.876 -12.836  0.00  0.00    +0.166 C 
ATOM      5  H   UNL     1      -7.138 -16.634 -11.482  0.00  0.00    +0.163 HD
ATOM      6  H   UNL     1      -6.782 -19.135 -13.916  0.00  0.00    +0.159 HD
ATOM      7  H   UNL     1      -5.948 -18.097 -12.823  0.00  0.00    +0.159 HD
ATOM      8  H   UNL     1     -10.027 -17.973 -13.170  0.00  0.00    +0.159 HD
ATOM      9  H   UNL     1      -9.088 -19.064 -14.112  0.00  0.00    +0.159 HD
ENDROOT
BRANCH   1  10
ATOM     10  C   UNL     1      -9.229 -16.228 -11.462  0.00  0.00    +0.151 C 
BRANCH  10  11
ATOM     11  C   UNL     1      -9.344 -16.349  -9.967  0.00  0.00    -0.028 A 
ATOM     12  C   UNL     1     -10.558 -16.071  -9.322  0.00  0.00    +0.005 A 
ATOM     13  C   UNL     1      -8.245 -16.746  -9.191  0.00  0.00    +0.005 A 
ATOM     14  C   UNL     1     -10.674 -16.211  -7.937  0.00  0.00    +0.000 A 
ATOM     15  C   UNL     1      -8.364 -16.884  -7.808  0.00  0.00    +0.000 A 
ATOM     16  C   UNL     1      -9.579 -16.619  -7.182  0.00  0.00    +0.000 A 
ENDBRANCH  10  11
ENDBRANCH   1  10
TORSDOF 2
ENDMDL
MODEL 6
REMARK VINA RESULT:    -4.279      2.521      4.984
REMARK INTER + INTRA:          -4.944
REMARK INTER:                  -4.806
REMARK INTRA:                  -0.139
REMARK UNBOUND:                -0.165
REMARK  Name = 1550473
REMARK  2 active torsions:
REMARK  status: ('A' for Active; 'I' for Inactive)
REMARK    1  A    between atoms: N_1  and  C_4
REMARK    2  A    between atoms: C_4  and  C_5
REMARK                            x       y       z     vdW  Elec       q    Type
REMARK                         _______ _______ _______ _____ _____    ______ ____
ROOT
ATOM      1  N   UNL     1       3.555   4.709   0.172  0.00  0.00    -0.354 N 
ATOM      2  N   UNL     1       1.967   3.232  -0.640  0.00  0.00    -0.372 N 
ATOM      3  N   UNL     1       2.192   5.282  -1.646  0.00  0.00    -0.372 N 
ATOM      4  C   UNL     1       2.581   4.419  -0.701  0.00  0.00    +0.166 C 
ATOM      5  H   UNL     1       3.783   4.024   0.884  0.00  0.00    +0.163 HD
ATOM      6  H   UNL     1       1.231   2.984  -1.288  0.00  0.00    +0.159 HD
ATOM      7  H   UNL     1       2.228   2.531   0.043  0.00  0.00    +0.159 HD
ATOM      8  H   UNL     1       2.612   6.197  -1.742  0.00  0.00    +0.159 HD
ATOM      9  H   UNL     1       1.449   5.056  -2.296  0.00  0.00    +0.159 HD
ENDROOT
BRANCH   1  10
ATOM     10  C   UNL     1       4.323   5.953   0.157  0.00  0.00    +0.151 C 
BRANCH  10  11
ATOM     11  C   UNL     1       5.784   5.629   0.312  0.00  0.00    -0.028 A 
ATOM     12  C   UNL     1       6.639   6.509   0.992  0.00  0.00    +0.005 A 
ATOM     13  C   UNL     1       6.317   4.442  -0.213  0.00  0.00    +0.005 A 
ATOM     14  C   UNL     1       7.990   6.195   1.162  0.00  0.00    +0.000 A 
ATOM     15  C   UNL     1       7.667   4.133  -0.041  0.00  0.00    +0.000 A 
ATOM     16  C   UNL     1       8.502   5.008   0.648  0.00  0.00    +0.000 A 
ENDBRANCH  10  11
ENDBRANCH   1  10
TORSDOF 2
ENDMDL
MODEL 7
REMARK VINA RESULT:    -4.241      1.246      2.008
REMARK INTER + INTRA:          -4.902
REMARK INTER:                  -4.769
REMARK INTRA:                  -0.133
REMARK UNBOUND:                -0.165
REMARK  Name = 1550473
REMARK  2 active torsions:
REMARK  status: ('A' for Active; 'I' for Inactive)
REMARK    1  A    between atoms: N_1  and  C_4
REMARK    2  A    between atoms: C_4  and  C_5
REMARK                            x       y       z     vdW  Elec       q    Type
REMARK                         _______ _______ _______ _____ _____    ______ ____
ROOT
ATOM      1  N   UNL     1       3.834   5.660   0.104  0.00  0.00    -0.354 N 
ATOM      2  N   UNL     1       5.568   4.385  -0.750  0.00  0.00    -0.372 N 
ATOM      3  N   UNL     1       6.069   6.258   0.476  0.00  0.00    -0.372 N 
ATOM      4  C   UNL     1       5.147   5.445  -0.050  0.00  0.00    +0.166 C 
ATOM      5  H   UNL     1       3.186   5.024  -0.345  0.00  0.00    +0.163 HD
ATOM      6  H   UNL     1       6.552   4.194  -0.880  0.00  0.00    +0.159 HD
ATOM      7  H   UNL     1       4.918   3.724  -1.159  0.00  0.00    +0.159 HD
ATOM      8  H   UNL     1       5.817   7.079   1.010  0.00  0.00    +0.159 HD
ATOM      9  H   UNL     1       7.059   6.091   0.347  0.00  0.00    +0.159 HD
ENDROOT
BRANCH   1  10
ATOM     10  C   UNL     1       3.272   6.755   0.893  0.00  0.00    +0.151 C 
BRANCH  10  11
ATOM     11  C   UNL     1       1.990   6.294   1.530  0.00  0.00    -0.028 A 
ATOM     12  C   UNL     1       1.100   7.222   2.091  0.00  0.00    +0.005 A 
ATOM     13  C   UNL     1       1.657   4.932   1.571  0.00  0.00    +0.005 A 
ATOM     14  C   UNL     1      -0.105   6.797   2.657  0.00  0.00    +0.000 A 
ATOM     15  C   UNL     1       0.454   4.511   2.137  0.00  0.00    +0.000 A 
ATOM     16  C   UNL     1      -0.428   5.444   2.677  0.00  0.00    +0.000 A 
ENDBRANCH  10  11
ENDBRANCH   1  10
TORSDOF 2
ENDMDL
MODEL 8
REMARK VINA RESULT:    -4.237     11.226     14.138
REMARK INTER + INTRA:          -4.898
REMARK INTER:                  -4.774
REMARK INTRA:                  -0.123
REMARK UNBOUND:                -0.165
REMARK  Name = 1550473
REMARK  2 active torsions:
REMARK  status: ('A' for Active; 'I' for Inactive)
REMARK    1  A    between atoms: N_1  and  C_4
REMARK    2  A    between atoms: C_4  and  C_5
REMARK                            x       y       z     vdW  Elec       q    Type
REMARK                         _______ _______ _______ _____ _____    ______ ____
ROOT
ATOM      1  N   UNL     1      14.614   0.843   2.154  0.00  0.00    -0.354 N 
ATOM      2  N   UNL     1      12.785   0.863   3.574  0.00  0.00    -0.372 N 
ATOM      3  N   UNL     1      12.429   0.890   1.308  0.00  0.00    -0.372 N 
ATOM      4  C   UNL     1      13.287   0.865   2.334  0.00  0.00    +0.166 C 
ATOM      5  H   UNL     1      15.211   0.856   2.973  0.00  0.00    +0.163 HD
ATOM      6  H   UNL     1      11.788   0.875   3.741  0.00  0.00    +0.159 HD
ATOM      7  H   UNL     1      13.383   0.829   4.391  0.00  0.00    +0.159 HD
ATOM      8  H   UNL     1      12.744   0.900   0.347  0.00  0.00    +0.159 HD
ATOM      9  H   UNL     1      11.428   0.915   1.455  0.00  0.00    +0.159 HD
ENDROOT
BRANCH   1  10
ATOM     10  C   UNL     1      15.261   0.790   0.844  0.00  0.00    +0.151 C 
BRANCH  10  11
ATOM     11  C   UNL     1      16.031  -0.496   0.728  0.00  0.00    -0.028 A 
ATOM     12  C   UNL     1      16.842  -0.743  -0.389  0.00  0.00    +0.005 A 
ATOM     13  C   UNL     1      15.959  -1.470   1.736  0.00  0.00    +0.005 A 
ATOM     14  C   UNL     1      17.581  -1.924  -0.483  0.00  0.00    +0.000 A 
ATOM     15  C   UNL     1      16.698  -2.649   1.638  0.00  0.00    +0.000 A 
ATOM     16  C   UNL     1      17.511  -2.875   0.530  0.00  0.00    +0.000 A 
ENDBRANCH  10  11
ENDBRANCH   1  10
TORSDOF 2
ENDMDL
MODEL 9
REMARK VINA RESULT:    -4.161     18.891     19.725
REMARK INTER + INTRA:          -4.813
REMARK INTER:                  -4.692
REMARK INTRA:                  -0.121
REMARK UNBOUND:                -0.165
REMARK  Name = 1550473
REMARK  2 active torsions:
REMARK  status: ('A' for Active; 'I' for Inactive)
REMARK    1  A    between atoms: N_1  and  C_4
REMARK    2  A    between atoms: C_4  and  C_5
REMARK                            x       y       z     vdW  Elec       q    Type
REMARK                         _______ _______ _______ _____ _____    ______ ____
ROOT
ATOM      1  N   UNL     1       8.569  16.952  14.460  0.00  0.00    -0.354 N 
ATOM      2  N   UNL     1       6.824  15.633  15.219  0.00  0.00    -0.372 N 
ATOM      3  N   UNL     1       6.696  17.907  15.495  0.00  0.00    -0.372 N 
ATOM      4  C   UNL     1       7.374  16.842  15.054  0.00  0.00    +0.166 C 
ATOM      5  H   UNL     1       9.046  16.104  14.175  0.00  0.00    +0.163 HD
ATOM      6  H   UNL     1       5.922  15.518  15.661  0.00  0.00    +0.159 HD
ATOM      7  H   UNL     1       7.282  14.790  14.892  0.00  0.00    +0.159 HD
ATOM      8  H   UNL     1       7.059  18.847  15.406  0.00  0.00    +0.159 HD
ATOM      9  H   UNL     1       5.797  17.812  15.951  0.00  0.00    +0.159 HD
ENDROOT
BRANCH   1  10
ATOM     10  C   UNL     1       9.230  18.227  14.183  0.00  0.00    +0.151 C 
BRANCH  10  11
ATOM     11  C   UNL     1      10.503  17.966  13.426  0.00  0.00    -0.028 A 
ATOM     12  C   UNL     1      11.059  16.678  13.389  0.00  0.00    +0.005 A 
ATOM     13  C   UNL     1      11.155  19.000  12.737  0.00  0.00    +0.005 A 
ATOM     14  C   UNL     1      12.224  16.429  12.661  0.00  0.00    +0.000 A 
ATOM     15  C   UNL     1      12.319  18.748  12.012  0.00  0.00    +0.000 A 
ATOM     16  C   UNL     1      12.852  17.462  11.972  0.00  0.00    +0.000 A 
ENDBRANCH  10  11
ENDBRANCH   1  10
TORSDOF 2
ENDMDL
