MODEL 1
REMARK VINA RESULT:    -5.333      0.000      0.000
REMARK INTER + INTRA:          -6.134
REMARK INTER:                  -5.957
REMARK INTRA:                  -0.177
REMARK UNBOUND:                -0.177
REMARK  Name = 1550473
REMARK  2 active torsions:
REMARK  status: ('A' for Active; 'I' for Inactive)
REMARK    1  A    between atoms: N_1  and  C_4
REMARK    2  A    between atoms: C_4  and  C_5
REMARK                            x       y       z     vdW  Elec       q    Type
REMARK                         _______ _______ _______ _____ _____    ______ ____
ROOT
ATOM      1  N   UNL     1      -7.540 -11.410 -16.528  0.00  0.00    -0.354 N 
ATOM      2  N   UNL     1      -5.619 -12.003 -17.678  0.00  0.00    -0.372 N 
ATOM      3  N   UNL     1      -7.629 -12.884 -18.347  0.00  0.00    -0.372 N 
ATOM      4  C   UNL     1      -6.944 -12.097 -17.511  0.00  0.00    +0.166 C 
ATOM      5  H   UNL     1      -6.961 -10.854 -15.909  0.00  0.00    +0.163 HD
ATOM      6  H   UNL     1      -5.142 -12.507 -18.413  0.00  0.00    +0.159 HD
ATOM      7  H   UNL     1      -5.049 -11.411 -17.086  0.00  0.00    +0.159 HD
ATOM      8  H   UNL     1      -8.630 -13.003 -18.271  0.00  0.00    +0.159 HD
ATOM      9  H   UNL     1      -7.168 -13.406 -19.082  0.00  0.00    +0.159 HD
ENDROOT
BRANCH   1  10
ATOM     10  C   UNL     1      -8.983 -11.401 -16.295  0.00  0.00    +0.151 C 
BRANCH  10  11
ATOM     11  C   UNL     1      -9.550 -10.094 -16.775  0.00  0.00    -0.028 A 
ATOM     12  C   UNL     1     -10.009  -9.958 -18.094  0.00  0.00    +0.005 A 
ATOM     13  C   UNL     1      -9.637  -8.989 -15.914  0.00  0.00    +0.005 A 
ATOM     14  C   UNL     1     -10.563  -8.752 -18.531  0.00  0.00    +0.000 A 
ATOM     15  C   UNL     1     -10.190  -7.787 -16.355  0.00  0.00    +0.000 A 
ATOM     16  C   UNL     1     -10.655  -7.670 -17.663  0.00  0.00    +0.000 A 
ENDBRANCH  10  11
ENDBRANCH   1  10
TORSDOF 2
ENDMDL
MODEL 2
REMARK VINA RESULT:    -5.212      3.034      4.821
REMARK INTER + INTRA:          -5.998
REMARK INTER:                  -5.865
REMARK INTRA:                  -0.133
REMARK UNBOUND:                -0.177
REMARK  Name = 1550473
REMARK  2 active torsions:
REMARK  status: ('A' for Active; 'I' for Inactive)
REMARK    1  A    between atoms: N_1  and  C_4
REMARK    2  A    between atoms: C_4  and  C_5
REMARK                            x       y       z     vdW  Elec       q    Type
REMARK                         _______ _______ _______ _____ _____    ______ ____
ROOT
ATOM      1  N   UNL     1     -10.692  -8.499 -17.151  0.00  0.00    -0.354 N 
ATOM      2  N   UNL     1     -11.249  -6.335 -17.761  0.00  0.00    -0.372 N 
ATOM      3  N   UNL     1     -10.583  -6.742 -15.603  0.00  0.00    -0.372 N 
ATOM      4  C   UNL     1     -10.837  -7.206 -16.832  0.00  0.00    +0.166 C 
ATOM      5  H   UNL     1     -10.930  -8.792 -18.092  0.00  0.00    +0.163 HD
ATOM      6  H   UNL     1     -11.365  -5.353 -17.551  0.00  0.00    +0.159 HD
ATOM      7  H   UNL     1     -11.442  -6.623 -18.713  0.00  0.00    +0.159 HD
ATOM      8  H   UNL     1     -10.275  -7.349 -14.855  0.00  0.00    +0.159 HD
ATOM      9  H   UNL     1     -10.704  -5.765 -15.370  0.00  0.00    +0.159 HD
ENDROOT
BRANCH   1  10
ATOM     10  C   UNL     1     -10.198  -9.518 -16.228  0.00  0.00    +0.151 C 
BRANCH  10  11
ATOM     11  C   UNL     1      -9.155 -10.348 -16.924  0.00  0.00    -0.028 A 
ATOM     12  C   UNL     1      -9.182 -10.502 -18.318  0.00  0.00    +0.005 A 
ATOM     13  C   UNL     1      -8.134 -10.979 -16.197  0.00  0.00    +0.005 A 
ATOM     14  C   UNL     1      -8.196 -11.248 -18.969  0.00  0.00    +0.000 A 
ATOM     15  C   UNL     1      -7.153 -11.724 -16.850  0.00  0.00    +0.000 A 
ATOM     16  C   UNL     1      -7.183 -11.856 -18.236  0.00  0.00    +0.000 A 
ENDBRANCH  10  11
ENDBRANCH   1  10
TORSDOF 2
ENDMDL
MODEL 3
REMARK VINA RESULT:    -5.177     32.179     33.514
REMARK INTER + INTRA:          -5.959
REMARK INTER:                  -5.813
REMARK INTRA:                  -0.146
REMARK UNBOUND:                -0.177
REMARK  Name = 1550473
REMARK  2 active torsions:
REMARK  status: ('A' for Active; 'I' for Inactive)
REMARK    1  A    between atoms: N_1  and  C_4
REMARK    2  A    between atoms: C_4  and  C_5
REMARK                            x       y       z     vdW  Elec       q    Type
REMARK                         _______ _______ _______ _____ _____    ______ ____
ROOT
ATOM      1  N   UNL     1      -1.766   4.846  12.487  0.00  0.00    -0.354 N 
ATOM      2  N   UNL     1      -2.325   3.534  14.312  0.00  0.00    -0.372 N 
ATOM      3  N   UNL     1      -1.988   5.782  14.624  0.00  0.00    -0.372 N 
ATOM      4  C   UNL     1      -2.022   4.732  13.797  0.00  0.00    +0.166 C 
ATOM      5  H   UNL     1      -1.779   4.007  11.919  0.00  0.00    +0.163 HD
ATOM      6  H   UNL     1      -2.527   3.417  15.296  0.00  0.00    +0.159 HD
ATOM      7  H   UNL     1      -2.382   2.704  13.734  0.00  0.00    +0.159 HD
ATOM      8  H   UNL     1      -1.760   6.712  14.299  0.00  0.00    +0.159 HD
ATOM      9  H   UNL     1      -2.175   5.683  15.614  0.00  0.00    +0.159 HD
ENDROOT
BRANCH   1  10
ATOM     10  C   UNL     1      -1.478   6.113  11.818  0.00  0.00    +0.151 C 
BRANCH  10  11
ATOM     11  C   UNL     1      -2.441   6.296  10.677  0.00  0.00    -0.028 A 
ATOM     12  C   UNL     1      -3.822   6.359  10.914  0.00  0.00    +0.005 A 
ATOM     13  C   UNL     1      -1.978   6.412   9.357  0.00  0.00    +0.005 A 
ATOM     14  C   UNL     1      -4.715   6.559   9.858  0.00  0.00    +0.000 A 
ATOM     15  C   UNL     1      -2.873   6.610   8.306  0.00  0.00    +0.000 A 
ATOM     16  C   UNL     1      -4.241   6.686   8.557  0.00  0.00    +0.000 A 
ENDBRANCH  10  11
ENDBRANCH   1  10
TORSDOF 2
ENDMDL
MODEL 4
REMARK VINA RESULT:    -4.893      3.236      5.134
REMARK INTER + INTRA:          -5.643
REMARK INTER:                  -5.530
REMARK INTRA:                  -0.112
REMARK UNBOUND:                -0.177
REMARK  Name = 1550473
REMARK  2 active torsions:
REMARK  status: ('A' for Active; 'I' for Inactive)
REMARK    1  A    between atoms: N_1  and  C_4
REMARK    2  A    between atoms: C_4  and  C_5
REMARK                            x       y       z     vdW  Elec       q    Type
REMARK                         _______ _______ _______ _____ _____    ______ ____
ROOT
ATOM      1  N   UNL     1     -10.373  -8.300 -17.934  0.00  0.00    -0.354 N 
ATOM      2  N   UNL     1     -11.265  -6.237 -17.375  0.00  0.00    -0.372 N 
ATOM      3  N   UNL     1     -12.333  -7.515 -18.952  0.00  0.00    -0.372 N 
ATOM      4  C   UNL     1     -11.320  -7.365 -18.093  0.00  0.00    +0.166 C 
ATOM      5  H   UNL     1      -9.615  -8.112 -17.289  0.00  0.00    +0.163 HD
ATOM      6  H   UNL     1     -11.966  -5.515 -17.471  0.00  0.00    +0.159 HD
ATOM      7  H   UNL     1     -10.531  -6.072 -16.697  0.00  0.00    +0.159 HD
ATOM      8  H   UNL     1     -12.428  -8.341 -19.528  0.00  0.00    +0.159 HD
ATOM      9  H   UNL     1     -13.039  -6.799 -19.071  0.00  0.00    +0.159 HD
ENDROOT
BRANCH   1  10
ATOM     10  C   UNL     1     -10.371  -9.586 -18.628  0.00  0.00    +0.151 C 
BRANCH  10  11
ATOM     11  C   UNL     1      -9.223 -10.416 -18.121  0.00  0.00    -0.028 A 
ATOM     12  C   UNL     1      -8.901 -10.426 -16.756  0.00  0.00    +0.005 A 
ATOM     13  C   UNL     1      -8.458 -11.198 -18.999  0.00  0.00    +0.005 A 
ATOM     14  C   UNL     1      -7.855 -11.219 -16.280  0.00  0.00    +0.000 A 
ATOM     15  C   UNL     1      -7.414 -11.989 -18.520  0.00  0.00    +0.000 A 
ATOM     16  C   UNL     1      -7.114 -12.001 -17.160  0.00  0.00    +0.000 A 
ENDBRANCH  10  11
ENDBRANCH   1  10
TORSDOF 2
ENDMDL
MODEL 5
REMARK VINA RESULT:    -4.851     32.481     33.520
REMARK INTER + INTRA:          -5.595
REMARK INTER:                  -5.456
REMARK INTRA:                  -0.139
REMARK UNBOUND:                -0.177
REMARK  Name = 1550473
REMARK  2 active torsions:
REMARK  status: ('A' for Active; 'I' for Inactive)
REMARK    1  A    between atoms: N_1  and  C_4
REMARK    2  A    between atoms: C_4  and  C_5
REMARK                            x       y       z     vdW  Elec       q    Type
REMARK                         _______ _______ _______ _____ _____    ______ ____
ROOT
ATOM      1  N   UNL     1      -2.668   4.712  12.424  0.00  0.00    -0.354 N 
ATOM      2  N   UNL     1      -0.470   5.024  13.083  0.00  0.00    -0.372 N 
ATOM      3  N   UNL     1      -2.153   5.581  14.539  0.00  0.00    -0.372 N 
ATOM      4  C   UNL     1      -1.780   5.105  13.346  0.00  0.00    +0.166 C 
ATOM      5  H   UNL     1      -2.322   4.388  11.529  0.00  0.00    +0.163 HD
ATOM      6  H   UNL     1       0.224   5.310  13.760  0.00  0.00    +0.159 HD
ATOM      7  H   UNL     1      -0.125   4.657  12.204  0.00  0.00    +0.159 HD
ATOM      8  H   UNL     1      -3.127   5.673  14.797  0.00  0.00    +0.159 HD
ATOM      9  H   UNL     1      -1.474   5.884  15.226  0.00  0.00    +0.159 HD
ENDROOT
BRANCH   1  10
ATOM     10  C   UNL     1      -4.115   4.709  12.632  0.00  0.00    +0.151 C 
BRANCH  10  11
ATOM     11  C   UNL     1      -4.772   5.487  11.526  0.00  0.00    -0.028 A 
ATOM     12  C   UNL     1      -6.167   5.471  11.375  0.00  0.00    +0.005 A 
ATOM     13  C   UNL     1      -4.006   6.248  10.629  0.00  0.00    +0.005 A 
ATOM     14  C   UNL     1      -6.780   6.218  10.366  0.00  0.00    +0.000 A 
ATOM     15  C   UNL     1      -4.622   6.992   9.623  0.00  0.00    +0.000 A 
ATOM     16  C   UNL     1      -6.009   6.979   9.493  0.00  0.00    +0.000 A 
ENDBRANCH  10  11
ENDBRANCH   1  10
TORSDOF 2
ENDMDL
MODEL 6
REMARK VINA RESULT:    -4.676     51.605     52.853
REMARK INTER + INTRA:          -5.400
REMARK INTER:                  -5.307
REMARK INTRA:                  -0.093
REMARK UNBOUND:                -0.177
REMARK  Name = 1550473
REMARK  2 active torsions:
REMARK  status: ('A' for Active; 'I' for Inactive)
REMARK    1  A    between atoms: N_1  and  C_4
REMARK    2  A    between atoms: C_4  and  C_5
REMARK                            x       y       z     vdW  Elec       q    Type
REMARK                         _______ _______ _______ _____ _____    ______ ____
ROOT
ATOM      1  N   UNL     1       1.156  -0.314  34.605  0.00  0.00    -0.354 N 
ATOM      2  N   UNL     1       0.016  -0.852  36.547  0.00  0.00    -0.372 N 
ATOM      3  N   UNL     1       1.107   1.162  36.424  0.00  0.00    -0.372 N 
ATOM      4  C   UNL     1       0.768   0.005  35.847  0.00  0.00    +0.166 C 
ATOM      5  H   UNL     1       0.891  -1.220  34.235  0.00  0.00    +0.163 HD
ATOM      6  H   UNL     1      -0.295  -0.638  37.485  0.00  0.00    +0.159 HD
ATOM      7  H   UNL     1      -0.286  -1.737  36.158  0.00  0.00    +0.159 HD
ATOM      8  H   UNL     1       1.679   1.849  35.951  0.00  0.00    +0.159 HD
ATOM      9  H   UNL     1       0.816   1.390  37.367  0.00  0.00    +0.159 HD
ENDROOT
BRANCH   1  10
ATOM     10  C   UNL     1       1.932   0.571  33.738  0.00  0.00    +0.151 C 
BRANCH  10  11
ATOM     11  C   UNL     1       2.537  -0.238  32.624  0.00  0.00    -0.028 A 
ATOM     12  C   UNL     1       1.800  -0.516  31.464  0.00  0.00    +0.005 A 
ATOM     13  C   UNL     1       3.850  -0.725  32.721  0.00  0.00    +0.005 A 
ATOM     14  C   UNL     1       2.372  -1.243  30.417  0.00  0.00    +0.000 A 
ATOM     15  C   UNL     1       4.417  -1.451  31.673  0.00  0.00    +0.000 A 
ATOM     16  C   UNL     1       3.679  -1.707  30.521  0.00  0.00    +0.000 A 
ENDBRANCH  10  11
ENDBRANCH   1  10
TORSDOF 2
ENDMDL
MODEL 7
REMARK VINA RESULT:    -4.674     20.965     22.145
REMARK INTER + INTRA:          -5.398
REMARK INTER:                  -5.253
REMARK INTRA:                  -0.145
REMARK UNBOUND:                -0.177
REMARK  Name = 1550473
REMARK  2 active torsions:
REMARK  status: ('A' for Active; 'I' for Inactive)
REMARK    1  A    between atoms: N_1  and  C_4
REMARK    2  A    between atoms: C_4  and  C_5
REMARK                            x       y       z     vdW  Elec       q    Type
REMARK                         _______ _______ _______ _____ _____    ______ ____
ROOT
ATOM      1  N   UNL     1     -21.674   5.873 -15.725  0.00  0.00    -0.354 N 
ATOM      2  N   UNL     1     -23.446   4.409 -15.441  0.00  0.00    -0.372 N 
ATOM      3  N   UNL     1     -22.644   5.548 -13.617  0.00  0.00    -0.372 N 
ATOM      4  C   UNL     1     -22.576   5.287 -14.927  0.00  0.00    +0.166 C 
ATOM      5  H   UNL     1     -21.654   5.610 -16.704  0.00  0.00    +0.163 HD
ATOM      6  H   UNL     1     -24.140   3.954 -14.864  0.00  0.00    +0.159 HD
ATOM      7  H   UNL     1     -23.454   4.183 -16.428  0.00  0.00    +0.159 HD
ATOM      8  H   UNL     1     -22.012   6.196 -13.167  0.00  0.00    +0.159 HD
ATOM      9  H   UNL     1     -23.324   5.093 -13.021  0.00  0.00    +0.159 HD
ENDROOT
BRANCH   1  10
ATOM     10  C   UNL     1     -20.717   6.883 -15.275  0.00  0.00    +0.151 C 
BRANCH  10  11
ATOM     11  C   UNL     1     -20.856   8.109 -16.135  0.00  0.00    -0.028 A 
ATOM     12  C   UNL     1     -21.575   8.057 -17.339  0.00  0.00    +0.005 A 
ATOM     13  C   UNL     1     -20.275   9.327 -15.750  0.00  0.00    +0.005 A 
ATOM     14  C   UNL     1     -21.729   9.202 -18.123  0.00  0.00    +0.000 A 
ATOM     15  C   UNL     1     -20.431  10.468 -16.536  0.00  0.00    +0.000 A 
ATOM     16  C   UNL     1     -21.160  10.406 -17.721  0.00  0.00    +0.000 A 
ENDBRANCH  10  11
ENDBRANCH   1  10
TORSDOF 2
ENDMDL
MODEL 8
REMARK VINA RESULT:    -4.633     33.983     34.982
REMARK INTER + INTRA:          -5.352
REMARK INTER:                  -5.214
REMARK INTRA:                  -0.138
REMARK UNBOUND:                -0.177
REMARK  Name = 1550473
REMARK  2 active torsions:
REMARK  status: ('A' for Active; 'I' for Inactive)
REMARK    1  A    between atoms: N_1  and  C_4
REMARK    2  A    between atoms: C_4  and  C_5
REMARK                            x       y       z     vdW  Elec       q    Type
REMARK                         _______ _______ _______ _____ _____    ______ ____
ROOT
ATOM      1  N   UNL     1      11.825   6.517   2.957  0.00  0.00    -0.354 N 
ATOM      2  N   UNL     1      10.976   5.051   1.376  0.00  0.00    -0.372 N 
ATOM      3  N   UNL     1       9.628   5.714   3.111  0.00  0.00    -0.372 N 
ATOM      4  C   UNL     1      10.813   5.770   2.494  0.00  0.00    +0.166 C 
ATOM      5  H   UNL     1      12.707   6.493   2.459  0.00  0.00    +0.163 HD
ATOM      6  H   UNL     1      10.230   4.482   1.001  0.00  0.00    +0.159 HD
ATOM      7  H   UNL     1      11.844   5.065   0.856  0.00  0.00    +0.159 HD
ATOM      8  H   UNL     1       9.443   6.228   3.962  0.00  0.00    +0.159 HD
ATOM      9  H   UNL     1       8.873   5.140   2.758  0.00  0.00    +0.159 HD
ENDROOT
BRANCH   1  10
ATOM     10  C   UNL     1      11.733   7.378   4.134  0.00  0.00    +0.151 C 
BRANCH  10  11
ATOM     11  C   UNL     1      12.753   6.935   5.147  0.00  0.00    -0.028 A 
ATOM     12  C   UNL     1      12.363   6.612   6.455  0.00  0.00    +0.005 A 
ATOM     13  C   UNL     1      14.109   6.830   4.803  0.00  0.00    +0.005 A 
ATOM     14  C   UNL     1      13.305   6.171   7.388  0.00  0.00    +0.000 A 
ATOM     15  C   UNL     1      15.047   6.391   5.738  0.00  0.00    +0.000 A 
ATOM     16  C   UNL     1      14.644   6.059   7.029  0.00  0.00    +0.000 A 
ENDBRANCH  10  11
ENDBRANCH   1  10
TORSDOF 2
ENDMDL
MODEL 9
REMARK VINA RESULT:    -4.512     23.862     24.928
REMARK INTER + INTRA:          -5.217
REMARK INTER:                  -5.099
REMARK INTRA:                  -0.117
REMARK UNBOUND:                -0.177
REMARK  Name = 1550473
REMARK  2 active torsions:
REMARK  status: ('A' for Active; 'I' for Inactive)
REMARK    1  A    between atoms: N_1  and  C_4
REMARK    2  A    between atoms: C_4  and  C_5
REMARK                            x       y       z     vdW  Elec       q    Type
REMARK                         _______ _______ _______ _____ _____    ______ ____
ROOT
ATOM      1  N   UNL     1     -10.646  13.206 -22.053  0.00  0.00    -0.354 N 
ATOM      2  N   UNL     1      -9.109  12.083 -23.372  0.00  0.00    -0.372 N 
ATOM      3  N   UNL     1     -10.607  13.502 -24.378  0.00  0.00    -0.372 N 
ATOM      4  C   UNL     1     -10.132  12.939 -23.261  0.00  0.00    +0.166 C 
ATOM      5  H   UNL     1     -10.261  12.724 -21.249  0.00  0.00    +0.163 HD
ATOM      6  H   UNL     1      -8.698  11.865 -24.270  0.00  0.00    +0.159 HD
ATOM      7  H   UNL     1      -8.696  11.638 -22.562  0.00  0.00    +0.159 HD
ATOM      8  H   UNL     1     -11.381  14.151 -24.362  0.00  0.00    +0.159 HD
ATOM      9  H   UNL     1     -10.216  13.286 -25.287  0.00  0.00    +0.159 HD
ENDROOT
BRANCH   1  10
ATOM     10  C   UNL     1     -11.725  14.164 -21.817  0.00  0.00    +0.151 C 
BRANCH  10  11
ATOM     11  C   UNL     1     -11.719  14.564 -20.368  0.00  0.00    -0.028 A 
ATOM     12  C   UNL     1     -12.212  15.816 -19.973  0.00  0.00    +0.005 A 
ATOM     13  C   UNL     1     -11.227  13.693 -19.384  0.00  0.00    +0.005 A 
ATOM     14  C   UNL     1     -12.234  16.176 -18.623  0.00  0.00    +0.000 A 
ATOM     15  C   UNL     1     -11.250  14.057 -18.038  0.00  0.00    +0.000 A 
ATOM     16  C   UNL     1     -11.756  15.297 -17.657  0.00  0.00    +0.000 A 
ENDBRANCH  10  11
ENDBRANCH   1  10
TORSDOF 2
ENDMDL
