MODEL 1
REMARK VINA RESULT:    -5.822      0.000      0.000
REMARK INTER + INTRA:          -6.569
REMARK INTER:                  -6.503
REMARK INTRA:                  -0.066
REMARK UNBOUND:                -0.066
REMARK  Name = 1550473
REMARK  2 active torsions:
REMARK  status: ('A' for Active; 'I' for Inactive)
REMARK    1  A    between atoms: N_1  and  C_4
REMARK    2  A    between atoms: C_4  and  C_5
REMARK                            x       y       z     vdW  Elec       q    Type
REMARK                         _______ _______ _______ _____ _____    ______ ____
ROOT
ATOM      1  N   UNL     1       6.551  -1.400  16.028  0.00  0.00    -0.354 N 
ATOM      2  N   UNL     1       4.958   0.264  15.791  0.00  0.00    -0.372 N 
ATOM      3  N   UNL     1       4.982  -1.471  14.289  0.00  0.00    -0.372 N 
ATOM      4  C   UNL     1       5.507  -0.882  15.369  0.00  0.00    +0.166 C 
ATOM      5  H   UNL     1       6.922  -0.889  16.821  0.00  0.00    +0.163 HD
ATOM      6  H   UNL     1       4.167   0.677  15.316  0.00  0.00    +0.159 HD
ATOM      7  H   UNL     1       5.301   0.748  16.612  0.00  0.00    +0.159 HD
ATOM      8  H   UNL     1       5.354  -2.334  13.916  0.00  0.00    +0.159 HD
ATOM      9  H   UNL     1       4.198  -1.066  13.793  0.00  0.00    +0.159 HD
ENDROOT
BRANCH   1  10
ATOM     10  C   UNL     1       7.188  -2.670  15.682  0.00  0.00    +0.151 C 
BRANCH  10  11
ATOM     11  C   UNL     1       6.776  -3.715  16.683  0.00  0.00    -0.028 A 
ATOM     12  C   UNL     1       7.354  -4.992  16.657  0.00  0.00    +0.005 A 
ATOM     13  C   UNL     1       5.811  -3.432  17.662  0.00  0.00    +0.005 A 
ATOM     14  C   UNL     1       6.993  -5.953  17.605  0.00  0.00    +0.000 A 
ATOM     15  C   UNL     1       5.453  -4.394  18.605  0.00  0.00    +0.000 A 
ATOM     16  C   UNL     1       6.046  -5.654  18.578  0.00  0.00    +0.000 A 
ENDBRANCH  10  11
ENDBRANCH   1  10
TORSDOF 2
ENDMDL
MODEL 2
REMARK VINA RESULT:    -5.796     16.143     18.128
REMARK INTER + INTRA:          -6.540
REMARK INTER:                  -6.423
REMARK INTRA:                  -0.116
REMARK UNBOUND:                -0.066
REMARK  Name = 1550473
REMARK  2 active torsions:
REMARK  status: ('A' for Active; 'I' for Inactive)
REMARK    1  A    between atoms: N_1  and  C_4
REMARK    2  A    between atoms: C_4  and  C_5
REMARK                            x       y       z     vdW  Elec       q    Type
REMARK                         _______ _______ _______ _____ _____    ______ ____
ROOT
ATOM      1  N   UNL     1       2.038   1.812   0.838  0.00  0.00    -0.354 N 
ATOM      2  N   UNL     1       0.313   0.307   1.193  0.00  0.00    -0.372 N 
ATOM      3  N   UNL     1       1.603   0.958   2.976  0.00  0.00    -0.372 N 
ATOM      4  C   UNL     1       1.331   1.036   1.669  0.00  0.00    +0.166 C 
ATOM      5  H   UNL     1       1.800   1.804  -0.148  0.00  0.00    +0.163 HD
ATOM      6  H   UNL     1      -0.240  -0.285   1.797  0.00  0.00    +0.159 HD
ATOM      7  H   UNL     1       0.049   0.336   0.216  0.00  0.00    +0.159 HD
ATOM      8  H   UNL     1       2.361   1.478   3.397  0.00  0.00    +0.159 HD
ATOM      9  H   UNL     1       1.067   0.361   3.594  0.00  0.00    +0.159 HD
ENDROOT
BRANCH   1  10
ATOM     10  C   UNL     1       3.130   2.685   1.265  0.00  0.00    +0.151 C 
BRANCH  10  11
ATOM     11  C   UNL     1       4.031   2.954   0.091  0.00  0.00    -0.028 A 
ATOM     12  C   UNL     1       4.438   4.263  -0.208  0.00  0.00    +0.005 A 
ATOM     13  C   UNL     1       4.486   1.905  -0.722  0.00  0.00    +0.005 A 
ATOM     14  C   UNL     1       5.299   4.510  -1.280  0.00  0.00    +0.000 A 
ATOM     15  C   UNL     1       5.345   2.156  -1.792  0.00  0.00    +0.000 A 
ATOM     16  C   UNL     1       5.753   3.459  -2.069  0.00  0.00    +0.000 A 
ENDBRANCH  10  11
ENDBRANCH   1  10
TORSDOF 2
ENDMDL
MODEL 3
REMARK VINA RESULT:    -5.649      2.744      4.850
REMARK INTER + INTRA:          -6.375
REMARK INTER:                  -6.270
REMARK INTRA:                  -0.106
REMARK UNBOUND:                -0.066
REMARK  Name = 1550473
REMARK  2 active torsions:
REMARK  status: ('A' for Active; 'I' for Inactive)
REMARK    1  A    between atoms: N_1  and  C_4
REMARK    2  A    between atoms: C_4  and  C_5
REMARK                            x       y       z     vdW  Elec       q    Type
REMARK                         _______ _______ _______ _____ _____    ______ ____
ROOT
ATOM      1  N   UNL     1       6.768  -4.497  17.411  0.00  0.00    -0.354 N 
ATOM      2  N   UNL     1       6.296  -6.485  18.501  0.00  0.00    -0.372 N 
ATOM      3  N   UNL     1       7.377  -6.559  16.479  0.00  0.00    -0.372 N 
ATOM      4  C   UNL     1       6.818  -5.835  17.454  0.00  0.00    +0.166 C 
ATOM      5  H   UNL     1       6.304  -4.008  18.167  0.00  0.00    +0.163 HD
ATOM      6  H   UNL     1       6.321  -7.494  18.563  0.00  0.00    +0.159 HD
ATOM      7  H   UNL     1       5.873  -5.991  19.278  0.00  0.00    +0.159 HD
ATOM      8  H   UNL     1       7.784  -6.130  15.659  0.00  0.00    +0.159 HD
ATOM      9  H   UNL     1       7.402  -7.571  16.517  0.00  0.00    +0.159 HD
ENDROOT
BRANCH   1  10
ATOM     10  C   UNL     1       7.355  -3.691  16.341  0.00  0.00    +0.151 C 
BRANCH  10  11
ATOM     11  C   UNL     1       6.552  -2.431  16.179  0.00  0.00    -0.028 A 
ATOM     12  C   UNL     1       6.324  -1.585  17.275  0.00  0.00    +0.005 A 
ATOM     13  C   UNL     1       6.020  -2.073  14.930  0.00  0.00    +0.005 A 
ATOM     14  C   UNL     1       5.603  -0.399  17.118  0.00  0.00    +0.000 A 
ATOM     15  C   UNL     1       5.300  -0.888  14.778  0.00  0.00    +0.000 A 
ATOM     16  C   UNL     1       5.094  -0.050  15.871  0.00  0.00    +0.000 A 
ENDBRANCH  10  11
ENDBRANCH   1  10
TORSDOF 2
ENDMDL
MODEL 4
REMARK VINA RESULT:    -5.366     32.512     33.525
REMARK INTER + INTRA:          -6.060
REMARK INTER:                  -5.940
REMARK INTRA:                  -0.120
REMARK UNBOUND:                -0.066
REMARK  Name = 1550473
REMARK  2 active torsions:
REMARK  status: ('A' for Active; 'I' for Inactive)
REMARK    1  A    between atoms: N_1  and  C_4
REMARK    2  A    between atoms: C_4  and  C_5
REMARK                            x       y       z     vdW  Elec       q    Type
REMARK                         _______ _______ _______ _____ _____    ______ ____
ROOT
ATOM      1  N   UNL     1       1.223  -2.788 -17.074  0.00  0.00    -0.354 N 
ATOM      2  N   UNL     1       0.701  -4.879 -17.923  0.00  0.00    -0.372 N 
ATOM      3  N   UNL     1      -0.985  -3.572 -17.078  0.00  0.00    -0.372 N 
ATOM      4  C   UNL     1       0.314  -3.732 -17.352  0.00  0.00    +0.166 C 
ATOM      5  H   UNL     1       2.197  -2.983 -17.278  0.00  0.00    +0.163 HD
ATOM      6  H   UNL     1       0.038  -5.608 -18.147  0.00  0.00    +0.159 HD
ATOM      7  H   UNL     1       1.669  -5.052 -18.168  0.00  0.00    +0.159 HD
ATOM      8  H   UNL     1      -1.341  -2.732 -16.642  0.00  0.00    +0.159 HD
ATOM      9  H   UNL     1      -1.663  -4.295 -17.285  0.00  0.00    +0.159 HD
ENDROOT
BRANCH   1  10
ATOM     10  C   UNL     1       0.898  -1.483 -16.502  0.00  0.00    +0.151 C 
BRANCH  10  11
ATOM     11  C   UNL     1       2.169  -0.808 -16.064  0.00  0.00    -0.028 A 
ATOM     12  C   UNL     1       3.402  -1.185 -16.616  0.00  0.00    +0.005 A 
ATOM     13  C   UNL     1       2.146   0.214 -15.102  0.00  0.00    +0.005 A 
ATOM     14  C   UNL     1       4.579  -0.538 -16.232  0.00  0.00    +0.000 A 
ATOM     15  C   UNL     1       3.323   0.857 -14.721  0.00  0.00    +0.000 A 
ATOM     16  C   UNL     1       4.539   0.482 -15.288  0.00  0.00    +0.000 A 
ENDBRANCH  10  11
ENDBRANCH   1  10
TORSDOF 2
ENDMDL
MODEL 5
REMARK VINA RESULT:    -5.355     18.733     19.845
REMARK INTER + INTRA:          -6.047
REMARK INTER:                  -5.932
REMARK INTRA:                  -0.115
REMARK UNBOUND:                -0.066
REMARK  Name = 1550473
REMARK  2 active torsions:
REMARK  status: ('A' for Active; 'I' for Inactive)
REMARK    1  A    between atoms: N_1  and  C_4
REMARK    2  A    between atoms: C_4  and  C_5
REMARK                            x       y       z     vdW  Elec       q    Type
REMARK                         _______ _______ _______ _____ _____    ______ ____
ROOT
ATOM      1  N   UNL     1       5.366   4.423  -1.474  0.00  0.00    -0.354 N 
ATOM      2  N   UNL     1       3.825   5.501  -0.123  0.00  0.00    -0.372 N 
ATOM      3  N   UNL     1       3.935   3.209  -0.071  0.00  0.00    -0.372 N 
ATOM      4  C   UNL     1       4.385   4.368  -0.564  0.00  0.00    +0.166 C 
ATOM      5  H   UNL     1       5.641   5.331  -1.831  0.00  0.00    +0.163 HD
ATOM      6  H   UNL     1       3.084   5.491   0.566  0.00  0.00    +0.159 HD
ATOM      7  H   UNL     1       4.133   6.409  -0.447  0.00  0.00    +0.159 HD
ATOM      8  H   UNL     1       4.311   2.319  -0.367  0.00  0.00    +0.159 HD
ATOM      9  H   UNL     1       3.187   3.178   0.611  0.00  0.00    +0.159 HD
ENDROOT
BRANCH   1  10
ATOM     10  C   UNL     1       6.079   3.251  -1.980  0.00  0.00    +0.151 C 
BRANCH  10  11
ATOM     11  C   UNL     1       7.548   3.565  -2.057  0.00  0.00    -0.028 A 
ATOM     12  C   UNL     1       8.376   3.376  -0.941  0.00  0.00    +0.005 A 
ATOM     13  C   UNL     1       8.118   4.047  -3.245  0.00  0.00    +0.005 A 
ATOM     14  C   UNL     1       9.745   3.639  -1.021  0.00  0.00    +0.000 A 
ATOM     15  C   UNL     1       9.486   4.309  -3.321  0.00  0.00    +0.000 A 
ATOM     16  C   UNL     1      10.300   4.102  -2.209  0.00  0.00    +0.000 A 
ENDBRANCH  10  11
ENDBRANCH   1  10
TORSDOF 2
ENDMDL
MODEL 6
REMARK VINA RESULT:    -5.166     11.416     12.130
REMARK INTER + INTRA:          -5.836
REMARK INTER:                  -5.697
REMARK INTRA:                  -0.140
REMARK UNBOUND:                -0.066
REMARK  Name = 1550473
REMARK  2 active torsions:
REMARK  status: ('A' for Active; 'I' for Inactive)
REMARK    1  A    between atoms: N_1  and  C_4
REMARK    2  A    between atoms: C_4  and  C_5
REMARK                            x       y       z     vdW  Elec       q    Type
REMARK                         _______ _______ _______ _____ _____    ______ ____
ROOT
ATOM      1  N   UNL     1       3.669   1.486   5.892  0.00  0.00    -0.354 N 
ATOM      2  N   UNL     1       5.849   1.707   6.642  0.00  0.00    -0.372 N 
ATOM      3  N   UNL     1       5.400   0.202   4.970  0.00  0.00    -0.372 N 
ATOM      4  C   UNL     1       4.959   1.128   5.828  0.00  0.00    +0.166 C 
ATOM      5  H   UNL     1       3.394   2.172   6.585  0.00  0.00    +0.163 HD
ATOM      6  H   UNL     1       6.829   1.461   6.615  0.00  0.00    +0.159 HD
ATOM      7  H   UNL     1       5.579   2.426   7.303  0.00  0.00    +0.159 HD
ATOM      8  H   UNL     1       4.778  -0.276   4.332  0.00  0.00    +0.159 HD
ATOM      9  H   UNL     1       6.375  -0.067   4.935  0.00  0.00    +0.159 HD
ENDROOT
BRANCH   1  10
ATOM     10  C   UNL     1       2.629   0.955   5.012  0.00  0.00    +0.151 C 
BRANCH  10  11
ATOM     11  C   UNL     1       1.530   0.365   5.852  0.00  0.00    -0.028 A 
ATOM     12  C   UNL     1       1.191   0.938   7.087  0.00  0.00    +0.005 A 
ATOM     13  C   UNL     1       0.821  -0.765   5.416  0.00  0.00    +0.005 A 
ATOM     14  C   UNL     1       0.151   0.407   7.853  0.00  0.00    +0.000 A 
ATOM     15  C   UNL     1      -0.217  -1.292   6.185  0.00  0.00    +0.000 A 
ATOM     16  C   UNL     1      -0.553  -0.704   7.402  0.00  0.00    +0.000 A 
ENDBRANCH  10  11
ENDBRANCH   1  10
TORSDOF 2
ENDMDL
MODEL 7
REMARK VINA RESULT:    -5.052     32.452     33.733
REMARK INTER + INTRA:          -5.708
REMARK INTER:                  -5.599
REMARK INTRA:                  -0.109
REMARK UNBOUND:                -0.066
REMARK  Name = 1550473
REMARK  2 active torsions:
REMARK  status: ('A' for Active; 'I' for Inactive)
REMARK    1  A    between atoms: N_1  and  C_4
REMARK    2  A    between atoms: C_4  and  C_5
REMARK                            x       y       z     vdW  Elec       q    Type
REMARK                         _______ _______ _______ _____ _____    ______ ____
ROOT
ATOM      1  N   UNL     1       2.827  -2.802 -18.154  0.00  0.00    -0.354 N 
ATOM      2  N   UNL     1       2.101  -4.860 -17.377  0.00  0.00    -0.372 N 
ATOM      3  N   UNL     1       4.169  -4.099 -16.737  0.00  0.00    -0.372 N 
ATOM      4  C   UNL     1       3.040  -3.907 -17.427  0.00  0.00    +0.166 C 
ATOM      5  H   UNL     1       1.962  -2.731 -18.679  0.00  0.00    +0.163 HD
ATOM      6  H   UNL     1       2.232  -5.703 -16.834  0.00  0.00    +0.159 HD
ATOM      7  H   UNL     1       1.219  -4.765 -17.865  0.00  0.00    +0.159 HD
ATOM      8  H   UNL     1       4.919  -3.421 -16.738  0.00  0.00    +0.159 HD
ATOM      9  H   UNL     1       4.323  -4.941 -16.197  0.00  0.00    +0.159 HD
ENDROOT
BRANCH   1  10
ATOM     10  C   UNL     1       3.762  -1.681 -18.232  0.00  0.00    +0.151 C 
BRANCH  10  11
ATOM     11  C   UNL     1       3.549  -0.781 -17.046  0.00  0.00    -0.028 A 
ATOM     12  C   UNL     1       2.257  -0.367 -16.689  0.00  0.00    +0.005 A 
ATOM     13  C   UNL     1       4.634  -0.343 -16.272  0.00  0.00    +0.005 A 
ATOM     14  C   UNL     1       2.056   0.444 -15.570  0.00  0.00    +0.000 A 
ATOM     15  C   UNL     1       4.429   0.468 -15.156  0.00  0.00    +0.000 A 
ATOM     16  C   UNL     1       3.140   0.860 -14.804  0.00  0.00    +0.000 A 
ENDBRANCH  10  11
ENDBRANCH   1  10
TORSDOF 2
ENDMDL
MODEL 8
REMARK VINA RESULT:    -4.931     35.760     37.223
REMARK INTER + INTRA:          -5.574
REMARK INTER:                  -5.457
REMARK INTRA:                  -0.117
REMARK UNBOUND:                -0.066
REMARK  Name = 1550473
REMARK  2 active torsions:
REMARK  status: ('A' for Active; 'I' for Inactive)
REMARK    1  A    between atoms: N_1  and  C_4
REMARK    2  A    between atoms: C_4  and  C_5
REMARK                            x       y       z     vdW  Elec       q    Type
REMARK                         _______ _______ _______ _____ _____    ______ ____
ROOT
ATOM      1  N   UNL     1      -0.904  -4.284 -18.983  0.00  0.00    -0.354 N 
ATOM      2  N   UNL     1      -1.074  -2.098 -18.238  0.00  0.00    -0.372 N 
ATOM      3  N   UNL     1      -0.718  -3.767 -16.705  0.00  0.00    -0.372 N 
ATOM      4  C   UNL     1      -0.898  -3.398 -17.978  0.00  0.00    +0.166 C 
ATOM      5  H   UNL     1      -1.076  -3.944 -19.923  0.00  0.00    +0.163 HD
ATOM      6  H   UNL     1      -1.071  -1.406 -17.501  0.00  0.00    +0.159 HD
ATOM      7  H   UNL     1      -1.200  -1.755 -19.183  0.00  0.00    +0.159 HD
ATOM      8  H   UNL     1      -0.585  -4.734 -16.441  0.00  0.00    +0.159 HD
ATOM      9  H   UNL     1      -0.723  -3.091 -15.952  0.00  0.00    +0.159 HD
ENDROOT
BRANCH   1  10
ATOM     10  C   UNL     1      -0.667  -5.716 -18.813  0.00  0.00    +0.151 C 
BRANCH  10  11
ATOM     11  C   UNL     1      -1.502  -6.474 -19.808  0.00  0.00    -0.028 A 
ATOM     12  C   UNL     1      -0.893  -7.214 -20.832  0.00  0.00    +0.005 A 
ATOM     13  C   UNL     1      -2.903  -6.461 -19.729  0.00  0.00    +0.005 A 
ATOM     14  C   UNL     1      -1.667  -7.942 -21.738  0.00  0.00    +0.000 A 
ATOM     15  C   UNL     1      -3.673  -7.189 -20.636  0.00  0.00    +0.000 A 
ATOM     16  C   UNL     1      -3.054  -7.931 -21.639  0.00  0.00    +0.000 A 
ENDBRANCH  10  11
ENDBRANCH   1  10
TORSDOF 2
ENDMDL
MODEL 9
REMARK VINA RESULT:    -4.873     33.524     34.542
REMARK INTER + INTRA:          -5.509
REMARK INTER:                  -5.384
REMARK INTRA:                  -0.125
REMARK UNBOUND:                -0.066
REMARK  Name = 1550473
REMARK  2 active torsions:
REMARK  status: ('A' for Active; 'I' for Inactive)
REMARK    1  A    between atoms: N_1  and  C_4
REMARK    2  A    between atoms: C_4  and  C_5
REMARK                            x       y       z     vdW  Elec       q    Type
REMARK                         _______ _______ _______ _____ _____    ______ ____
ROOT
ATOM      1  N   UNL     1       3.647  -3.779 -16.581  0.00  0.00    -0.354 N 
ATOM      2  N   UNL     1       5.680  -4.760 -17.101  0.00  0.00    -0.372 N 
ATOM      3  N   UNL     1       5.151  -2.737 -18.046  0.00  0.00    -0.372 N 
ATOM      4  C   UNL     1       4.813  -3.750 -17.241  0.00  0.00    +0.166 C 
ATOM      5  H   UNL     1       3.437  -4.589 -16.010  0.00  0.00    +0.163 HD
ATOM      6  H   UNL     1       6.568  -4.764 -17.583  0.00  0.00    +0.159 HD
ATOM      7  H   UNL     1       5.487  -5.547 -16.493  0.00  0.00    +0.159 HD
ATOM      8  H   UNL     1       4.538  -1.947 -18.199  0.00  0.00    +0.159 HD
ATOM      9  H   UNL     1       6.031  -2.729 -18.547  0.00  0.00    +0.159 HD
ENDROOT
BRANCH   1  10
ATOM     10  C   UNL     1       2.657  -2.704 -16.623  0.00  0.00    +0.151 C 
BRANCH  10  11
ATOM     11  C   UNL     1       1.364  -3.249 -17.163  0.00  0.00    -0.028 A 
ATOM     12  C   UNL     1       0.164  -2.544 -16.984  0.00  0.00    +0.005 A 
ATOM     13  C   UNL     1       1.331  -4.467 -17.859  0.00  0.00    +0.005 A 
ATOM     14  C   UNL     1      -1.033  -3.034 -17.512  0.00  0.00    +0.000 A 
ATOM     15  C   UNL     1       0.134  -4.954 -18.383  0.00  0.00    +0.000 A 
ATOM     16  C   UNL     1      -1.047  -4.236 -18.212  0.00  0.00    +0.000 A 
ENDBRANCH  10  11
ENDBRANCH   1  10
TORSDOF 2
ENDMDL
