MODEL 1
REMARK VINA RESULT:    -4.723      0.000      0.000
REMARK INTER + INTRA:          -5.395
REMARK INTER:                  -5.276
REMARK INTRA:                  -0.119
REMARK UNBOUND:                -0.119
REMARK  Name = 1550473
REMARK  2 active torsions:
REMARK  status: ('A' for Active; 'I' for Inactive)
REMARK    1  A    between atoms: N_1  and  C_4
REMARK    2  A    between atoms: C_4  and  C_5
REMARK                            x       y       z     vdW  Elec       q    Type
REMARK                         _______ _______ _______ _____ _____    ______ ____
ROOT
ATOM      1  N   UNL     1     -22.110 -17.588 -16.396  0.00  0.00    -0.354 N 
ATOM      2  N   UNL     1     -20.627 -19.288 -16.922  0.00  0.00    -0.372 N 
ATOM      3  N   UNL     1     -20.932 -17.579 -18.423  0.00  0.00    -0.372 N 
ATOM      4  C   UNL     1     -21.233 -18.139 -17.246  0.00  0.00    +0.166 C 
ATOM      5  H   UNL     1     -22.317 -18.078 -15.534  0.00  0.00    +0.163 HD
ATOM      6  H   UNL     1     -19.958 -19.725 -17.541  0.00  0.00    +0.159 HD
ATOM      7  H   UNL     1     -20.801 -19.752 -16.039  0.00  0.00    +0.159 HD
ATOM      8  H   UNL     1     -21.359 -16.715 -18.729  0.00  0.00    +0.159 HD
ATOM      9  H   UNL     1     -20.274 -18.008 -19.061  0.00  0.00    +0.159 HD
ENDROOT
BRANCH   1  10
ATOM     10  C   UNL     1     -22.783 -16.312 -16.630  0.00  0.00    +0.151 C 
BRANCH  10  11
ATOM     11  C   UNL     1     -24.229 -16.441 -16.238  0.00  0.00    -0.028 A 
ATOM     12  C   UNL     1     -25.240 -15.944 -17.073  0.00  0.00    +0.005 A 
ATOM     13  C   UNL     1     -24.595 -17.064 -15.035  0.00  0.00    +0.005 A 
ATOM     14  C   UNL     1     -26.585 -16.090 -16.723  0.00  0.00    +0.000 A 
ATOM     15  C   UNL     1     -25.939 -17.207 -14.689  0.00  0.00    +0.000 A 
ATOM     16  C   UNL     1     -26.933 -16.722 -15.534  0.00  0.00    +0.000 A 
ENDBRANCH  10  11
ENDBRANCH   1  10
TORSDOF 2
ENDMDL
MODEL 2
REMARK VINA RESULT:    -4.517     34.487     35.484
REMARK INTER + INTRA:          -5.165
REMARK INTER:                  -5.024
REMARK INTRA:                  -0.141
REMARK UNBOUND:                -0.119
REMARK  Name = 1550473
REMARK  2 active torsions:
REMARK  status: ('A' for Active; 'I' for Inactive)
REMARK    1  A    between atoms: N_1  and  C_4
REMARK    2  A    between atoms: C_4  and  C_5
REMARK                            x       y       z     vdW  Elec       q    Type
REMARK                         _______ _______ _______ _____ _____    ______ ____
ROOT
ATOM      1  N   UNL     1       7.101   0.046  -6.056  0.00  0.00    -0.354 N 
ATOM      2  N   UNL     1       9.121   0.909  -6.791  0.00  0.00    -0.372 N 
ATOM      3  N   UNL     1       8.185  -0.848  -7.932  0.00  0.00    -0.372 N 
ATOM      4  C   UNL     1       8.122   0.028  -6.923  0.00  0.00    +0.166 C 
ATOM      5  H   UNL     1       7.127   0.715  -5.296  0.00  0.00    +0.163 HD
ATOM      6  H   UNL     1       9.903   0.922  -7.432  0.00  0.00    +0.159 HD
ATOM      7  H   UNL     1       9.122   1.607  -6.057  0.00  0.00    +0.159 HD
ATOM      8  H   UNL     1       7.466  -1.543  -8.083  0.00  0.00    +0.159 HD
ATOM      9  H   UNL     1       8.966  -0.859  -8.577  0.00  0.00    +0.159 HD
ENDROOT
BRANCH   1  10
ATOM     10  C   UNL     1       5.938  -0.835  -6.144  0.00  0.00    +0.151 C 
BRANCH  10  11
ATOM     11  C   UNL     1       4.693   0.003  -6.245  0.00  0.00    -0.028 A 
ATOM     12  C   UNL     1       4.049   0.462  -5.087  0.00  0.00    +0.005 A 
ATOM     13  C   UNL     1       4.157   0.346  -7.496  0.00  0.00    +0.005 A 
ATOM     14  C   UNL     1       2.910   1.265  -5.181  0.00  0.00    +0.000 A 
ATOM     15  C   UNL     1       3.019   1.147  -7.585  0.00  0.00    +0.000 A 
ATOM     16  C   UNL     1       2.397   1.609  -6.427  0.00  0.00    +0.000 A 
ENDBRANCH  10  11
ENDBRANCH   1  10
TORSDOF 2
ENDMDL
MODEL 3
REMARK VINA RESULT:    -4.447     34.269     35.557
REMARK INTER + INTRA:          -5.086
REMARK INTER:                  -4.940
REMARK INTRA:                  -0.146
REMARK UNBOUND:                -0.119
REMARK  Name = 1550473
REMARK  2 active torsions:
REMARK  status: ('A' for Active; 'I' for Inactive)
REMARK    1  A    between atoms: N_1  and  C_4
REMARK    2  A    between atoms: C_4  and  C_5
REMARK                            x       y       z     vdW  Elec       q    Type
REMARK                         _______ _______ _______ _____ _____    ______ ____
ROOT
ATOM      1  N   UNL     1       3.533   0.285  -6.204  0.00  0.00    -0.354 N 
ATOM      2  N   UNL     1       2.032   2.048  -6.131  0.00  0.00    -0.372 N 
ATOM      3  N   UNL     1       3.496   1.765  -4.387  0.00  0.00    -0.372 N 
ATOM      4  C   UNL     1       3.031   1.355  -5.572  0.00  0.00    +0.166 C 
ATOM      5  H   UNL     1       3.116   0.008  -7.086  0.00  0.00    +0.163 HD
ATOM      6  H   UNL     1       1.635   2.861  -5.679  0.00  0.00    +0.159 HD
ATOM      7  H   UNL     1       1.648   1.796  -7.033  0.00  0.00    +0.159 HD
ATOM      8  H   UNL     1       4.245   1.281  -3.909  0.00  0.00    +0.159 HD
ATOM      9  H   UNL     1       3.104   2.569  -3.913  0.00  0.00    +0.159 HD
ENDROOT
BRANCH   1  10
ATOM     10  C   UNL     1       4.657  -0.506  -5.707  0.00  0.00    +0.151 C 
BRANCH  10  11
ATOM     11  C   UNL     1       5.798  -0.405  -6.681  0.00  0.00    -0.028 A 
ATOM     12  C   UNL     1       5.558  -0.430  -8.063  0.00  0.00    +0.005 A 
ATOM     13  C   UNL     1       7.120  -0.279  -6.229  0.00  0.00    +0.005 A 
ATOM     14  C   UNL     1       6.614  -0.306  -8.969  0.00  0.00    +0.000 A 
ATOM     15  C   UNL     1       8.172  -0.156  -7.137  0.00  0.00    +0.000 A 
ATOM     16  C   UNL     1       7.919  -0.168  -8.506  0.00  0.00    +0.000 A 
ENDBRANCH  10  11
ENDBRANCH   1  10
TORSDOF 2
ENDMDL
MODEL 4
REMARK VINA RESULT:    -4.402     31.019     32.188
REMARK INTER + INTRA:          -5.036
REMARK INTER:                  -4.855
REMARK INTRA:                  -0.182
REMARK UNBOUND:                -0.119
REMARK  Name = 1550473
REMARK  2 active torsions:
REMARK  status: ('A' for Active; 'I' for Inactive)
REMARK    1  A    between atoms: N_1  and  C_4
REMARK    2  A    between atoms: C_4  and  C_5
REMARK                            x       y       z     vdW  Elec       q    Type
REMARK                         _______ _______ _______ _____ _____    ______ ____
ROOT
ATOM      1  N   UNL     1       1.824   0.659  -5.463  0.00  0.00    -0.354 N 
ATOM      2  N   UNL     1       3.014   2.217  -4.230  0.00  0.00    -0.372 N 
ATOM      3  N   UNL     1       4.059   0.278  -4.870  0.00  0.00    -0.372 N 
ATOM      4  C   UNL     1       2.960   1.039  -4.862  0.00  0.00    +0.166 C 
ATOM      5  H   UNL     1       1.017   1.268  -5.395  0.00  0.00    +0.163 HD
ATOM      6  H   UNL     1       3.858   2.532  -3.771  0.00  0.00    +0.159 HD
ATOM      7  H   UNL     1       2.219   2.845  -4.202  0.00  0.00    +0.159 HD
ATOM      8  H   UNL     1       4.082  -0.625  -5.325  0.00  0.00    +0.159 HD
ATOM      9  H   UNL     1       4.910   0.571  -4.407  0.00  0.00    +0.159 HD
ENDROOT
BRANCH   1  10
ATOM     10  C   UNL     1       1.677  -0.580  -6.224  0.00  0.00    +0.151 C 
BRANCH  10  11
ATOM     11  C   UNL     1       0.975  -1.600  -5.371  0.00  0.00    -0.028 A 
ATOM     12  C   UNL     1       1.694  -2.648  -4.778  0.00  0.00    +0.005 A 
ATOM     13  C   UNL     1      -0.408  -1.521  -5.147  0.00  0.00    +0.005 A 
ATOM     14  C   UNL     1       1.047  -3.579  -3.961  0.00  0.00    +0.000 A 
ATOM     15  C   UNL     1      -1.050  -2.453  -4.332  0.00  0.00    +0.000 A 
ATOM     16  C   UNL     1      -0.322  -3.480  -3.737  0.00  0.00    +0.000 A 
ENDBRANCH  10  11
ENDBRANCH   1  10
TORSDOF 2
ENDMDL
MODEL 5
REMARK VINA RESULT:    -4.358      9.925     11.243
REMARK INTER + INTRA:          -4.986
REMARK INTER:                  -4.840
REMARK INTRA:                  -0.146
REMARK UNBOUND:                -0.119
REMARK  Name = 1550473
REMARK  2 active torsions:
REMARK  status: ('A' for Active; 'I' for Inactive)
REMARK    1  A    between atoms: N_1  and  C_4
REMARK    2  A    between atoms: C_4  and  C_5
REMARK                            x       y       z     vdW  Elec       q    Type
REMARK                         _______ _______ _______ _____ _____    ______ ____
ROOT
ATOM      1  N   UNL     1     -30.533 -17.908  -9.400  0.00  0.00    -0.354 N 
ATOM      2  N   UNL     1     -32.613 -17.090 -10.007  0.00  0.00    -0.372 N 
ATOM      3  N   UNL     1     -32.074 -17.205  -7.780  0.00  0.00    -0.372 N 
ATOM      4  C   UNL     1     -31.727 -17.406  -9.055  0.00  0.00    +0.166 C 
ATOM      5  H   UNL     1     -30.342 -18.064 -10.383  0.00  0.00    +0.163 HD
ATOM      6  H   UNL     1     -33.520 -16.706  -9.778  0.00  0.00    +0.159 HD
ATOM      7  H   UNL     1     -32.402 -17.204 -10.991  0.00  0.00    +0.159 HD
ATOM      8  H   UNL     1     -31.453 -17.429  -7.014  0.00  0.00    +0.159 HD
ATOM      9  H   UNL     1     -32.982 -16.834  -7.530  0.00  0.00    +0.159 HD
ENDROOT
BRANCH   1  10
ATOM     10  C   UNL     1     -29.477 -18.235  -8.443  0.00  0.00    +0.151 C 
BRANCH  10  11
ATOM     11  C   UNL     1     -29.184 -19.708  -8.520  0.00  0.00    -0.028 A 
ATOM     12  C   UNL     1     -28.882 -20.435  -7.359  0.00  0.00    +0.005 A 
ATOM     13  C   UNL     1     -29.212 -20.383  -9.750  0.00  0.00    +0.005 A 
ATOM     14  C   UNL     1     -28.640 -21.809  -7.426  0.00  0.00    +0.000 A 
ATOM     15  C   UNL     1     -28.968 -21.755  -9.812  0.00  0.00    +0.000 A 
ATOM     16  C   UNL     1     -28.684 -22.468  -8.650  0.00  0.00    +0.000 A 
ENDBRANCH  10  11
ENDBRANCH   1  10
TORSDOF 2
ENDMDL
MODEL 6
REMARK VINA RESULT:    -4.252     31.591     32.991
REMARK INTER + INTRA:          -4.868
REMARK INTER:                  -4.792
REMARK INTRA:                  -0.077
REMARK UNBOUND:                -0.119
REMARK  Name = 1550473
REMARK  2 active torsions:
REMARK  status: ('A' for Active; 'I' for Inactive)
REMARK    1  A    between atoms: N_1  and  C_4
REMARK    2  A    between atoms: C_4  and  C_5
REMARK                            x       y       z     vdW  Elec       q    Type
REMARK                         _______ _______ _______ _____ _____    ______ ____
ROOT
ATOM      1  N   UNL     1     -52.064 -22.505 -28.572  0.00  0.00    -0.354 N 
ATOM      2  N   UNL     1     -50.547 -24.016 -29.456  0.00  0.00    -0.372 N 
ATOM      3  N   UNL     1     -50.916 -22.039 -30.561  0.00  0.00    -0.372 N 
ATOM      4  C   UNL     1     -51.185 -22.841 -29.526  0.00  0.00    +0.166 C 
ATOM      5  H   UNL     1     -52.246 -23.171 -27.829  0.00  0.00    +0.163 HD
ATOM      6  H   UNL     1     -49.876 -24.295 -30.159  0.00  0.00    +0.159 HD
ATOM      7  H   UNL     1     -50.697 -24.659 -28.688  0.00  0.00    +0.159 HD
ATOM      8  H   UNL     1     -51.368 -21.142 -30.675  0.00  0.00    +0.159 HD
ATOM      9  H   UNL     1     -50.256 -22.306 -31.281  0.00  0.00    +0.159 HD
ENDROOT
BRANCH   1  10
ATOM     10  C   UNL     1     -52.772 -21.227 -28.526  0.00  0.00    +0.151 C 
BRANCH  10  11
ATOM     11  C   UNL     1     -54.223 -21.458 -28.847  0.00  0.00    -0.028 A 
ATOM     12  C   UNL     1     -55.225 -20.772 -28.146  0.00  0.00    +0.005 A 
ATOM     13  C   UNL     1     -54.601 -22.357 -29.856  0.00  0.00    +0.005 A 
ATOM     14  C   UNL     1     -56.572 -20.964 -28.464  0.00  0.00    +0.000 A 
ATOM     15  C   UNL     1     -55.947 -22.547 -30.170  0.00  0.00    +0.000 A 
ATOM     16  C   UNL     1     -56.932 -21.848 -29.476  0.00  0.00    +0.000 A 
ENDBRANCH  10  11
ENDBRANCH   1  10
TORSDOF 2
ENDMDL
MODEL 7
REMARK VINA RESULT:    -4.091     17.216     18.954
REMARK INTER + INTRA:          -4.689
REMARK INTER:                  -4.516
REMARK INTRA:                  -0.173
REMARK UNBOUND:                -0.119
REMARK  Name = 1550473
REMARK  2 active torsions:
REMARK  status: ('A' for Active; 'I' for Inactive)
REMARK    1  A    between atoms: N_1  and  C_4
REMARK    2  A    between atoms: C_4  and  C_5
REMARK                            x       y       z     vdW  Elec       q    Type
REMARK                         _______ _______ _______ _____ _____    ______ ____
ROOT
ATOM      1  N   UNL     1     -42.804 -20.206 -15.850  0.00  0.00    -0.354 N 
ATOM      2  N   UNL     1     -43.801 -20.400 -17.931  0.00  0.00    -0.372 N 
ATOM      3  N   UNL     1     -44.239 -21.993 -16.340  0.00  0.00    -0.372 N 
ATOM      4  C   UNL     1     -43.609 -20.868 -16.692  0.00  0.00    +0.166 C 
ATOM      5  H   UNL     1     -42.332 -19.375 -16.188  0.00  0.00    +0.163 HD
ATOM      6  H   UNL     1     -44.405 -20.876 -18.588  0.00  0.00    +0.159 HD
ATOM      7  H   UNL     1     -43.364 -19.544 -18.252  0.00  0.00    +0.159 HD
ATOM      8  H   UNL     1     -44.132 -22.402 -15.421  0.00  0.00    +0.159 HD
ATOM      9  H   UNL     1     -44.839 -22.490 -16.986  0.00  0.00    +0.159 HD
ENDROOT
BRANCH   1  10
ATOM     10  C   UNL     1     -42.571 -20.602 -14.462  0.00  0.00    +0.151 C 
BRANCH  10  11
ATOM     11  C   UNL     1     -41.273 -21.357 -14.378  0.00  0.00    -0.028 A 
ATOM     12  C   UNL     1     -41.265 -22.759 -14.365  0.00  0.00    +0.005 A 
ATOM     13  C   UNL     1     -40.048 -20.676 -14.318  0.00  0.00    +0.005 A 
ATOM     14  C   UNL     1     -40.058 -23.462 -14.317  0.00  0.00    +0.000 A 
ATOM     15  C   UNL     1     -38.845 -21.381 -14.270  0.00  0.00    +0.000 A 
ATOM     16  C   UNL     1     -38.851 -22.773 -14.272  0.00  0.00    +0.000 A 
ENDBRANCH  10  11
ENDBRANCH   1  10
TORSDOF 2
ENDMDL
MODEL 8
REMARK VINA RESULT:    -4.089     10.480     11.765
REMARK INTER + INTRA:          -4.687
REMARK INTER:                  -4.572
REMARK INTRA:                  -0.115
REMARK UNBOUND:                -0.119
REMARK  Name = 1550473
REMARK  2 active torsions:
REMARK  status: ('A' for Active; 'I' for Inactive)
REMARK    1  A    between atoms: N_1  and  C_4
REMARK    2  A    between atoms: C_4  and  C_5
REMARK                            x       y       z     vdW  Elec       q    Type
REMARK                         _______ _______ _______ _____ _____    ______ ____
ROOT
ATOM      1  N   UNL     1     -29.378 -17.471  -5.354  0.00  0.00    -0.354 N 
ATOM      2  N   UNL     1     -29.213 -15.220  -4.837  0.00  0.00    -0.372 N 
ATOM      3  N   UNL     1     -27.354 -16.547  -4.619  0.00  0.00    -0.372 N 
ATOM      4  C   UNL     1     -28.647 -16.428  -4.939  0.00  0.00    +0.166 C 
ATOM      5  H   UNL     1     -30.361 -17.322  -5.552  0.00  0.00    +0.163 HD
ATOM      6  H   UNL     1     -28.685 -14.413  -4.531  0.00  0.00    +0.159 HD
ATOM      7  H   UNL     1     -30.183 -15.064  -5.080  0.00  0.00    +0.159 HD
ATOM      8  H   UNL     1     -26.869 -17.433  -4.669  0.00  0.00    +0.159 HD
ATOM      9  H   UNL     1     -26.812 -15.754  -4.300  0.00  0.00    +0.159 HD
ENDROOT
BRANCH   1  10
ATOM     10  C   UNL     1     -28.844 -18.818  -5.550  0.00  0.00    +0.151 C 
BRANCH  10  11
ATOM     11  C   UNL     1     -29.001 -19.202  -6.996  0.00  0.00    -0.028 A 
ATOM     12  C   UNL     1     -29.026 -20.553  -7.375  0.00  0.00    +0.005 A 
ATOM     13  C   UNL     1     -29.131 -18.221  -7.991  0.00  0.00    +0.005 A 
ATOM     14  C   UNL     1     -29.202 -20.911  -8.713  0.00  0.00    +0.000 A 
ATOM     15  C   UNL     1     -29.306 -18.583  -9.326  0.00  0.00    +0.000 A 
ATOM     16  C   UNL     1     -29.344 -19.927  -9.687  0.00  0.00    +0.000 A 
ENDBRANCH  10  11
ENDBRANCH   1  10
TORSDOF 2
ENDMDL
MODEL 9
REMARK VINA RESULT:    -4.030     35.769     36.935
REMARK INTER + INTRA:          -4.620
REMARK INTER:                  -4.489
REMARK INTRA:                  -0.131
REMARK UNBOUND:                -0.119
REMARK  Name = 1550473
REMARK  2 active torsions:
REMARK  status: ('A' for Active; 'I' for Inactive)
REMARK    1  A    between atoms: N_1  and  C_4
REMARK    2  A    between atoms: C_4  and  C_5
REMARK                            x       y       z     vdW  Elec       q    Type
REMARK                         _______ _______ _______ _____ _____    ______ ____
ROOT
ATOM      1  N   UNL     1      -2.950   8.780  -5.263  0.00  0.00    -0.354 N 
ATOM      2  N   UNL     1      -5.125   8.106  -4.840  0.00  0.00    -0.372 N 
ATOM      3  N   UNL     1      -4.727   9.533  -6.592  0.00  0.00    -0.372 N 
ATOM      4  C   UNL     1      -4.254   8.813  -5.570  0.00  0.00    +0.166 C 
ATOM      5  H   UNL     1      -2.658   8.238  -4.458  0.00  0.00    +0.163 HD
ATOM      6  H   UNL     1      -6.114   8.108  -5.049  0.00  0.00    +0.159 HD
ATOM      7  H   UNL     1      -4.825   7.529  -4.063  0.00  0.00    +0.159 HD
ATOM      8  H   UNL     1      -4.123  10.093  -7.178  0.00  0.00    +0.159 HD
ATOM      9  H   UNL     1      -5.716   9.557  -6.810  0.00  0.00    +0.159 HD
ENDROOT
BRANCH   1  10
ATOM     10  C   UNL     1      -1.913   9.471  -6.027  0.00  0.00    +0.151 C 
BRANCH  10  11
ATOM     11  C   UNL     1      -0.827   9.919  -5.089  0.00  0.00    -0.028 A 
ATOM     12  C   UNL     1      -1.125  10.239  -3.756  0.00  0.00    +0.005 A 
ATOM     13  C   UNL     1       0.504  10.019  -5.524  0.00  0.00    +0.005 A 
ATOM     14  C   UNL     1      -0.112  10.626  -2.875  0.00  0.00    +0.000 A 
ATOM     15  C   UNL     1       1.512  10.407  -4.642  0.00  0.00    +0.000 A 
ATOM     16  C   UNL     1       1.204  10.708  -3.317  0.00  0.00    +0.000 A 
ENDBRANCH  10  11
ENDBRANCH   1  10
TORSDOF 2
ENDMDL
