MODEL 1
REMARK VINA RESULT:    -6.308      0.000      0.000
REMARK INTER + INTRA:          -7.209
REMARK INTER:                  -7.046
REMARK INTRA:                  -0.163
REMARK UNBOUND:                -0.163
REMARK  Name = 1550473
REMARK  2 active torsions:
REMARK  status: ('A' for Active; 'I' for Inactive)
REMARK    1  A    between atoms: N_1  and  C_4
REMARK    2  A    between atoms: C_4  and  C_5
REMARK                            x       y       z     vdW  Elec       q    Type
REMARK                         _______ _______ _______ _____ _____    ______ ____
ROOT
ATOM      1  N   UNL     1       1.118   5.086   2.244  0.00  0.00    -0.354 N 
ATOM      2  N   UNL     1      -1.075   5.828   2.185  0.00  0.00    -0.372 N 
ATOM      3  N   UNL     1      -0.670   3.584   2.435  0.00  0.00    -0.372 N 
ATOM      4  C   UNL     1      -0.195   4.825   2.288  0.00  0.00    +0.166 C 
ATOM      5  H   UNL     1       1.414   6.044   2.101  0.00  0.00    +0.163 HD
ATOM      6  H   UNL     1      -2.072   5.663   2.219  0.00  0.00    +0.159 HD
ATOM      7  H   UNL     1      -0.776   6.791   2.088  0.00  0.00    +0.159 HD
ATOM      8  H   UNL     1      -0.059   2.782   2.513  0.00  0.00    +0.159 HD
ATOM      9  H   UNL     1      -1.665   3.396   2.459  0.00  0.00    +0.159 HD
ENDROOT
BRANCH   1  10
ATOM     10  C   UNL     1       2.159   4.071   2.401  0.00  0.00    +0.151 C 
BRANCH  10  11
ATOM     11  C   UNL     1       2.831   4.259   3.734  0.00  0.00    -0.028 A 
ATOM     12  C   UNL     1       4.093   4.865   3.815  0.00  0.00    +0.005 A 
ATOM     13  C   UNL     1       2.207   3.839   4.919  0.00  0.00    +0.005 A 
ATOM     14  C   UNL     1       4.704   5.067   5.055  0.00  0.00    +0.000 A 
ATOM     15  C   UNL     1       2.821   4.042   6.155  0.00  0.00    +0.000 A 
ATOM     16  C   UNL     1       4.068   4.658   6.223  0.00  0.00    +0.000 A 
ENDBRANCH  10  11
ENDBRANCH   1  10
TORSDOF 2
ENDMDL
MODEL 2
REMARK VINA RESULT:    -5.517      2.704      4.732
REMARK INTER + INTRA:          -6.326
REMARK INTER:                  -6.195
REMARK INTRA:                  -0.131
REMARK UNBOUND:                -0.163
REMARK  Name = 1550473
REMARK  2 active torsions:
REMARK  status: ('A' for Active; 'I' for Inactive)
REMARK    1  A    between atoms: N_1  and  C_4
REMARK    2  A    between atoms: C_4  and  C_5
REMARK                            x       y       z     vdW  Elec       q    Type
REMARK                         _______ _______ _______ _____ _____    ______ ____
ROOT
ATOM      1  N   UNL     1       4.058   5.034   3.550  0.00  0.00    -0.354 N 
ATOM      2  N   UNL     1       4.870   6.026   5.478  0.00  0.00    -0.372 N 
ATOM      3  N   UNL     1       4.642   3.744   5.417  0.00  0.00    -0.372 N 
ATOM      4  C   UNL     1       4.518   4.925   4.803  0.00  0.00    +0.166 C 
ATOM      5  H   UNL     1       3.959   5.961   3.152  0.00  0.00    +0.163 HD
ATOM      6  H   UNL     1       5.224   5.975   6.424  0.00  0.00    +0.159 HD
ATOM      7  H   UNL     1       4.814   6.948   5.062  0.00  0.00    +0.159 HD
ATOM      8  H   UNL     1       4.388   2.876   4.964  0.00  0.00    +0.159 HD
ATOM      9  H   UNL     1       4.983   3.673   6.367  0.00  0.00    +0.159 HD
ENDROOT
BRANCH   1  10
ATOM     10  C   UNL     1       3.698   3.893   2.709  0.00  0.00    +0.151 C 
BRANCH  10  11
ATOM     11  C   UNL     1       2.253   4.015   2.309  0.00  0.00    -0.028 A 
ATOM     12  C   UNL     1       1.839   3.653   1.019  0.00  0.00    +0.005 A 
ATOM     13  C   UNL     1       1.293   4.486   3.217  0.00  0.00    +0.005 A 
ATOM     14  C   UNL     1       0.493   3.737   0.656  0.00  0.00    +0.000 A 
ATOM     15  C   UNL     1      -0.050   4.570   2.850  0.00  0.00    +0.000 A 
ATOM     16  C   UNL     1      -0.450   4.193   1.571  0.00  0.00    +0.000 A 
ENDBRANCH  10  11
ENDBRANCH   1  10
TORSDOF 2
ENDMDL
MODEL 3
REMARK VINA RESULT:    -4.676     20.293     21.512
REMARK INTER + INTRA:          -5.386
REMARK INTER:                  -5.216
REMARK INTRA:                  -0.170
REMARK UNBOUND:                -0.163
REMARK  Name = 1550473
REMARK  2 active torsions:
REMARK  status: ('A' for Active; 'I' for Inactive)
REMARK    1  A    between atoms: N_1  and  C_4
REMARK    2  A    between atoms: C_4  and  C_5
REMARK                            x       y       z     vdW  Elec       q    Type
REMARK                         _______ _______ _______ _____ _____    ______ ____
ROOT
ATOM      1  N   UNL     1       9.554  10.447  22.205  0.00  0.00    -0.354 N 
ATOM      2  N   UNL     1      10.440   9.065  23.838  0.00  0.00    -0.372 N 
ATOM      3  N   UNL     1      11.545   9.267  21.837  0.00  0.00    -0.372 N 
ATOM      4  C   UNL     1      10.509   9.602  22.614  0.00  0.00    +0.166 C 
ATOM      5  H   UNL     1       8.779  10.637  22.830  0.00  0.00    +0.163 HD
ATOM      6  H   UNL     1      11.148   8.427  24.176  0.00  0.00    +0.159 HD
ATOM      7  H   UNL     1       9.689   9.292  24.478  0.00  0.00    +0.159 HD
ATOM      8  H   UNL     1      11.652   9.633  20.900  0.00  0.00    +0.159 HD
ATOM      9  H   UNL     1      12.257   8.621  22.153  0.00  0.00    +0.159 HD
ENDROOT
BRANCH   1  10
ATOM     10  C   UNL     1       9.563  11.128  20.911  0.00  0.00    +0.151 C 
BRANCH  10  11
ATOM     11  C   UNL     1       9.964  12.563  21.113  0.00  0.00    -0.028 A 
ATOM     12  C   UNL     1      11.049  13.105  20.409  0.00  0.00    +0.005 A 
ATOM     13  C   UNL     1       9.260  13.387  22.004  0.00  0.00    +0.005 A 
ATOM     14  C   UNL     1      11.403  14.446  20.574  0.00  0.00    +0.000 A 
ATOM     15  C   UNL     1       9.617  14.725  22.167  0.00  0.00    +0.000 A 
ATOM     16  C   UNL     1      10.687  15.255  21.450  0.00  0.00    +0.000 A 
ENDBRANCH  10  11
ENDBRANCH   1  10
TORSDOF 2
ENDMDL
MODEL 4
REMARK VINA RESULT:    -4.514     12.237     12.935
REMARK INTER + INTRA:          -5.205
REMARK INTER:                  -5.051
REMARK INTRA:                  -0.155
REMARK UNBOUND:                -0.163
REMARK  Name = 1550473
REMARK  2 active torsions:
REMARK  status: ('A' for Active; 'I' for Inactive)
REMARK    1  A    between atoms: N_1  and  C_4
REMARK    2  A    between atoms: C_4  and  C_5
REMARK                            x       y       z     vdW  Elec       q    Type
REMARK                         _______ _______ _______ _____ _____    ______ ____
ROOT
ATOM      1  N   UNL     1       4.845  -8.995   4.483  0.00  0.00    -0.354 N 
ATOM      2  N   UNL     1       3.338  -8.896   2.727  0.00  0.00    -0.372 N 
ATOM      3  N   UNL     1       2.591  -8.468   4.854  0.00  0.00    -0.372 N 
ATOM      4  C   UNL     1       3.599  -8.786   4.035  0.00  0.00    +0.166 C 
ATOM      5  H   UNL     1       5.558  -9.263   3.815  0.00  0.00    +0.163 HD
ATOM      6  H   UNL     1       2.408  -8.741   2.359  0.00  0.00    +0.159 HD
ATOM      7  H   UNL     1       4.062  -9.119   2.056  0.00  0.00    +0.159 HD
ATOM      8  H   UNL     1       2.722  -8.376   5.853  0.00  0.00    +0.159 HD
ATOM      9  H   UNL     1       1.652  -8.321   4.507  0.00  0.00    +0.159 HD
ENDROOT
BRANCH   1  10
ATOM     10  C   UNL     1       5.246  -8.848   5.881  0.00  0.00    +0.151 C 
BRANCH  10  11
ATOM     11  C   UNL     1       6.145  -7.650   6.011  0.00  0.00    -0.028 A 
ATOM     12  C   UNL     1       6.204  -6.930   7.213  0.00  0.00    +0.005 A 
ATOM     13  C   UNL     1       6.946  -7.232   4.936  0.00  0.00    +0.005 A 
ATOM     14  C   UNL     1       7.061  -5.835   7.344  0.00  0.00    +0.000 A 
ATOM     15  C   UNL     1       7.800  -6.138   5.071  0.00  0.00    +0.000 A 
ATOM     16  C   UNL     1       7.859  -5.441   6.275  0.00  0.00    +0.000 A 
ENDBRANCH  10  11
ENDBRANCH   1  10
TORSDOF 2
ENDMDL
MODEL 5
REMARK VINA RESULT:    -4.372     16.019     17.184
REMARK INTER + INTRA:          -5.047
REMARK INTER:                  -4.916
REMARK INTRA:                  -0.131
REMARK UNBOUND:                -0.163
REMARK  Name = 1550473
REMARK  2 active torsions:
REMARK  status: ('A' for Active; 'I' for Inactive)
REMARK    1  A    between atoms: N_1  and  C_4
REMARK    2  A    between atoms: C_4  and  C_5
REMARK                            x       y       z     vdW  Elec       q    Type
REMARK                         _______ _______ _______ _____ _____    ______ ____
ROOT
ATOM      1  N   UNL     1      17.010   1.851   9.229  0.00  0.00    -0.354 N 
ATOM      2  N   UNL     1      17.507   1.288  11.420  0.00  0.00    -0.372 N 
ATOM      3  N   UNL     1      18.011   3.399  10.676  0.00  0.00    -0.372 N 
ATOM      4  C   UNL     1      17.508   2.186  10.427  0.00  0.00    +0.166 C 
ATOM      5  H   UNL     1      16.671   0.905   9.096  0.00  0.00    +0.163 HD
ATOM      6  H   UNL     1      17.872   1.513  12.336  0.00  0.00    +0.159 HD
ATOM      7  H   UNL     1      17.125   0.358  11.298  0.00  0.00    +0.159 HD
ATOM      8  H   UNL     1      18.047   4.120   9.967  0.00  0.00    +0.159 HD
ATOM      9  H   UNL     1      18.392   3.640  11.583  0.00  0.00    +0.159 HD
ENDROOT
BRANCH   1  10
ATOM     10  C   UNL     1      16.915   2.771   8.097  0.00  0.00    +0.151 C 
BRANCH  10  11
ATOM     11  C   UNL     1      17.714   2.221   6.949  0.00  0.00    -0.028 A 
ATOM     12  C   UNL     1      17.635   2.812   5.679  0.00  0.00    +0.005 A 
ATOM     13  C   UNL     1      18.557   1.113   7.124  0.00  0.00    +0.005 A 
ATOM     14  C   UNL     1      18.401   2.320   4.619  0.00  0.00    +0.000 A 
ATOM     15  C   UNL     1      19.319   0.624   6.063  0.00  0.00    +0.000 A 
ATOM     16  C   UNL     1      19.242   1.229   4.811  0.00  0.00    +0.000 A 
ENDBRANCH  10  11
ENDBRANCH   1  10
TORSDOF 2
ENDMDL
MODEL 6
REMARK VINA RESULT:    -4.320     15.915     17.368
REMARK INTER + INTRA:          -4.988
REMARK INTER:                  -4.822
REMARK INTRA:                  -0.166
REMARK UNBOUND:                -0.163
REMARK  Name = 1550473
REMARK  2 active torsions:
REMARK  status: ('A' for Active; 'I' for Inactive)
REMARK    1  A    between atoms: N_1  and  C_4
REMARK    2  A    between atoms: C_4  and  C_5
REMARK                            x       y       z     vdW  Elec       q    Type
REMARK                         _______ _______ _______ _____ _____    ______ ____
ROOT
ATOM      1  N   UNL     1       6.238  -1.087 -11.024  0.00  0.00    -0.354 N 
ATOM      2  N   UNL     1       5.623   0.398  -9.357  0.00  0.00    -0.372 N 
ATOM      3  N   UNL     1       7.747  -0.471  -9.340  0.00  0.00    -0.372 N 
ATOM      4  C   UNL     1       6.542  -0.397  -9.917  0.00  0.00    +0.166 C 
ATOM      5  H   UNL     1       5.298  -1.011 -11.396  0.00  0.00    +0.163 HD
ATOM      6  H   UNL     1       5.825   0.933  -8.523  0.00  0.00    +0.159 HD
ATOM      7  H   UNL     1       4.699   0.508  -9.756  0.00  0.00    +0.159 HD
ATOM      8  H   UNL     1       8.483  -1.058  -9.710  0.00  0.00    +0.159 HD
ATOM      9  H   UNL     1       7.964   0.048  -8.498  0.00  0.00    +0.159 HD
ENDROOT
BRANCH   1  10
ATOM     10  C   UNL     1       7.184  -1.939 -11.743  0.00  0.00    +0.151 C 
BRANCH  10  11
ATOM     11  C   UNL     1       6.830  -3.380 -11.500  0.00  0.00    -0.028 A 
ATOM     12  C   UNL     1       7.789  -4.275 -11.004  0.00  0.00    +0.005 A 
ATOM     13  C   UNL     1       5.535  -3.856 -11.758  0.00  0.00    +0.005 A 
ATOM     14  C   UNL     1       7.452  -5.607 -10.750  0.00  0.00    +0.000 A 
ATOM     15  C   UNL     1       5.203  -5.186 -11.504  0.00  0.00    +0.000 A 
ATOM     16  C   UNL     1       6.161  -6.061 -10.997  0.00  0.00    +0.000 A 
ENDBRANCH  10  11
ENDBRANCH   1  10
TORSDOF 2
ENDMDL
MODEL 7
REMARK VINA RESULT:    -4.154     33.789     34.837
REMARK INTER + INTRA:          -4.803
REMARK INTER:                  -4.674
REMARK INTRA:                  -0.128
REMARK UNBOUND:                -0.163
REMARK  Name = 1550473
REMARK  2 active torsions:
REMARK  status: ('A' for Active; 'I' for Inactive)
REMARK    1  A    between atoms: N_1  and  C_4
REMARK    2  A    between atoms: C_4  and  C_5
REMARK                            x       y       z     vdW  Elec       q    Type
REMARK                         _______ _______ _______ _____ _____    ______ ____
ROOT
ATOM      1  N   UNL     1     -11.847 -21.954 -12.068  0.00  0.00    -0.354 N 
ATOM      2  N   UNL     1      -9.709 -22.291 -11.245  0.00  0.00    -0.372 N 
ATOM      3  N   UNL     1     -10.759 -24.011 -12.341  0.00  0.00    -0.372 N 
ATOM      4  C   UNL     1     -10.786 -22.752 -11.891  0.00  0.00    +0.166 C 
ATOM      5  H   UNL     1     -11.817 -21.020 -11.676  0.00  0.00    +0.163 HD
ATOM      6  H   UNL     1      -8.892 -22.869 -11.099  0.00  0.00    +0.159 HD
ATOM      7  H   UNL     1      -9.663 -21.342 -10.895  0.00  0.00    +0.159 HD
ATOM      8  H   UNL     1     -11.542 -24.422 -12.832  0.00  0.00    +0.159 HD
ATOM      9  H   UNL     1      -9.955 -24.609 -12.195  0.00  0.00    +0.159 HD
ENDROOT
BRANCH   1  10
ATOM     10  C   UNL     1     -13.049 -22.342 -12.805  0.00  0.00    +0.151 C 
BRANCH  10  11
ATOM     11  C   UNL     1     -14.252 -22.134 -11.926  0.00  0.00    -0.028 A 
ATOM     12  C   UNL     1     -15.037 -23.225 -11.525  0.00  0.00    +0.005 A 
ATOM     13  C   UNL     1     -14.608 -20.850 -11.488  0.00  0.00    +0.005 A 
ATOM     14  C   UNL     1     -16.137 -23.036 -10.685  0.00  0.00    +0.000 A 
ATOM     15  C   UNL     1     -15.708 -20.666 -10.650  0.00  0.00    +0.000 A 
ATOM     16  C   UNL     1     -16.470 -21.759 -10.246  0.00  0.00    +0.000 A 
ENDBRANCH  10  11
ENDBRANCH   1  10
TORSDOF 2
ENDMDL
MODEL 8
REMARK VINA RESULT:    -4.125     15.939     17.665
REMARK INTER + INTRA:          -4.770
REMARK INTER:                  -4.597
REMARK INTRA:                  -0.173
REMARK UNBOUND:                -0.163
REMARK  Name = 1550473
REMARK  2 active torsions:
REMARK  status: ('A' for Active; 'I' for Inactive)
REMARK    1  A    between atoms: N_1  and  C_4
REMARK    2  A    between atoms: C_4  and  C_5
REMARK                            x       y       z     vdW  Elec       q    Type
REMARK                         _______ _______ _______ _____ _____    ______ ____
ROOT
ATOM      1  N   UNL     1      17.938   3.355  10.722  0.00  0.00    -0.354 N 
ATOM      2  N   UNL     1      19.441   4.637  11.932  0.00  0.00    -0.372 N 
ATOM      3  N   UNL     1      20.058   2.525  11.280  0.00  0.00    -0.372 N 
ATOM      4  C   UNL     1      19.138   3.495  11.303  0.00  0.00    +0.166 C 
ATOM      5  H   UNL     1      17.274   4.116  10.801  0.00  0.00    +0.163 HD
ATOM      6  H   UNL     1      20.339   4.773  12.376  0.00  0.00    +0.159 HD
ATOM      7  H   UNL     1      18.792   5.413  11.970  0.00  0.00    +0.159 HD
ATOM      8  H   UNL     1      19.889   1.637  10.827  0.00  0.00    +0.159 HD
ATOM      9  H   UNL     1      20.958   2.638  11.729  0.00  0.00    +0.159 HD
ENDROOT
BRANCH   1  10
ATOM     10  C   UNL     1      17.529   2.173   9.967  0.00  0.00    +0.151 C 
BRANCH  10  11
ATOM     11  C   UNL     1      17.593   2.482   8.497  0.00  0.00    -0.028 A 
ATOM     12  C   UNL     1      16.458   2.948   7.817  0.00  0.00    +0.005 A 
ATOM     13  C   UNL     1      18.788   2.317   7.779  0.00  0.00    +0.005 A 
ATOM     14  C   UNL     1      16.526   3.265   6.458  0.00  0.00    +0.000 A 
ATOM     15  C   UNL     1      18.850   2.633   6.422  0.00  0.00    +0.000 A 
ATOM     16  C   UNL     1      17.720   3.109   5.762  0.00  0.00    +0.000 A 
ENDBRANCH  10  11
ENDBRANCH   1  10
TORSDOF 2
ENDMDL
MODEL 9
REMARK VINA RESULT:    -4.073     13.205     14.171
REMARK INTER + INTRA:          -4.713
REMARK INTER:                  -4.580
REMARK INTRA:                  -0.133
REMARK UNBOUND:                -0.163
REMARK  Name = 1550473
REMARK  2 active torsions:
REMARK  status: ('A' for Active; 'I' for Inactive)
REMARK    1  A    between atoms: N_1  and  C_4
REMARK    2  A    between atoms: C_4  and  C_5
REMARK                            x       y       z     vdW  Elec       q    Type
REMARK                         _______ _______ _______ _____ _____    ______ ____
ROOT
ATOM      1  N   UNL     1      11.567  -5.807   7.804  0.00  0.00    -0.354 N 
ATOM      2  N   UNL     1      12.953  -4.197   8.725  0.00  0.00    -0.372 N 
ATOM      3  N   UNL     1      12.784  -4.340   6.441  0.00  0.00    -0.372 N 
ATOM      4  C   UNL     1      12.426  -4.791   7.648  0.00  0.00    +0.166 C 
ATOM      5  H   UNL     1      11.360  -6.122   8.744  0.00  0.00    +0.163 HD
ATOM      6  H   UNL     1      13.602  -3.426   8.639  0.00  0.00    +0.159 HD
ATOM      7  H   UNL     1      12.709  -4.484   9.665  0.00  0.00    +0.159 HD
ATOM      8  H   UNL     1      12.427  -4.749   5.589  0.00  0.00    +0.159 HD
ATOM      9  H   UNL     1      13.441  -3.577   6.335  0.00  0.00    +0.159 HD
ENDROOT
BRANCH   1  10
ATOM     10  C   UNL     1      10.896  -6.487   6.697  0.00  0.00    +0.151 C 
BRANCH  10  11
ATOM     11  C   UNL     1       9.408  -6.380   6.885  0.00  0.00    -0.028 A 
ATOM     12  C   UNL     1       8.640  -5.565   6.039  0.00  0.00    +0.005 A 
ATOM     13  C   UNL     1       8.758  -7.094   7.903  0.00  0.00    +0.005 A 
ATOM     14  C   UNL     1       7.254  -5.488   6.194  0.00  0.00    +0.000 A 
ATOM     15  C   UNL     1       7.374  -7.014   8.055  0.00  0.00    +0.000 A 
ATOM     16  C   UNL     1       6.622  -6.213   7.199  0.00  0.00    +0.000 A 
ENDBRANCH  10  11
ENDBRANCH   1  10
TORSDOF 2
ENDMDL
