MODEL 1
REMARK VINA RESULT:    -5.304      0.000      0.000
REMARK INTER + INTRA:          -6.043
REMARK INTER:                  -5.924
REMARK INTRA:                  -0.118
REMARK UNBOUND:                -0.118
REMARK  Name = 1550473
REMARK  2 active torsions:
REMARK  status: ('A' for Active; 'I' for Inactive)
REMARK    1  A    between atoms: N_1  and  C_4
REMARK    2  A    between atoms: C_4  and  C_5
REMARK                            x       y       z     vdW  Elec       q    Type
REMARK                         _______ _______ _______ _____ _____    ______ ____
ROOT
ATOM      1  N   UNL     1      -1.205  -6.124 -13.366  0.00  0.00    -0.354 N 
ATOM      2  N   UNL     1      -0.655  -5.572 -15.547  0.00  0.00    -0.372 N 
ATOM      3  N   UNL     1      -2.837  -5.366 -14.868  0.00  0.00    -0.372 N 
ATOM      4  C   UNL     1      -1.572  -5.690 -14.580  0.00  0.00    +0.166 C 
ATOM      5  H   UNL     1      -0.236  -6.382 -13.220  0.00  0.00    +0.163 HD
ATOM      6  H   UNL     1      -0.901  -5.245 -16.472  0.00  0.00    +0.159 HD
ATOM      7  H   UNL     1       0.322  -5.787 -15.385  0.00  0.00    +0.159 HD
ATOM      8  H   UNL     1      -3.578  -5.439 -14.184  0.00  0.00    +0.159 HD
ATOM      9  H   UNL     1      -3.105  -5.047 -15.791  0.00  0.00    +0.159 HD
ENDROOT
BRANCH   1  10
ATOM     10  C   UNL     1      -2.116  -6.237 -12.229  0.00  0.00    +0.151 C 
BRANCH  10  11
ATOM     11  C   UNL     1      -1.442  -5.686 -11.003  0.00  0.00    -0.028 A 
ATOM     12  C   UNL     1      -0.747  -6.536 -10.130  0.00  0.00    +0.005 A 
ATOM     13  C   UNL     1      -1.490  -4.314 -10.711  0.00  0.00    +0.005 A 
ATOM     14  C   UNL     1      -0.095  -6.021  -9.007  0.00  0.00    +0.000 A 
ATOM     15  C   UNL     1      -0.838  -3.804  -9.588  0.00  0.00    +0.000 A 
ATOM     16  C   UNL     1      -0.139  -4.657  -8.738  0.00  0.00    +0.000 A 
ENDBRANCH  10  11
ENDBRANCH   1  10
TORSDOF 2
ENDMDL
MODEL 2
REMARK VINA RESULT:    -5.179      4.051      5.241
REMARK INTER + INTRA:          -5.903
REMARK INTER:                  -5.794
REMARK INTRA:                  -0.108
REMARK UNBOUND:                -0.118
REMARK  Name = 1550473
REMARK  2 active torsions:
REMARK  status: ('A' for Active; 'I' for Inactive)
REMARK    1  A    between atoms: N_1  and  C_4
REMARK    2  A    between atoms: C_4  and  C_5
REMARK                            x       y       z     vdW  Elec       q    Type
REMARK                         _______ _______ _______ _____ _____    ______ ____
ROOT
ATOM      1  N   UNL     1      -2.950  -2.429  -9.011  0.00  0.00    -0.354 N 
ATOM      2  N   UNL     1      -4.040  -1.129  -7.435  0.00  0.00    -0.372 N 
ATOM      3  N   UNL     1      -2.476  -0.144  -8.794  0.00  0.00    -0.372 N 
ATOM      4  C   UNL     1      -3.146  -1.240  -8.425  0.00  0.00    +0.166 C 
ATOM      5  H   UNL     1      -3.467  -3.228  -8.665  0.00  0.00    +0.163 HD
ATOM      6  H   UNL     1      -4.213  -0.244  -6.976  0.00  0.00    +0.159 HD
ATOM      7  H   UNL     1      -4.590  -1.920  -7.122  0.00  0.00    +0.159 HD
ATOM      8  H   UNL     1      -1.783  -0.162  -9.531  0.00  0.00    +0.159 HD
ATOM      9  H   UNL     1      -2.626   0.748  -8.339  0.00  0.00    +0.159 HD
ENDROOT
BRANCH   1  10
ATOM     10  C   UNL     1      -2.039  -2.646 -10.134  0.00  0.00    +0.151 C 
BRANCH  10  11
ATOM     11  C   UNL     1      -1.518  -4.055 -10.078  0.00  0.00    -0.028 A 
ATOM     12  C   UNL     1      -1.956  -5.013 -11.004  0.00  0.00    +0.005 A 
ATOM     13  C   UNL     1      -0.582  -4.438  -9.106  0.00  0.00    +0.005 A 
ATOM     14  C   UNL     1      -1.450  -6.315 -10.972  0.00  0.00    +0.000 A 
ATOM     15  C   UNL     1      -0.079  -5.739  -9.076  0.00  0.00    +0.000 A 
ATOM     16  C   UNL     1      -0.512  -6.676 -10.011  0.00  0.00    +0.000 A 
ENDBRANCH  10  11
ENDBRANCH   1  10
TORSDOF 2
ENDMDL
MODEL 3
REMARK VINA RESULT:    -4.779     15.097     16.667
REMARK INTER + INTRA:          -5.455
REMARK INTER:                  -5.287
REMARK INTRA:                  -0.168
REMARK UNBOUND:                -0.118
REMARK  Name = 1550473
REMARK  2 active torsions:
REMARK  status: ('A' for Active; 'I' for Inactive)
REMARK    1  A    between atoms: N_1  and  C_4
REMARK    2  A    between atoms: C_4  and  C_5
REMARK                            x       y       z     vdW  Elec       q    Type
REMARK                         _______ _______ _______ _____ _____    ______ ____
ROOT
ATOM      1  N   UNL     1      -4.723  -3.401   3.381  0.00  0.00    -0.354 N 
ATOM      2  N   UNL     1      -4.428  -4.021   1.169  0.00  0.00    -0.372 N 
ATOM      3  N   UNL     1      -6.385  -2.991   1.781  0.00  0.00    -0.372 N 
ATOM      4  C   UNL     1      -5.183  -3.466   2.125  0.00  0.00    +0.166 C 
ATOM      5  H   UNL     1      -3.816  -3.806   3.583  0.00  0.00    +0.163 HD
ATOM      6  H   UNL     1      -4.747  -4.080   0.212  0.00  0.00    +0.159 HD
ATOM      7  H   UNL     1      -3.503  -4.383   1.365  0.00  0.00    +0.159 HD
ATOM      8  H   UNL     1      -7.006  -2.566   2.457  0.00  0.00    +0.159 HD
ATOM      9  H   UNL     1      -6.727  -3.052   0.830  0.00  0.00    +0.159 HD
ENDROOT
BRANCH   1  10
ATOM     10  C   UNL     1      -5.444  -2.769   4.485  0.00  0.00    +0.151 C 
BRANCH  10  11
ATOM     11  C   UNL     1      -4.906  -1.380   4.692  0.00  0.00    -0.028 A 
ATOM     12  C   UNL     1      -5.771  -0.321   5.004  0.00  0.00    +0.005 A 
ATOM     13  C   UNL     1      -3.531  -1.118   4.583  0.00  0.00    +0.005 A 
ATOM     14  C   UNL     1      -5.268   0.964   5.225  0.00  0.00    +0.000 A 
ATOM     15  C   UNL     1      -3.034   0.166   4.804  0.00  0.00    +0.000 A 
ATOM     16  C   UNL     1      -3.902   1.206   5.128  0.00  0.00    +0.000 A 
ENDBRANCH  10  11
ENDBRANCH   1  10
TORSDOF 2
ENDMDL
MODEL 4
REMARK VINA RESULT:    -4.759     16.462     17.910
REMARK INTER + INTRA:          -5.433
REMARK INTER:                  -5.286
REMARK INTRA:                  -0.147
REMARK UNBOUND:                -0.118
REMARK  Name = 1550473
REMARK  2 active torsions:
REMARK  status: ('A' for Active; 'I' for Inactive)
REMARK    1  A    between atoms: N_1  and  C_4
REMARK    2  A    between atoms: C_4  and  C_5
REMARK                            x       y       z     vdW  Elec       q    Type
REMARK                         _______ _______ _______ _____ _____    ______ ____
ROOT
ATOM      1  N   UNL     1      -5.801   0.688   4.248  0.00  0.00    -0.354 N 
ATOM      2  N   UNL     1      -5.931  -0.889   5.939  0.00  0.00    -0.372 N 
ATOM      3  N   UNL     1      -5.860   1.334   6.500  0.00  0.00    -0.372 N 
ATOM      4  C   UNL     1      -5.862   0.390   5.553  0.00  0.00    +0.166 C 
ATOM      5  H   UNL     1      -5.776  -0.075   3.581  0.00  0.00    +0.163 HD
ATOM      6  H   UNL     1      -5.982  -1.144   6.916  0.00  0.00    +0.159 HD
ATOM      7  H   UNL     1      -5.952  -1.648   5.268  0.00  0.00    +0.159 HD
ATOM      8  H   UNL     1      -5.804   2.319   6.275  0.00  0.00    +0.159 HD
ATOM      9  H   UNL     1      -5.898   1.099   7.484  0.00  0.00    +0.159 HD
ENDROOT
BRANCH   1  10
ATOM     10  C   UNL     1      -5.778   2.051   3.721  0.00  0.00    +0.151 C 
BRANCH  10  11
ATOM     11  C   UNL     1      -4.447   2.303   3.068  0.00  0.00    -0.028 A 
ATOM     12  C   UNL     1      -4.369   2.595   1.699  0.00  0.00    +0.005 A 
ATOM     13  C   UNL     1      -3.260   2.257   3.815  0.00  0.00    +0.005 A 
ATOM     14  C   UNL     1      -3.136   2.859   1.098  0.00  0.00    +0.000 A 
ATOM     15  C   UNL     1      -2.030   2.520   3.212  0.00  0.00    +0.000 A 
ATOM     16  C   UNL     1      -1.969   2.823   1.854  0.00  0.00    +0.000 A 
ENDBRANCH  10  11
ENDBRANCH   1  10
TORSDOF 2
ENDMDL
MODEL 5
REMARK VINA RESULT:    -4.752     15.808     17.265
REMARK INTER + INTRA:          -5.426
REMARK INTER:                  -5.245
REMARK INTRA:                  -0.181
REMARK UNBOUND:                -0.118
REMARK  Name = 1550473
REMARK  2 active torsions:
REMARK  status: ('A' for Active; 'I' for Inactive)
REMARK    1  A    between atoms: N_1  and  C_4
REMARK    2  A    between atoms: C_4  and  C_5
REMARK                            x       y       z     vdW  Elec       q    Type
REMARK                         _______ _______ _______ _____ _____    ______ ____
ROOT
ATOM      1  N   UNL     1      -4.543  -1.535   5.426  0.00  0.00    -0.354 N 
ATOM      2  N   UNL     1      -6.518  -2.715   5.158  0.00  0.00    -0.372 N 
ATOM      3  N   UNL     1      -4.687  -3.319   3.914  0.00  0.00    -0.372 N 
ATOM      4  C   UNL     1      -5.235  -2.517   4.832  0.00  0.00    +0.166 C 
ATOM      5  H   UNL     1      -5.025  -0.942   6.092  0.00  0.00    +0.163 HD
ATOM      6  H   UNL     1      -7.064  -3.450   4.729  0.00  0.00    +0.159 HD
ATOM      7  H   UNL     1      -6.984  -2.151   5.857  0.00  0.00    +0.159 HD
ATOM      8  H   UNL     1      -3.724  -3.218   3.620  0.00  0.00    +0.159 HD
ATOM      9  H   UNL     1      -5.220  -4.053   3.465  0.00  0.00    +0.159 HD
ENDROOT
BRANCH   1  10
ATOM     10  C   UNL     1      -3.126  -1.270   5.183  0.00  0.00    +0.151 C 
BRANCH  10  11
ATOM     11  C   UNL     1      -3.000  -0.109   4.235  0.00  0.00    -0.028 A 
ATOM     12  C   UNL     1      -3.402   1.177   4.626  0.00  0.00    +0.005 A 
ATOM     13  C   UNL     1      -2.474  -0.287   2.946  0.00  0.00    +0.005 A 
ATOM     14  C   UNL     1      -3.257   2.260   3.756  0.00  0.00    +0.000 A 
ATOM     15  C   UNL     1      -2.332   0.797   2.081  0.00  0.00    +0.000 A 
ATOM     16  C   UNL     1      -2.721   2.071   2.487  0.00  0.00    +0.000 A 
ENDBRANCH  10  11
ENDBRANCH   1  10
TORSDOF 2
ENDMDL
MODEL 6
REMARK VINA RESULT:    -4.745     15.414     16.823
REMARK INTER + INTRA:          -5.418
REMARK INTER:                  -5.308
REMARK INTRA:                  -0.110
REMARK UNBOUND:                -0.118
REMARK  Name = 1550473
REMARK  2 active torsions:
REMARK  status: ('A' for Active; 'I' for Inactive)
REMARK    1  A    between atoms: N_1  and  C_4
REMARK    2  A    between atoms: C_4  and  C_5
REMARK                            x       y       z     vdW  Elec       q    Type
REMARK                         _______ _______ _______ _____ _____    ______ ____
ROOT
ATOM      1  N   UNL     1      -4.340  -2.452   4.855  0.00  0.00    -0.354 N 
ATOM      2  N   UNL     1      -6.625  -2.831   4.825  0.00  0.00    -0.372 N 
ATOM      3  N   UNL     1      -5.822  -0.978   5.914  0.00  0.00    -0.372 N 
ATOM      4  C   UNL     1      -5.581  -2.082   5.200  0.00  0.00    +0.166 C 
ATOM      5  H   UNL     1      -4.221  -3.316   4.338  0.00  0.00    +0.163 HD
ATOM      6  H   UNL     1      -7.573  -2.576   5.067  0.00  0.00    +0.159 HD
ATOM      7  H   UNL     1      -6.507  -3.670   4.269  0.00  0.00    +0.159 HD
ATOM      8  H   UNL     1      -5.078  -0.373   6.233  0.00  0.00    +0.159 HD
ATOM      9  H   UNL     1      -6.763  -0.712   6.177  0.00  0.00    +0.159 HD
ENDROOT
BRANCH   1  10
ATOM     10  C   UNL     1      -3.140  -1.678   5.167  0.00  0.00    +0.151 C 
BRANCH  10  11
ATOM     11  C   UNL     1      -2.483  -1.251   3.883  0.00  0.00    -0.028 A 
ATOM     12  C   UNL     1      -3.211  -1.226   2.685  0.00  0.00    +0.005 A 
ATOM     13  C   UNL     1      -1.134  -0.865   3.860  0.00  0.00    +0.005 A 
ATOM     14  C   UNL     1      -2.609  -0.801   1.498  0.00  0.00    +0.000 A 
ATOM     15  C   UNL     1      -0.536  -0.442   2.673  0.00  0.00    +0.000 A 
ATOM     16  C   UNL     1      -1.275  -0.408   1.492  0.00  0.00    +0.000 A 
ENDBRANCH  10  11
ENDBRANCH   1  10
TORSDOF 2
ENDMDL
MODEL 7
REMARK VINA RESULT:    -4.739     26.675     27.869
REMARK INTER + INTRA:          -5.411
REMARK INTER:                  -5.288
REMARK INTRA:                  -0.123
REMARK UNBOUND:                -0.118
REMARK  Name = 1550473
REMARK  2 active torsions:
REMARK  status: ('A' for Active; 'I' for Inactive)
REMARK    1  A    between atoms: N_1  and  C_4
REMARK    2  A    between atoms: C_4  and  C_5
REMARK                            x       y       z     vdW  Elec       q    Type
REMARK                         _______ _______ _______ _____ _____    ______ ____
ROOT
ATOM      1  N   UNL     1      -5.906  20.911  -5.532  0.00  0.00    -0.354 N 
ATOM      2  N   UNL     1      -4.640  20.423  -7.410  0.00  0.00    -0.372 N 
ATOM      3  N   UNL     1      -3.903  19.707  -5.358  0.00  0.00    -0.372 N 
ATOM      4  C   UNL     1      -4.823  20.349  -6.086  0.00  0.00    +0.166 C 
ATOM      5  H   UNL     1      -6.551  21.410  -6.135  0.00  0.00    +0.163 HD
ATOM      6  H   UNL     1      -3.835  20.006  -7.856  0.00  0.00    +0.159 HD
ATOM      7  H   UNL     1      -5.310  20.882  -8.015  0.00  0.00    +0.159 HD
ATOM      8  H   UNL     1      -3.979  19.621  -4.353  0.00  0.00    +0.159 HD
ATOM      9  H   UNL     1      -3.084  19.293  -5.785  0.00  0.00    +0.159 HD
ENDROOT
BRANCH   1  10
ATOM     10  C   UNL     1      -6.226  20.841  -4.108  0.00  0.00    +0.151 C 
BRANCH  10  11
ATOM     11  C   UNL     1      -7.719  20.774  -3.942  0.00  0.00    -0.028 A 
ATOM     12  C   UNL     1      -8.469  19.807  -4.627  0.00  0.00    +0.005 A 
ATOM     13  C   UNL     1      -8.389  21.672  -3.097  0.00  0.00    +0.005 A 
ATOM     14  C   UNL     1      -9.852  19.725  -4.451  0.00  0.00    +0.000 A 
ATOM     15  C   UNL     1      -9.771  21.588  -2.924  0.00  0.00    +0.000 A 
ATOM     16  C   UNL     1     -10.502  20.613  -3.599  0.00  0.00    +0.000 A 
ENDBRANCH  10  11
ENDBRANCH   1  10
TORSDOF 2
ENDMDL
MODEL 8
REMARK VINA RESULT:    -4.738     13.843     15.375
REMARK INTER + INTRA:          -5.410
REMARK INTER:                  -5.280
REMARK INTRA:                  -0.130
REMARK UNBOUND:                -0.118
REMARK  Name = 1550473
REMARK  2 active torsions:
REMARK  status: ('A' for Active; 'I' for Inactive)
REMARK    1  A    between atoms: N_1  and  C_4
REMARK    2  A    between atoms: C_4  and  C_5
REMARK                            x       y       z     vdW  Elec       q    Type
REMARK                         _______ _______ _______ _____ _____    ______ ____
ROOT
ATOM      1  N   UNL     1      -5.429  -2.762   3.164  0.00  0.00    -0.354 N 
ATOM      2  N   UNL     1      -4.316  -3.179   5.152  0.00  0.00    -0.372 N 
ATOM      3  N   UNL     1      -6.576  -2.788   5.208  0.00  0.00    -0.372 N 
ATOM      4  C   UNL     1      -5.450  -2.906   4.496  0.00  0.00    +0.166 C 
ATOM      5  H   UNL     1      -4.538  -2.835   2.686  0.00  0.00    +0.163 HD
ATOM      6  H   UNL     1      -4.302  -3.296   6.156  0.00  0.00    +0.159 HD
ATOM      7  H   UNL     1      -3.435  -3.296   4.667  0.00  0.00    +0.159 HD
ATOM      8  H   UNL     1      -7.465  -2.577   4.773  0.00  0.00    +0.159 HD
ATOM      9  H   UNL     1      -6.580  -2.890   6.215  0.00  0.00    +0.159 HD
ENDROOT
BRANCH   1  10
ATOM     10  C   UNL     1      -6.618  -2.518   2.349  0.00  0.00    +0.151 C 
BRANCH  10  11
ATOM     11  C   UNL     1      -6.475  -3.245   1.041  0.00  0.00    -0.028 A 
ATOM     12  C   UNL     1      -7.588  -3.448   0.213  0.00  0.00    +0.005 A 
ATOM     13  C   UNL     1      -5.226  -3.728   0.620  0.00  0.00    +0.005 A 
ATOM     14  C   UNL     1      -7.450  -4.096  -1.017  0.00  0.00    +0.000 A 
ATOM     15  C   UNL     1      -5.092  -4.376  -0.608  0.00  0.00    +0.000 A 
ATOM     16  C   UNL     1      -6.204  -4.558  -1.427  0.00  0.00    +0.000 A 
ENDBRANCH  10  11
ENDBRANCH   1  10
TORSDOF 2
ENDMDL
MODEL 9
REMARK VINA RESULT:    -4.680     15.953     17.360
REMARK INTER + INTRA:          -5.345
REMARK INTER:                  -5.190
REMARK INTRA:                  -0.155
REMARK UNBOUND:                -0.118
REMARK  Name = 1550473
REMARK  2 active torsions:
REMARK  status: ('A' for Active; 'I' for Inactive)
REMARK    1  A    between atoms: N_1  and  C_4
REMARK    2  A    between atoms: C_4  and  C_5
REMARK                            x       y       z     vdW  Elec       q    Type
REMARK                         _______ _______ _______ _____ _____    ______ ____
ROOT
ATOM      1  N   UNL     1      -5.268   0.672   4.358  0.00  0.00    -0.354 N 
ATOM      2  N   UNL     1      -5.899   1.400   6.464  0.00  0.00    -0.372 N 
ATOM      3  N   UNL     1      -5.947  -0.848   6.008  0.00  0.00    -0.372 N 
ATOM      4  C   UNL     1      -5.701   0.401   5.596  0.00  0.00    +0.166 C 
ATOM      5  H   UNL     1      -5.130   1.642   4.098  0.00  0.00    +0.163 HD
ATOM      6  H   UNL     1      -6.222   1.226   7.406  0.00  0.00    +0.159 HD
ATOM      7  H   UNL     1      -5.716   2.365   6.216  0.00  0.00    +0.159 HD
ATOM      8  H   UNL     1      -5.823  -1.646   5.399  0.00  0.00    +0.159 HD
ATOM      9  H   UNL     1      -6.282  -1.042   6.943  0.00  0.00    +0.159 HD
ENDROOT
BRANCH   1  10
ATOM     10  C   UNL     1      -4.970  -0.348   3.354  0.00  0.00    +0.151 C 
BRANCH  10  11
ATOM     11  C   UNL     1      -3.479  -0.454   3.188  0.00  0.00    -0.028 A 
ATOM     12  C   UNL     1      -2.848   0.094   2.062  0.00  0.00    +0.005 A 
ATOM     13  C   UNL     1      -2.692  -1.095   4.157  0.00  0.00    +0.005 A 
ATOM     14  C   UNL     1      -1.459   0.022   1.923  0.00  0.00    +0.000 A 
ATOM     15  C   UNL     1      -1.306  -1.164   4.014  0.00  0.00    +0.000 A 
ATOM     16  C   UNL     1      -0.690  -0.604   2.898  0.00  0.00    +0.000 A 
ENDBRANCH  10  11
ENDBRANCH   1  10
TORSDOF 2
ENDMDL
