MODEL 1
REMARK VINA RESULT:    -5.194      0.000      0.000
REMARK INTER + INTRA:          -5.980
REMARK INTER:                  -5.801
REMARK INTRA:                  -0.179
REMARK UNBOUND:                -0.179
REMARK  Name = 1550473
REMARK  2 active torsions:
REMARK  status: ('A' for Active; 'I' for Inactive)
REMARK    1  A    between atoms: N_1  and  C_4
REMARK    2  A    between atoms: C_4  and  C_5
REMARK                            x       y       z     vdW  Elec       q    Type
REMARK                         _______ _______ _______ _____ _____    ______ ____
ROOT
ATOM      1  N   UNL     1      -1.470   1.554  -2.592  0.00  0.00    -0.354 N 
ATOM      2  N   UNL     1      -0.810   2.001  -0.418  0.00  0.00    -0.372 N 
ATOM      3  N   UNL     1      -0.413  -0.084  -1.292  0.00  0.00    -0.372 N 
ATOM      4  C   UNL     1      -0.901   1.151  -1.448  0.00  0.00    +0.166 C 
ATOM      5  H   UNL     1      -1.849   2.493  -2.637  0.00  0.00    +0.163 HD
ATOM      6  H   UNL     1      -0.382   1.727   0.457  0.00  0.00    +0.159 HD
ATOM      7  H   UNL     1      -1.147   2.953  -0.481  0.00  0.00    +0.159 HD
ATOM      8  H   UNL     1      -0.456  -0.774  -2.029  0.00  0.00    +0.159 HD
ATOM      9  H   UNL     1       0.008  -0.380  -0.420  0.00  0.00    +0.159 HD
ENDROOT
BRANCH   1  10
ATOM     10  C   UNL     1      -1.571   0.724  -3.792  0.00  0.00    +0.151 C 
BRANCH  10  11
ATOM     11  C   UNL     1      -2.946   0.118  -3.856  0.00  0.00    -0.028 A 
ATOM     12  C   UNL     1      -3.111  -1.274  -3.870  0.00  0.00    +0.005 A 
ATOM     13  C   UNL     1      -4.089   0.932  -3.896  0.00  0.00    +0.005 A 
ATOM     14  C   UNL     1      -4.389  -1.838  -3.899  0.00  0.00    +0.000 A 
ATOM     15  C   UNL     1      -5.363   0.366  -3.926  0.00  0.00    +0.000 A 
ATOM     16  C   UNL     1      -5.513  -1.019  -3.925  0.00  0.00    +0.000 A 
ENDBRANCH  10  11
ENDBRANCH   1  10
TORSDOF 2
ENDMDL
MODEL 2
REMARK VINA RESULT:    -4.903     11.150     12.149
REMARK INTER + INTRA:          -5.654
REMARK INTER:                  -5.514
REMARK INTRA:                  -0.141
REMARK UNBOUND:                -0.179
REMARK  Name = 1550473
REMARK  2 active torsions:
REMARK  status: ('A' for Active; 'I' for Inactive)
REMARK    1  A    between atoms: N_1  and  C_4
REMARK    2  A    between atoms: C_4  and  C_5
REMARK                            x       y       z     vdW  Elec       q    Type
REMARK                         _______ _______ _______ _____ _____    ______ ____
ROOT
ATOM      1  N   UNL     1       1.072 -10.821  -0.270  0.00  0.00    -0.354 N 
ATOM      2  N   UNL     1      -0.201 -12.671  -0.836  0.00  0.00    -0.372 N 
ATOM      3  N   UNL     1      -0.739 -10.635  -1.745  0.00  0.00    -0.372 N 
ATOM      4  C   UNL     1       0.051 -11.362  -0.948  0.00  0.00    +0.166 C 
ATOM      5  H   UNL     1       1.615 -11.421   0.341  0.00  0.00    +0.163 HD
ATOM      6  H   UNL     1      -0.962 -13.108  -1.339  0.00  0.00    +0.159 HD
ATOM      7  H   UNL     1       0.372 -13.277  -0.261  0.00  0.00    +0.159 HD
ATOM      8  H   UNL     1      -0.606  -9.640  -1.868  0.00  0.00    +0.159 HD
ATOM      9  H   UNL     1      -1.513 -11.051  -2.247  0.00  0.00    +0.159 HD
ENDROOT
BRANCH   1  10
ATOM     10  C   UNL     1       1.464  -9.416  -0.364  0.00  0.00    +0.151 C 
BRANCH  10  11
ATOM     11  C   UNL     1       1.618  -8.855   1.022  0.00  0.00    -0.028 A 
ATOM     12  C   UNL     1       2.328  -7.664   1.234  0.00  0.00    +0.005 A 
ATOM     13  C   UNL     1       1.052  -9.507   2.129  0.00  0.00    +0.005 A 
ATOM     14  C   UNL     1       2.446  -7.127   2.518  0.00  0.00    +0.000 A 
ATOM     15  C   UNL     1       1.173  -8.968   3.409  0.00  0.00    +0.000 A 
ATOM     16  C   UNL     1       1.868  -7.777   3.603  0.00  0.00    +0.000 A 
ENDBRANCH  10  11
ENDBRANCH   1  10
TORSDOF 2
ENDMDL
MODEL 3
REMARK VINA RESULT:    -4.669      7.628      7.915
REMARK INTER + INTRA:          -5.394
REMARK INTER:                  -5.272
REMARK INTRA:                  -0.122
REMARK UNBOUND:                -0.179
REMARK  Name = 1550473
REMARK  2 active torsions:
REMARK  status: ('A' for Active; 'I' for Inactive)
REMARK    1  A    between atoms: N_1  and  C_4
REMARK    2  A    between atoms: C_4  and  C_5
REMARK                            x       y       z     vdW  Elec       q    Type
REMARK                         _______ _______ _______ _____ _____    ______ ____
ROOT
ATOM      1  N   UNL     1       2.806   4.383   1.742  0.00  0.00    -0.354 N 
ATOM      2  N   UNL     1       4.081   6.092   0.839  0.00  0.00    -0.372 N 
ATOM      3  N   UNL     1       4.707   3.919   0.452  0.00  0.00    -0.372 N 
ATOM      4  C   UNL     1       3.858   4.785   1.016  0.00  0.00    +0.166 C 
ATOM      5  H   UNL     1       2.217   5.089   2.168  0.00  0.00    +0.163 HD
ATOM      6  H   UNL     1       4.864   6.426   0.293  0.00  0.00    +0.159 HD
ATOM      7  H   UNL     1       3.464   6.796   1.228  0.00  0.00    +0.159 HD
ATOM      8  H   UNL     1       4.598   2.919   0.553  0.00  0.00    +0.159 HD
ATOM      9  H   UNL     1       5.504   4.234  -0.088  0.00  0.00    +0.159 HD
ENDROOT
BRANCH   1  10
ATOM     10  C   UNL     1       2.444   2.982   1.951  0.00  0.00    +0.151 C 
BRANCH  10  11
ATOM     11  C   UNL     1       1.064   2.914   2.544  0.00  0.00    -0.028 A 
ATOM     12  C   UNL     1       0.652   1.780   3.260  0.00  0.00    +0.005 A 
ATOM     13  C   UNL     1       0.166   3.983   2.399  0.00  0.00    +0.005 A 
ATOM     14  C   UNL     1      -0.620   1.729   3.837  0.00  0.00    +0.000 A 
ATOM     15  C   UNL     1      -1.103   3.927   2.977  0.00  0.00    +0.000 A 
ATOM     16  C   UNL     1      -1.494   2.802   3.697  0.00  0.00    +0.000 A 
ENDBRANCH  10  11
ENDBRANCH   1  10
TORSDOF 2
ENDMDL
MODEL 4
REMARK VINA RESULT:    -4.638     11.335     12.495
REMARK INTER + INTRA:          -5.359
REMARK INTER:                  -5.252
REMARK INTRA:                  -0.107
REMARK UNBOUND:                -0.179
REMARK  Name = 1550473
REMARK  2 active torsions:
REMARK  status: ('A' for Active; 'I' for Inactive)
REMARK    1  A    between atoms: N_1  and  C_4
REMARK    2  A    between atoms: C_4  and  C_5
REMARK                            x       y       z     vdW  Elec       q    Type
REMARK                         _______ _______ _______ _____ _____    ______ ____
ROOT
ATOM      1  N   UNL     1      -0.385  -9.180   5.072  0.00  0.00    -0.354 N 
ATOM      2  N   UNL     1      -2.011  -8.755   6.665  0.00  0.00    -0.372 N 
ATOM      3  N   UNL     1      -1.741 -10.902   5.902  0.00  0.00    -0.372 N 
ATOM      4  C   UNL     1      -1.369  -9.618   5.869  0.00  0.00    +0.166 C 
ATOM      5  H   UNL     1      -0.171  -8.189   5.071  0.00  0.00    +0.163 HD
ATOM      6  H   UNL     1      -2.755  -9.056   7.280  0.00  0.00    +0.159 HD
ATOM      7  H   UNL     1      -1.764  -7.773   6.696  0.00  0.00    +0.159 HD
ATOM      8  H   UNL     1      -1.300 -11.602   5.321  0.00  0.00    +0.159 HD
ATOM      9  H   UNL     1      -2.491 -11.221   6.502  0.00  0.00    +0.159 HD
ENDROOT
BRANCH   1  10
ATOM     10  C   UNL     1       0.413 -10.047   4.206  0.00  0.00    +0.151 C 
BRANCH  10  11
ATOM     11  C   UNL     1       1.076  -9.209   3.148  0.00  0.00    -0.028 A 
ATOM     12  C   UNL     1       1.734  -8.019   3.491  0.00  0.00    +0.005 A 
ATOM     13  C   UNL     1       1.054  -9.602   1.801  0.00  0.00    +0.005 A 
ATOM     14  C   UNL     1       2.376  -7.255   2.513  0.00  0.00    +0.000 A 
ATOM     15  C   UNL     1       1.695  -8.836   0.827  0.00  0.00    +0.000 A 
ATOM     16  C   UNL     1       2.358  -7.664   1.184  0.00  0.00    +0.000 A 
ENDBRANCH  10  11
ENDBRANCH   1  10
TORSDOF 2
ENDMDL
MODEL 5
REMARK VINA RESULT:    -4.620      6.925      8.037
REMARK INTER + INTRA:          -5.339
REMARK INTER:                  -5.226
REMARK INTRA:                  -0.114
REMARK UNBOUND:                -0.179
REMARK  Name = 1550473
REMARK  2 active torsions:
REMARK  status: ('A' for Active; 'I' for Inactive)
REMARK    1  A    between atoms: N_1  and  C_4
REMARK    2  A    between atoms: C_4  and  C_5
REMARK                            x       y       z     vdW  Elec       q    Type
REMARK                         _______ _______ _______ _____ _____    ______ ____
ROOT
ATOM      1  N   UNL     1       0.088   1.793   3.890  0.00  0.00    -0.354 N 
ATOM      2  N   UNL     1      -0.594   3.971   3.491  0.00  0.00    -0.372 N 
ATOM      3  N   UNL     1      -2.126   2.275   3.290  0.00  0.00    -0.372 N 
ATOM      4  C   UNL     1      -0.875   2.664   3.559  0.00  0.00    +0.166 C 
ATOM      5  H   UNL     1       1.023   2.149   4.052  0.00  0.00    +0.163 HD
ATOM      6  H   UNL     1      -1.300   4.651   3.247  0.00  0.00    +0.159 HD
ATOM      7  H   UNL     1       0.331   4.328   3.698  0.00  0.00    +0.159 HD
ATOM      8  H   UNL     1      -2.402   1.302   3.318  0.00  0.00    +0.159 HD
ATOM      9  H   UNL     1      -2.844   2.940   3.032  0.00  0.00    +0.159 HD
ENDROOT
BRANCH   1  10
ATOM     10  C   UNL     1      -0.127   0.356   4.044  0.00  0.00    +0.151 C 
BRANCH  10  11
ATOM     11  C   UNL     1       0.978  -0.384   3.343  0.00  0.00    -0.028 A 
ATOM     12  C   UNL     1       2.281  -0.377   3.862  0.00  0.00    +0.005 A 
ATOM     13  C   UNL     1       0.728  -1.100   2.162  0.00  0.00    +0.005 A 
ATOM     14  C   UNL     1       3.302  -1.089   3.228  0.00  0.00    +0.000 A 
ATOM     15  C   UNL     1       1.750  -1.809   1.531  0.00  0.00    +0.000 A 
ATOM     16  C   UNL     1       3.036  -1.805   2.066  0.00  0.00    +0.000 A 
ENDBRANCH  10  11
ENDBRANCH   1  10
TORSDOF 2
ENDMDL
MODEL 6
REMARK VINA RESULT:    -4.515     11.194     12.203
REMARK INTER + INTRA:          -5.222
REMARK INTER:                  -5.123
REMARK INTRA:                  -0.099
REMARK UNBOUND:                -0.179
REMARK  Name = 1550473
REMARK  2 active torsions:
REMARK  status: ('A' for Active; 'I' for Inactive)
REMARK    1  A    between atoms: N_1  and  C_4
REMARK    2  A    between atoms: C_4  and  C_5
REMARK                            x       y       z     vdW  Elec       q    Type
REMARK                         _______ _______ _______ _____ _____    ______ ____
ROOT
ATOM      1  N   UNL     1       0.132  -9.247   3.736  0.00  0.00    -0.354 N 
ATOM      2  N   UNL     1      -1.163  -8.408   5.464  0.00  0.00    -0.372 N 
ATOM      3  N   UNL     1      -0.040 -10.384   5.778  0.00  0.00    -0.372 N 
ATOM      4  C   UNL     1      -0.348  -9.355   4.983  0.00  0.00    +0.166 C 
ATOM      5  H   UNL     1      -0.164  -8.458   3.174  0.00  0.00    +0.163 HD
ATOM      6  H   UNL     1      -1.537  -8.461   6.402  0.00  0.00    +0.159 HD
ATOM      7  H   UNL     1      -1.420  -7.597   4.916  0.00  0.00    +0.159 HD
ATOM      8  H   UNL     1       0.566 -11.135   5.473  0.00  0.00    +0.159 HD
ATOM      9  H   UNL     1      -0.414 -10.460   6.716  0.00  0.00    +0.159 HD
ENDROOT
BRANCH   1  10
ATOM     10  C   UNL     1       1.068 -10.195   3.136  0.00  0.00    +0.151 C 
BRANCH  10  11
ATOM     11  C   UNL     1       0.843 -10.233   1.650  0.00  0.00    -0.028 A 
ATOM     12  C   UNL     1       1.439  -9.277   0.814  0.00  0.00    +0.005 A 
ATOM     13  C   UNL     1       0.039 -11.227   1.070  0.00  0.00    +0.005 A 
ATOM     14  C   UNL     1       1.254  -9.331  -0.570  0.00  0.00    +0.000 A 
ATOM     15  C   UNL     1      -0.143 -11.276  -0.312  0.00  0.00    +0.000 A 
ATOM     16  C   UNL     1       0.466 -10.330  -1.132  0.00  0.00    +0.000 A 
ENDBRANCH  10  11
ENDBRANCH   1  10
TORSDOF 2
ENDMDL
MODEL 7
REMARK VINA RESULT:    -4.470      7.266      9.196
REMARK INTER + INTRA:          -5.172
REMARK INTER:                  -4.996
REMARK INTRA:                  -0.176
REMARK UNBOUND:                -0.179
REMARK  Name = 1550473
REMARK  2 active torsions:
REMARK  status: ('A' for Active; 'I' for Inactive)
REMARK    1  A    between atoms: N_1  and  C_4
REMARK    2  A    between atoms: C_4  and  C_5
REMARK                            x       y       z     vdW  Elec       q    Type
REMARK                         _______ _______ _______ _____ _____    ______ ____
ROOT
ATOM      1  N   UNL     1       1.252   1.567   2.207  0.00  0.00    -0.354 N 
ATOM      2  N   UNL     1       0.172   3.343   3.227  0.00  0.00    -0.372 N 
ATOM      3  N   UNL     1       0.335   1.350   4.352  0.00  0.00    -0.372 N 
ATOM      4  C   UNL     1       0.593   2.073   3.257  0.00  0.00    +0.166 C 
ATOM      5  H   UNL     1       1.390   2.157   1.395  0.00  0.00    +0.163 HD
ATOM      6  H   UNL     1      -0.325   3.753   4.006  0.00  0.00    +0.159 HD
ATOM      7  H   UNL     1       0.351   3.945   2.433  0.00  0.00    +0.159 HD
ATOM      8  H   UNL     1       0.621   0.383   4.435  0.00  0.00    +0.159 HD
ATOM      9  H   UNL     1      -0.172   1.739   5.137  0.00  0.00    +0.159 HD
ENDROOT
BRANCH   1  10
ATOM     10  C   UNL     1       1.800   0.212   2.161  0.00  0.00    +0.151 C 
BRANCH  10  11
ATOM     11  C   UNL     1       3.254   0.257   2.543  0.00  0.00    -0.028 A 
ATOM     12  C   UNL     1       3.755  -0.595   3.538  0.00  0.00    +0.005 A 
ATOM     13  C   UNL     1       4.137   1.145   1.909  0.00  0.00    +0.005 A 
ATOM     14  C   UNL     1       5.111  -0.574   3.872  0.00  0.00    +0.000 A 
ATOM     15  C   UNL     1       5.490   1.163   2.247  0.00  0.00    +0.000 A 
ATOM     16  C   UNL     1       5.977   0.301   3.226  0.00  0.00    +0.000 A 
ENDBRANCH  10  11
ENDBRANCH   1  10
TORSDOF 2
ENDMDL
MODEL 8
REMARK VINA RESULT:    -4.450      9.398     10.572
REMARK INTER + INTRA:          -5.148
REMARK INTER:                  -5.014
REMARK INTRA:                  -0.134
REMARK UNBOUND:                -0.179
REMARK  Name = 1550473
REMARK  2 active torsions:
REMARK  status: ('A' for Active; 'I' for Inactive)
REMARK    1  A    between atoms: N_1  and  C_4
REMARK    2  A    between atoms: C_4  and  C_5
REMARK                            x       y       z     vdW  Elec       q    Type
REMARK                         _______ _______ _______ _____ _____    ______ ____
ROOT
ATOM      1  N   UNL     1       6.193   3.259   2.053  0.00  0.00    -0.354 N 
ATOM      2  N   UNL     1       7.363   5.149   2.702  0.00  0.00    -0.372 N 
ATOM      3  N   UNL     1       7.874   4.164   0.694  0.00  0.00    -0.372 N 
ATOM      4  C   UNL     1       7.137   4.178   1.810  0.00  0.00    +0.166 C 
ATOM      5  H   UNL     1       5.689   3.308   2.931  0.00  0.00    +0.163 HD
ATOM      6  H   UNL     1       8.067   5.858   2.545  0.00  0.00    +0.159 HD
ATOM      7  H   UNL     1       6.827   5.222   3.558  0.00  0.00    +0.159 HD
ATOM      8  H   UNL     1       7.756   3.454  -0.016  0.00  0.00    +0.159 HD
ATOM      9  H   UNL     1       8.591   4.858   0.524  0.00  0.00    +0.159 HD
ENDROOT
BRANCH   1  10
ATOM     10  C   UNL     1       5.831   2.192   1.122  0.00  0.00    +0.151 C 
BRANCH  10  11
ATOM     11  C   UNL     1       5.488   0.954   1.903  0.00  0.00    -0.028 A 
ATOM     12  C   UNL     1       4.735  -0.073   1.316  0.00  0.00    +0.005 A 
ATOM     13  C   UNL     1       5.919   0.799   3.230  0.00  0.00    +0.005 A 
ATOM     14  C   UNL     1       4.443  -1.237   2.031  0.00  0.00    +0.000 A 
ATOM     15  C   UNL     1       5.624  -0.364   3.941  0.00  0.00    +0.000 A 
ATOM     16  C   UNL     1       4.888  -1.383   3.341  0.00  0.00    +0.000 A 
ENDBRANCH  10  11
ENDBRANCH   1  10
TORSDOF 2
ENDMDL
MODEL 9
REMARK VINA RESULT:    -4.438      7.649      8.082
REMARK INTER + INTRA:          -5.135
REMARK INTER:                  -5.006
REMARK INTRA:                  -0.129
REMARK UNBOUND:                -0.179
REMARK  Name = 1550473
REMARK  2 active torsions:
REMARK  status: ('A' for Active; 'I' for Inactive)
REMARK    1  A    between atoms: N_1  and  C_4
REMARK    2  A    between atoms: C_4  and  C_5
REMARK                            x       y       z     vdW  Elec       q    Type
REMARK                         _______ _______ _______ _____ _____    ______ ____
ROOT
ATOM      1  N   UNL     1       2.592  -0.167   3.129  0.00  0.00    -0.354 N 
ATOM      2  N   UNL     1       4.266  -1.197   1.903  0.00  0.00    -0.372 N 
ATOM      3  N   UNL     1       2.694  -2.502   2.948  0.00  0.00    -0.372 N 
ATOM      4  C   UNL     1       3.172  -1.284   2.669  0.00  0.00    +0.166 C 
ATOM      5  H   UNL     1       3.020   0.724   2.906  0.00  0.00    +0.163 HD
ATOM      6  H   UNL     1       4.723  -2.022   1.539  0.00  0.00    +0.159 HD
ATOM      7  H   UNL     1       4.665  -0.303   1.644  0.00  0.00    +0.159 HD
ATOM      8  H   UNL     1       1.875  -2.636   3.526  0.00  0.00    +0.159 HD
ATOM      9  H   UNL     1       3.145  -3.340   2.603  0.00  0.00    +0.159 HD
ENDROOT
BRANCH   1  10
ATOM     10  C   UNL     1       1.366  -0.151   3.926  0.00  0.00    +0.151 C 
BRANCH  10  11
ATOM     11  C   UNL     1       0.596   1.103   3.617  0.00  0.00    -0.028 A 
ATOM     12  C   UNL     1      -0.712   1.271   4.093  0.00  0.00    +0.005 A 
ATOM     13  C   UNL     1       1.172   2.131   2.854  0.00  0.00    +0.005 A 
ATOM     14  C   UNL     1      -1.417   2.448   3.832  0.00  0.00    +0.000 A 
ATOM     15  C   UNL     1       0.465   3.305   2.595  0.00  0.00    +0.000 A 
ATOM     16  C   UNL     1      -0.829   3.464   3.086  0.00  0.00    +0.000 A 
ENDBRANCH  10  11
ENDBRANCH   1  10
TORSDOF 2
ENDMDL
