MODEL 1
REMARK VINA RESULT:    -4.950      0.000      0.000
REMARK INTER + INTRA:          -5.663
REMARK INTER:                  -5.529
REMARK INTRA:                  -0.134
REMARK UNBOUND:                -0.134
REMARK  Name = 1550473
REMARK  2 active torsions:
REMARK  status: ('A' for Active; 'I' for Inactive)
REMARK    1  A    between atoms: N_1  and  C_4
REMARK    2  A    between atoms: C_4  and  C_5
REMARK                            x       y       z     vdW  Elec       q    Type
REMARK                         _______ _______ _______ _____ _____    ______ ____
ROOT
ATOM      1  N   UNL     1      -5.779 -11.831 -12.627  0.00  0.00    -0.354 N 
ATOM      2  N   UNL     1      -7.743 -12.183 -13.803  0.00  0.00    -0.372 N 
ATOM      3  N   UNL     1      -6.202 -13.879 -13.684  0.00  0.00    -0.372 N 
ATOM      4  C   UNL     1      -6.561 -12.631 -13.365  0.00  0.00    +0.166 C 
ATOM      5  H   UNL     1      -6.094 -10.885 -12.445  0.00  0.00    +0.163 HD
ATOM      6  H   UNL     1      -8.356 -12.765 -14.359  0.00  0.00    +0.159 HD
ATOM      7  H   UNL     1      -8.076 -11.253 -13.581  0.00  0.00    +0.159 HD
ATOM      8  H   UNL     1      -5.320 -14.275 -13.389  0.00  0.00    +0.159 HD
ATOM      9  H   UNL     1      -6.797 -14.473 -14.249  0.00  0.00    +0.159 HD
ENDROOT
BRANCH   1  10
ATOM     10  C   UNL     1      -4.497 -12.240 -12.056  0.00  0.00    +0.151 C 
BRANCH  10  11
ATOM     11  C   UNL     1      -4.412 -11.746 -10.638  0.00  0.00    -0.028 A 
ATOM     12  C   UNL     1      -5.207 -10.674 -10.208  0.00  0.00    +0.005 A 
ATOM     13  C   UNL     1      -3.541 -12.350  -9.718  0.00  0.00    +0.005 A 
ATOM     14  C   UNL     1      -5.150 -10.234  -8.883  0.00  0.00    +0.000 A 
ATOM     15  C   UNL     1      -3.486 -11.907  -8.396  0.00  0.00    +0.000 A 
ATOM     16  C   UNL     1      -4.293 -10.851  -7.979  0.00  0.00    +0.000 A 
ENDBRANCH  10  11
ENDBRANCH   1  10
TORSDOF 2
ENDMDL
MODEL 2
REMARK VINA RESULT:    -4.719      3.796      4.639
REMARK INTER + INTRA:          -5.404
REMARK INTER:                  -5.281
REMARK INTRA:                  -0.123
REMARK UNBOUND:                -0.134
REMARK  Name = 1550473
REMARK  2 active torsions:
REMARK  status: ('A' for Active; 'I' for Inactive)
REMARK    1  A    between atoms: N_1  and  C_4
REMARK    2  A    between atoms: C_4  and  C_5
REMARK                            x       y       z     vdW  Elec       q    Type
REMARK                         _______ _______ _______ _____ _____    ______ ____
ROOT
ATOM      1  N   UNL     1      -7.618 -12.198  -8.262  0.00  0.00    -0.354 N 
ATOM      2  N   UNL     1      -8.728 -12.430  -6.243  0.00  0.00    -0.372 N 
ATOM      3  N   UNL     1      -9.884 -12.791  -8.192  0.00  0.00    -0.372 N 
ATOM      4  C   UNL     1      -8.738 -12.472  -7.581  0.00  0.00    +0.166 C 
ATOM      5  H   UNL     1      -6.790 -11.933  -7.741  0.00  0.00    +0.163 HD
ATOM      6  H   UNL     1      -9.558 -12.635  -5.702  0.00  0.00    +0.159 HD
ATOM      7  H   UNL     1      -7.888 -12.209  -5.723  0.00  0.00    +0.159 HD
ATOM      8  H   UNL     1      -9.959 -12.835  -9.200  0.00  0.00    +0.159 HD
ATOM      9  H   UNL     1     -10.727 -12.988  -7.668  0.00  0.00    +0.159 HD
ENDROOT
BRANCH   1  10
ATOM     10  C   UNL     1      -7.509 -12.268  -9.718  0.00  0.00    +0.151 C 
BRANCH  10  11
ATOM     11  C   UNL     1      -6.795 -11.042 -10.217  0.00  0.00    -0.028 A 
ATOM     12  C   UNL     1      -7.277 -10.343 -11.333  0.00  0.00    +0.005 A 
ATOM     13  C   UNL     1      -5.640 -10.571  -9.574  0.00  0.00    +0.005 A 
ATOM     14  C   UNL     1      -6.632  -9.187 -11.779  0.00  0.00    +0.000 A 
ATOM     15  C   UNL     1      -4.998  -9.417 -10.023  0.00  0.00    +0.000 A 
ATOM     16  C   UNL     1      -5.496  -8.723 -11.123  0.00  0.00    +0.000 A 
ENDBRANCH  10  11
ENDBRANCH   1  10
TORSDOF 2
ENDMDL
MODEL 3
REMARK VINA RESULT:    -4.705      4.315      5.427
REMARK INTER + INTRA:          -5.389
REMARK INTER:                  -5.281
REMARK INTRA:                  -0.108
REMARK UNBOUND:                -0.134
REMARK  Name = 1550473
REMARK  2 active torsions:
REMARK  status: ('A' for Active; 'I' for Inactive)
REMARK    1  A    between atoms: N_1  and  C_4
REMARK    2  A    between atoms: C_4  and  C_5
REMARK                            x       y       z     vdW  Elec       q    Type
REMARK                         _______ _______ _______ _____ _____    ______ ____
ROOT
ATOM      1  N   UNL     1      -5.633 -11.841  -8.982  0.00  0.00    -0.354 N 
ATOM      2  N   UNL     1      -3.651 -11.559  -7.818  0.00  0.00    -0.372 N 
ATOM      3  N   UNL     1      -4.857  -9.702  -8.420  0.00  0.00    -0.372 N 
ATOM      4  C   UNL     1      -4.727 -11.033  -8.415  0.00  0.00    +0.166 C 
ATOM      5  H   UNL     1      -5.462 -12.840  -8.970  0.00  0.00    +0.163 HD
ATOM      6  H   UNL     1      -2.952 -10.975  -7.379  0.00  0.00    +0.159 HD
ATOM      7  H   UNL     1      -3.505 -12.560  -7.767  0.00  0.00    +0.159 HD
ATOM      8  H   UNL     1      -5.643  -9.242  -8.859  0.00  0.00    +0.159 HD
ATOM      9  H   UNL     1      -4.162  -9.100  -7.996  0.00  0.00    +0.159 HD
ENDROOT
BRANCH   1  10
ATOM     10  C   UNL     1      -6.867 -11.372  -9.610  0.00  0.00    +0.151 C 
BRANCH  10  11
ATOM     11  C   UNL     1      -8.044 -11.896  -8.834  0.00  0.00    -0.028 A 
ATOM     12  C   UNL     1      -9.222 -12.271  -9.494  0.00  0.00    +0.005 A 
ATOM     13  C   UNL     1      -7.984 -12.024  -7.438  0.00  0.00    +0.005 A 
ATOM     14  C   UNL     1     -10.305 -12.786  -8.777  0.00  0.00    +0.000 A 
ATOM     15  C   UNL     1      -9.067 -12.538  -6.725  0.00  0.00    +0.000 A 
ATOM     16  C   UNL     1     -10.226 -12.920  -7.395  0.00  0.00    +0.000 A 
ENDBRANCH  10  11
ENDBRANCH   1  10
TORSDOF 2
ENDMDL
MODEL 4
REMARK VINA RESULT:    -4.626     21.492     22.963
REMARK INTER + INTRA:          -5.301
REMARK INTER:                  -5.148
REMARK INTRA:                  -0.153
REMARK UNBOUND:                -0.134
REMARK  Name = 1550473
REMARK  2 active torsions:
REMARK  status: ('A' for Active; 'I' for Inactive)
REMARK    1  A    between atoms: N_1  and  C_4
REMARK    2  A    between atoms: C_4  and  C_5
REMARK                            x       y       z     vdW  Elec       q    Type
REMARK                         _______ _______ _______ _____ _____    ______ ____
ROOT
ATOM      1  N   UNL     1     -18.826  -0.347   1.275  0.00  0.00    -0.354 N 
ATOM      2  N   UNL     1     -17.774  -2.410   1.264  0.00  0.00    -0.372 N 
ATOM      3  N   UNL     1     -18.785  -1.691   3.194  0.00  0.00    -0.372 N 
ATOM      4  C   UNL     1     -18.470  -1.469   1.914  0.00  0.00    +0.166 C 
ATOM      5  H   UNL     1     -18.530  -0.226   0.313  0.00  0.00    +0.163 HD
ATOM      6  H   UNL     1     -17.494  -3.268   1.719  0.00  0.00    +0.159 HD
ATOM      7  H   UNL     1     -17.519  -2.306   0.289  0.00  0.00    +0.159 HD
ATOM      8  H   UNL     1     -19.304  -1.018   3.742  0.00  0.00    +0.159 HD
ATOM      9  H   UNL     1     -18.504  -2.539   3.670  0.00  0.00    +0.159 HD
ENDROOT
BRANCH   1  10
ATOM     10  C   UNL     1     -19.631   0.716   1.875  0.00  0.00    +0.151 C 
BRANCH  10  11
ATOM     11  C   UNL     1     -18.716   1.797   2.383  0.00  0.00    -0.028 A 
ATOM     12  C   UNL     1     -17.533   2.108   1.697  0.00  0.00    +0.005 A 
ATOM     13  C   UNL     1     -19.030   2.517   3.545  0.00  0.00    +0.005 A 
ATOM     14  C   UNL     1     -16.699   3.132   2.151  0.00  0.00    +0.000 A 
ATOM     15  C   UNL     1     -18.194   3.538   3.996  0.00  0.00    +0.000 A 
ATOM     16  C   UNL     1     -17.030   3.847   3.297  0.00  0.00    +0.000 A 
ENDBRANCH  10  11
ENDBRANCH   1  10
TORSDOF 2
ENDMDL
MODEL 5
REMARK VINA RESULT:    -4.537     13.867     14.814
REMARK INTER + INTRA:          -5.201
REMARK INTER:                  -5.066
REMARK INTRA:                  -0.135
REMARK UNBOUND:                -0.134
REMARK  Name = 1550473
REMARK  2 active torsions:
REMARK  status: ('A' for Active; 'I' for Inactive)
REMARK    1  A    between atoms: N_1  and  C_4
REMARK    2  A    between atoms: C_4  and  C_5
REMARK                            x       y       z     vdW  Elec       q    Type
REMARK                         _______ _______ _______ _____ _____    ______ ____
ROOT
ATOM      1  N   UNL     1      -9.124   1.781 -15.931  0.00  0.00    -0.354 N 
ATOM      2  N   UNL     1      -9.947   3.837 -15.252  0.00  0.00    -0.372 N 
ATOM      3  N   UNL     1     -10.811   2.867 -17.143  0.00  0.00    -0.372 N 
ATOM      4  C   UNL     1      -9.957   2.815 -16.115  0.00  0.00    +0.166 C 
ATOM      5  H   UNL     1      -8.480   1.816 -15.149  0.00  0.00    +0.163 HD
ATOM      6  H   UNL     1     -10.565   4.629 -15.363  0.00  0.00    +0.159 HD
ATOM      7  H   UNL     1      -9.334   3.847 -14.446  0.00  0.00    +0.159 HD
ATOM      8  H   UNL     1     -10.863   2.130 -17.834  0.00  0.00    +0.159 HD
ATOM      9  H   UNL     1     -11.430   3.656 -17.278  0.00  0.00    +0.159 HD
ENDROOT
BRANCH   1  10
ATOM     10  C   UNL     1      -9.094   0.594 -16.783  0.00  0.00    +0.151 C 
BRANCH  10  11
ATOM     11  C   UNL     1      -7.663   0.201 -17.027  0.00  0.00    -0.028 A 
ATOM     12  C   UNL     1      -6.695   1.176 -17.309  0.00  0.00    +0.005 A 
ATOM     13  C   UNL     1      -7.267  -1.144 -16.973  0.00  0.00    +0.005 A 
ATOM     14  C   UNL     1      -5.360   0.815 -17.507  0.00  0.00    +0.000 A 
ATOM     15  C   UNL     1      -5.933  -1.501 -17.171  0.00  0.00    +0.000 A 
ATOM     16  C   UNL     1      -4.980  -0.521 -17.435  0.00  0.00    +0.000 A 
ENDBRANCH  10  11
ENDBRANCH   1  10
TORSDOF 2
ENDMDL
MODEL 6
REMARK VINA RESULT:    -4.527     22.687     23.839
REMARK INTER + INTRA:          -5.190
REMARK INTER:                  -5.052
REMARK INTRA:                  -0.137
REMARK UNBOUND:                -0.134
REMARK  Name = 1550473
REMARK  2 active torsions:
REMARK  status: ('A' for Active; 'I' for Inactive)
REMARK    1  A    between atoms: N_1  and  C_4
REMARK    2  A    between atoms: C_4  and  C_5
REMARK                            x       y       z     vdW  Elec       q    Type
REMARK                         _______ _______ _______ _____ _____    ______ ____
ROOT
ATOM      1  N   UNL     1     -18.545  -0.554   4.387  0.00  0.00    -0.354 N 
ATOM      2  N   UNL     1     -18.717  -2.722   3.591  0.00  0.00    -0.372 N 
ATOM      3  N   UNL     1     -20.631  -1.486   3.864  0.00  0.00    -0.372 N 
ATOM      4  C   UNL     1     -19.299  -1.573   3.953  0.00  0.00    +0.166 C 
ATOM      5  H   UNL     1     -17.544  -0.694   4.460  0.00  0.00    +0.163 HD
ATOM      6  H   UNL     1     -19.260  -3.507   3.256  0.00  0.00    +0.159 HD
ATOM      7  H   UNL     1     -17.712  -2.844   3.622  0.00  0.00    +0.159 HD
ATOM      8  H   UNL     1     -21.131  -0.648   4.127  0.00  0.00    +0.159 HD
ATOM      9  H   UNL     1     -21.192  -2.264   3.542  0.00  0.00    +0.159 HD
ENDROOT
BRANCH   1  10
ATOM     10  C   UNL     1     -19.075   0.757   4.755  0.00  0.00    +0.151 C 
BRANCH  10  11
ATOM     11  C   UNL     1     -18.246   1.825   4.095  0.00  0.00    -0.028 A 
ATOM     12  C   UNL     1     -17.566   1.559   2.897  0.00  0.00    +0.005 A 
ATOM     13  C   UNL     1     -18.141   3.105   4.659  0.00  0.00    +0.005 A 
ATOM     14  C   UNL     1     -16.820   2.559   2.268  0.00  0.00    +0.000 A 
ATOM     15  C   UNL     1     -17.395   4.100   4.029  0.00  0.00    +0.000 A 
ATOM     16  C   UNL     1     -16.736   3.828   2.832  0.00  0.00    +0.000 A 
ENDBRANCH  10  11
ENDBRANCH   1  10
TORSDOF 2
ENDMDL
MODEL 7
REMARK VINA RESULT:    -4.477      3.431      4.136
REMARK INTER + INTRA:          -5.134
REMARK INTER:                  -4.996
REMARK INTRA:                  -0.139
REMARK UNBOUND:                -0.134
REMARK  Name = 1550473
REMARK  2 active torsions:
REMARK  status: ('A' for Active; 'I' for Inactive)
REMARK    1  A    between atoms: N_1  and  C_4
REMARK    2  A    between atoms: C_4  and  C_5
REMARK                            x       y       z     vdW  Elec       q    Type
REMARK                         _______ _______ _______ _____ _____    ______ ____
ROOT
ATOM      1  N   UNL     1      -7.366 -11.677  -7.917  0.00  0.00    -0.354 N 
ATOM      2  N   UNL     1      -9.089 -12.514  -6.616  0.00  0.00    -0.372 N 
ATOM      3  N   UNL     1      -8.954 -13.147  -8.817  0.00  0.00    -0.372 N 
ATOM      4  C   UNL     1      -8.459 -12.442  -7.795  0.00  0.00    +0.166 C 
ATOM      5  H   UNL     1      -7.059 -11.143  -7.112  0.00  0.00    +0.163 HD
ATOM      6  H   UNL     1      -9.915 -13.085  -6.492  0.00  0.00    +0.159 HD
ATOM      7  H   UNL     1      -8.754 -12.015  -5.801  0.00  0.00    +0.159 HD
ATOM      8  H   UNL     1      -8.528 -13.131  -9.734  0.00  0.00    +0.159 HD
ATOM      9  H   UNL     1      -9.786 -13.715  -8.716  0.00  0.00    +0.159 HD
ENDROOT
BRANCH   1  10
ATOM     10  C   UNL     1      -6.575 -11.572  -9.142  0.00  0.00    +0.151 C 
BRANCH  10  11
ATOM     11  C   UNL     1      -5.168 -12.020  -8.859  0.00  0.00    -0.028 A 
ATOM     12  C   UNL     1      -4.299 -11.209  -8.114  0.00  0.00    +0.005 A 
ATOM     13  C   UNL     1      -4.700 -13.258  -9.327  0.00  0.00    +0.005 A 
ATOM     14  C   UNL     1      -3.001 -11.639  -7.825  0.00  0.00    +0.000 A 
ATOM     15  C   UNL     1      -3.403 -13.682  -9.036  0.00  0.00    +0.000 A 
ATOM     16  C   UNL     1      -2.555 -12.874  -8.283  0.00  0.00    +0.000 A 
ENDBRANCH  10  11
ENDBRANCH   1  10
TORSDOF 2
ENDMDL
MODEL 8
REMARK VINA RESULT:    -4.388      1.959      2.905
REMARK INTER + INTRA:          -5.034
REMARK INTER:                  -4.873
REMARK INTRA:                  -0.161
REMARK UNBOUND:                -0.134
REMARK  Name = 1550473
REMARK  2 active torsions:
REMARK  status: ('A' for Active; 'I' for Inactive)
REMARK    1  A    between atoms: N_1  and  C_4
REMARK    2  A    between atoms: C_4  and  C_5
REMARK                            x       y       z     vdW  Elec       q    Type
REMARK                         _______ _______ _______ _____ _____    ______ ____
ROOT
ATOM      1  N   UNL     1      -6.175 -13.034 -11.742  0.00  0.00    -0.354 N 
ATOM      2  N   UNL     1      -6.049 -14.242 -13.714  0.00  0.00    -0.372 N 
ATOM      3  N   UNL     1      -8.048 -13.278 -13.130  0.00  0.00    -0.372 N 
ATOM      4  C   UNL     1      -6.761 -13.509 -12.849  0.00  0.00    +0.166 C 
ATOM      5  H   UNL     1      -5.204 -13.270 -11.572  0.00  0.00    +0.163 HD
ATOM      6  H   UNL     1      -6.463 -14.611 -14.560  0.00  0.00    +0.159 HD
ATOM      7  H   UNL     1      -5.067 -14.438 -13.565  0.00  0.00    +0.159 HD
ATOM      8  H   UNL     1      -8.641 -12.737 -12.514  0.00  0.00    +0.159 HD
ATOM      9  H   UNL     1      -8.483 -13.649 -13.965  0.00  0.00    +0.159 HD
ENDROOT
BRANCH   1  10
ATOM     10  C   UNL     1      -6.846 -12.181 -10.763  0.00  0.00    +0.151 C 
BRANCH  10  11
ATOM     11  C   UNL     1      -6.403 -10.758 -10.965  0.00  0.00    -0.028 A 
ATOM     12  C   UNL     1      -7.008  -9.956 -11.944  0.00  0.00    +0.005 A 
ATOM     13  C   UNL     1      -5.383 -10.204 -10.177  0.00  0.00    +0.005 A 
ATOM     14  C   UNL     1      -6.618  -8.625 -12.111  0.00  0.00    +0.000 A 
ATOM     15  C   UNL     1      -4.995  -8.876 -10.348  0.00  0.00    +0.000 A 
ATOM     16  C   UNL     1      -5.614  -8.086 -11.313  0.00  0.00    +0.000 A 
ENDBRANCH  10  11
ENDBRANCH   1  10
TORSDOF 2
ENDMDL
MODEL 9
REMARK VINA RESULT:    -4.263      4.317      4.873
REMARK INTER + INTRA:          -4.895
REMARK INTER:                  -4.771
REMARK INTRA:                  -0.124
REMARK UNBOUND:                -0.134
REMARK  Name = 1550473
REMARK  2 active torsions:
REMARK  status: ('A' for Active; 'I' for Inactive)
REMARK    1  A    between atoms: N_1  and  C_4
REMARK    2  A    between atoms: C_4  and  C_5
REMARK                            x       y       z     vdW  Elec       q    Type
REMARK                         _______ _______ _______ _____ _____    ______ ____
ROOT
ATOM      1  N   UNL     1      -9.694 -12.718  -8.800  0.00  0.00    -0.354 N 
ATOM      2  N   UNL     1     -11.787 -13.617  -9.215  0.00  0.00    -0.372 N 
ATOM      3  N   UNL     1     -10.826 -13.948  -7.158  0.00  0.00    -0.372 N 
ATOM      4  C   UNL     1     -10.755 -13.423  -8.386  0.00  0.00    +0.166 C 
ATOM      5  H   UNL     1      -9.688 -12.372  -9.753  0.00  0.00    +0.163 HD
ATOM      6  H   UNL     1     -12.603 -14.142  -8.930  0.00  0.00    +0.159 HD
ATOM      7  H   UNL     1     -11.798 -13.231 -10.152  0.00  0.00    +0.159 HD
ATOM      8  H   UNL     1     -10.078 -13.843  -6.486  0.00  0.00    +0.159 HD
ATOM      9  H   UNL     1     -11.629 -14.487  -6.858  0.00  0.00    +0.159 HD
ENDROOT
BRANCH   1  10
ATOM     10  C   UNL     1      -8.541 -12.404  -7.957  0.00  0.00    +0.151 C 
BRANCH  10  11
ATOM     11  C   UNL     1      -7.502 -11.702  -8.787  0.00  0.00    -0.028 A 
ATOM     12  C   UNL     1      -7.734 -11.440 -10.145  0.00  0.00    +0.005 A 
ATOM     13  C   UNL     1      -6.286 -11.292  -8.220  0.00  0.00    +0.005 A 
ATOM     14  C   UNL     1      -6.782 -10.761 -10.910  0.00  0.00    +0.000 A 
ATOM     15  C   UNL     1      -5.337 -10.616  -8.987  0.00  0.00    +0.000 A 
ATOM     16  C   UNL     1      -5.586 -10.348 -10.331  0.00  0.00    +0.000 A 
ENDBRANCH  10  11
ENDBRANCH   1  10
TORSDOF 2
ENDMDL
