MODEL 1
REMARK VINA RESULT:    -5.892      0.000      0.000
REMARK INTER + INTRA:          -6.683
REMARK INTER:                  -6.581
REMARK INTRA:                  -0.102
REMARK UNBOUND:                -0.102
REMARK  Name = 1550473
REMARK  2 active torsions:
REMARK  status: ('A' for Active; 'I' for Inactive)
REMARK    1  A    between atoms: N_1  and  C_4
REMARK    2  A    between atoms: C_4  and  C_5
REMARK                            x       y       z     vdW  Elec       q    Type
REMARK                         _______ _______ _______ _____ _____    ______ ____
ROOT
ATOM      1  N   UNL     1      14.247   0.191   2.994  0.00  0.00    -0.354 N 
ATOM      2  N   UNL     1      14.228  -2.023   2.315  0.00  0.00    -0.372 N 
ATOM      3  N   UNL     1      14.603  -0.386   0.751  0.00  0.00    -0.372 N 
ATOM      4  C   UNL     1      14.360  -0.724   2.021  0.00  0.00    +0.166 C 
ATOM      5  H   UNL     1      14.032  -0.127   3.932  0.00  0.00    +0.163 HD
ATOM      6  H   UNL     1      14.311  -2.736   1.603  0.00  0.00    +0.159 HD
ATOM      7  H   UNL     1      14.059  -2.341   3.261  0.00  0.00    +0.159 HD
ATOM      8  H   UNL     1      14.706   0.578   0.463  0.00  0.00    +0.159 HD
ATOM      9  H   UNL     1      14.678  -1.085   0.022  0.00  0.00    +0.159 HD
ENDROOT
BRANCH   1  10
ATOM     10  C   UNL     1      14.427   1.628   2.790  0.00  0.00    +0.151 C 
BRANCH  10  11
ATOM     11  C   UNL     1      14.351   2.326   4.119  0.00  0.00    -0.028 A 
ATOM     12  C   UNL     1      15.376   3.191   4.529  0.00  0.00    +0.005 A 
ATOM     13  C   UNL     1      13.254   2.131   4.972  0.00  0.00    +0.005 A 
ATOM     14  C   UNL     1      15.292   3.863   5.751  0.00  0.00    +0.000 A 
ATOM     15  C   UNL     1      13.174   2.803   6.192  0.00  0.00    +0.000 A 
ATOM     16  C   UNL     1      14.192   3.671   6.579  0.00  0.00    +0.000 A 
ENDBRANCH  10  11
ENDBRANCH   1  10
TORSDOF 2
ENDMDL
MODEL 2
REMARK VINA RESULT:    -5.881      3.781      5.387
REMARK INTER + INTRA:          -6.670
REMARK INTER:                  -6.521
REMARK INTRA:                  -0.149
REMARK UNBOUND:                -0.102
REMARK  Name = 1550473
REMARK  2 active torsions:
REMARK  status: ('A' for Active; 'I' for Inactive)
REMARK    1  A    between atoms: N_1  and  C_4
REMARK    2  A    between atoms: C_4  and  C_5
REMARK                            x       y       z     vdW  Elec       q    Type
REMARK                         _______ _______ _______ _____ _____    ______ ____
ROOT
ATOM      1  N   UNL     1      13.871   4.372   6.386  0.00  0.00    -0.354 N 
ATOM      2  N   UNL     1      11.983   5.076   7.528  0.00  0.00    -0.372 N 
ATOM      3  N   UNL     1      13.566   3.851   8.650  0.00  0.00    -0.372 N 
ATOM      4  C   UNL     1      13.153   4.427   7.516  0.00  0.00    +0.166 C 
ATOM      5  H   UNL     1      13.488   4.803   5.552  0.00  0.00    +0.163 HD
ATOM      6  H   UNL     1      11.421   5.137   8.367  0.00  0.00    +0.159 HD
ATOM      7  H   UNL     1      11.625   5.545   6.705  0.00  0.00    +0.159 HD
ATOM      8  H   UNL     1      14.438   3.341   8.706  0.00  0.00    +0.159 HD
ATOM      9  H   UNL     1      13.013   3.892   9.497  0.00  0.00    +0.159 HD
ENDROOT
BRANCH   1  10
ATOM     10  C   UNL     1      15.183   3.736   6.280  0.00  0.00    +0.151 C 
BRANCH  10  11
ATOM     11  C   UNL     1      15.105   2.611   5.286  0.00  0.00    -0.028 A 
ATOM     12  C   UNL     1      15.187   2.869   3.910  0.00  0.00    +0.005 A 
ATOM     13  C   UNL     1      14.956   1.283   5.714  0.00  0.00    +0.005 A 
ATOM     14  C   UNL     1      15.145   1.821   2.987  0.00  0.00    +0.000 A 
ATOM     15  C   UNL     1      14.913   0.239   4.790  0.00  0.00    +0.000 A 
ATOM     16  C   UNL     1      15.010   0.508   3.427  0.00  0.00    +0.000 A 
ENDBRANCH  10  11
ENDBRANCH   1  10
TORSDOF 2
ENDMDL
MODEL 3
REMARK VINA RESULT:    -5.606      1.537      2.218
REMARK INTER + INTRA:          -6.364
REMARK INTER:                  -6.231
REMARK INTRA:                  -0.133
REMARK UNBOUND:                -0.102
REMARK  Name = 1550473
REMARK  2 active torsions:
REMARK  status: ('A' for Active; 'I' for Inactive)
REMARK    1  A    between atoms: N_1  and  C_4
REMARK    2  A    between atoms: C_4  and  C_5
REMARK                            x       y       z     vdW  Elec       q    Type
REMARK                         _______ _______ _______ _____ _____    ______ ____
ROOT
ATOM      1  N   UNL     1      14.579  -1.730   2.533  0.00  0.00    -0.354 N 
ATOM      2  N   UNL     1      13.966  -3.962   2.470  0.00  0.00    -0.372 N 
ATOM      3  N   UNL     1      13.007  -2.506   0.978  0.00  0.00    -0.372 N 
ATOM      4  C   UNL     1      13.853  -2.717   1.992  0.00  0.00    +0.166 C 
ATOM      5  H   UNL     1      15.179  -1.949   3.320  0.00  0.00    +0.163 HD
ATOM      6  H   UNL     1      13.434  -4.728   2.079  0.00  0.00    +0.159 HD
ATOM      7  H   UNL     1      14.601  -4.188   3.225  0.00  0.00    +0.159 HD
ATOM      8  H   UNL     1      12.871  -1.588   0.576  0.00  0.00    +0.159 HD
ATOM      9  H   UNL     1      12.456  -3.258   0.582  0.00  0.00    +0.159 HD
ENDROOT
BRANCH   1  10
ATOM     10  C   UNL     1      14.569  -0.349   2.052  0.00  0.00    +0.151 C 
BRANCH  10  11
ATOM     11  C   UNL     1      14.762   0.579   3.219  0.00  0.00    -0.028 A 
ATOM     12  C   UNL     1      14.801   1.968   3.026  0.00  0.00    +0.005 A 
ATOM     13  C   UNL     1      14.902   0.077   4.522  0.00  0.00    +0.005 A 
ATOM     14  C   UNL     1      14.951   2.832   4.113  0.00  0.00    +0.000 A 
ATOM     15  C   UNL     1      15.052   0.943   5.605  0.00  0.00    +0.000 A 
ATOM     16  C   UNL     1      15.074   2.320   5.400  0.00  0.00    +0.000 A 
ENDBRANCH  10  11
ENDBRANCH   1  10
TORSDOF 2
ENDMDL
MODEL 4
REMARK VINA RESULT:    -5.414      3.690      6.679
REMARK INTER + INTRA:          -6.150
REMARK INTER:                  -6.029
REMARK INTRA:                  -0.120
REMARK UNBOUND:                -0.102
REMARK  Name = 1550473
REMARK  2 active torsions:
REMARK  status: ('A' for Active; 'I' for Inactive)
REMARK    1  A    between atoms: N_1  and  C_4
REMARK    2  A    between atoms: C_4  and  C_5
REMARK                            x       y       z     vdW  Elec       q    Type
REMARK                         _______ _______ _______ _____ _____    ______ ____
ROOT
ATOM      1  N   UNL     1      14.359  -1.023   1.648  0.00  0.00    -0.354 N 
ATOM      2  N   UNL     1      14.801   1.118   0.882  0.00  0.00    -0.372 N 
ATOM      3  N   UNL     1      15.813   0.400   2.812  0.00  0.00    -0.372 N 
ATOM      4  C   UNL     1      14.990   0.151   1.788  0.00  0.00    +0.166 C 
ATOM      5  H   UNL     1      13.724  -1.138   0.865  0.00  0.00    +0.163 HD
ATOM      6  H   UNL     1      15.266   2.013   0.959  0.00  0.00    +0.159 HD
ATOM      7  H   UNL     1      14.203   0.984   0.076  0.00  0.00    +0.159 HD
ATOM      8  H   UNL     1      15.993  -0.286   3.533  0.00  0.00    +0.159 HD
ATOM      9  H   UNL     1      16.278   1.293   2.913  0.00  0.00    +0.159 HD
ENDROOT
BRANCH   1  10
ATOM     10  C   UNL     1      14.537  -2.159   2.549  0.00  0.00    +0.151 C 
BRANCH  10  11
ATOM     11  C   UNL     1      13.713  -3.315   2.052  0.00  0.00    -0.028 A 
ATOM     12  C   UNL     1      13.944  -4.613   2.530  0.00  0.00    +0.005 A 
ATOM     13  C   UNL     1      12.694  -3.117   1.106  0.00  0.00    +0.005 A 
ATOM     14  C   UNL     1      13.159  -5.681   2.090  0.00  0.00    +0.000 A 
ATOM     15  C   UNL     1      11.913  -4.187   0.669  0.00  0.00    +0.000 A 
ATOM     16  C   UNL     1      12.144  -5.468   1.164  0.00  0.00    +0.000 A 
ENDBRANCH  10  11
ENDBRANCH   1  10
TORSDOF 2
ENDMDL
MODEL 5
REMARK VINA RESULT:    -5.401      1.920      3.270
REMARK INTER + INTRA:          -6.134
REMARK INTER:                  -6.034
REMARK INTRA:                  -0.101
REMARK UNBOUND:                -0.102
REMARK  Name = 1550473
REMARK  2 active torsions:
REMARK  status: ('A' for Active; 'I' for Inactive)
REMARK    1  A    between atoms: N_1  and  C_4
REMARK    2  A    between atoms: C_4  and  C_5
REMARK                            x       y       z     vdW  Elec       q    Type
REMARK                         _______ _______ _______ _____ _____    ______ ____
ROOT
ATOM      1  N   UNL     1      14.242  -2.185   2.363  0.00  0.00    -0.354 N 
ATOM      2  N   UNL     1      12.848  -3.663   1.253  0.00  0.00    -0.372 N 
ATOM      3  N   UNL     1      14.320  -4.484   2.810  0.00  0.00    -0.372 N 
ATOM      4  C   UNL     1      13.814  -3.436   2.151  0.00  0.00    +0.166 C 
ATOM      5  H   UNL     1      13.840  -1.438   1.809  0.00  0.00    +0.163 HD
ATOM      6  H   UNL     1      12.502  -4.597   1.074  0.00  0.00    +0.159 HD
ATOM      7  H   UNL     1      12.415  -2.909   0.734  0.00  0.00    +0.159 HD
ATOM      8  H   UNL     1      15.055  -4.380   3.497  0.00  0.00    +0.159 HD
ATOM      9  H   UNL     1      13.994  -5.427   2.636  0.00  0.00    +0.159 HD
ENDROOT
BRANCH   1  10
ATOM     10  C   UNL     1      15.252  -1.824   3.357  0.00  0.00    +0.151 C 
BRANCH  10  11
ATOM     11  C   UNL     1      15.234  -0.333   3.555  0.00  0.00    -0.028 A 
ATOM     12  C   UNL     1      15.063   0.212   4.836  0.00  0.00    +0.005 A 
ATOM     13  C   UNL     1      15.393   0.539   2.468  0.00  0.00    +0.005 A 
ATOM     14  C   UNL     1      15.077   1.596   5.026  0.00  0.00    +0.000 A 
ATOM     15  C   UNL     1      15.405   1.921   2.661  0.00  0.00    +0.000 A 
ATOM     16  C   UNL     1      15.249   2.449   3.940  0.00  0.00    +0.000 A 
ENDBRANCH  10  11
ENDBRANCH   1  10
TORSDOF 2
ENDMDL
MODEL 6
REMARK VINA RESULT:    -5.350     27.888     28.786
REMARK INTER + INTRA:          -6.077
REMARK INTER:                  -5.910
REMARK INTRA:                  -0.167
REMARK UNBOUND:                -0.102
REMARK  Name = 1550473
REMARK  2 active torsions:
REMARK  status: ('A' for Active; 'I' for Inactive)
REMARK    1  A    between atoms: N_1  and  C_4
REMARK    2  A    between atoms: C_4  and  C_5
REMARK                            x       y       z     vdW  Elec       q    Type
REMARK                         _______ _______ _______ _____ _____    ______ ____
ROOT
ATOM      1  N   UNL     1      -7.604  -6.778 -13.121  0.00  0.00    -0.354 N 
ATOM      2  N   UNL     1      -6.366  -7.734 -11.413  0.00  0.00    -0.372 N 
ATOM      3  N   UNL     1      -7.601  -5.852 -10.969  0.00  0.00    -0.372 N 
ATOM      4  C   UNL     1      -7.200  -6.779 -11.844  0.00  0.00    +0.166 C 
ATOM      5  H   UNL     1      -7.240  -7.491 -13.742  0.00  0.00    +0.163 HD
ATOM      6  H   UNL     1      -6.047  -7.763 -10.454  0.00  0.00    +0.159 HD
ATOM      7  H   UNL     1      -6.040  -8.472 -12.024  0.00  0.00    +0.159 HD
ATOM      8  H   UNL     1      -8.225  -5.101 -11.233  0.00  0.00    +0.159 HD
ATOM      9  H   UNL     1      -7.283  -5.857 -10.008  0.00  0.00    +0.159 HD
ENDROOT
BRANCH   1  10
ATOM     10  C   UNL     1      -8.552  -5.815 -13.678  0.00  0.00    +0.151 C 
BRANCH  10  11
ATOM     11  C   UNL     1      -7.789  -4.679 -14.303  0.00  0.00    -0.028 A 
ATOM     12  C   UNL     1      -8.064  -3.352 -13.941  0.00  0.00    +0.005 A 
ATOM     13  C   UNL     1      -6.787  -4.924 -15.253  0.00  0.00    +0.005 A 
ATOM     14  C   UNL     1      -7.335  -2.299 -14.499  0.00  0.00    +0.000 A 
ATOM     15  C   UNL     1      -6.062  -3.870 -15.809  0.00  0.00    +0.000 A 
ATOM     16  C   UNL     1      -6.335  -2.558 -15.429  0.00  0.00    +0.000 A 
ENDBRANCH  10  11
ENDBRANCH   1  10
TORSDOF 2
ENDMDL
MODEL 7
REMARK VINA RESULT:    -5.343      3.159      4.612
REMARK INTER + INTRA:          -6.070
REMARK INTER:                  -5.920
REMARK INTRA:                  -0.150
REMARK UNBOUND:                -0.102
REMARK  Name = 1550473
REMARK  2 active torsions:
REMARK  status: ('A' for Active; 'I' for Inactive)
REMARK    1  A    between atoms: N_1  and  C_4
REMARK    2  A    between atoms: C_4  and  C_5
REMARK                            x       y       z     vdW  Elec       q    Type
REMARK                         _______ _______ _______ _____ _____    ______ ____
ROOT
ATOM      1  N   UNL     1      15.249  -1.760   5.638  0.00  0.00    -0.354 N 
ATOM      2  N   UNL     1      13.793  -2.422   7.314  0.00  0.00    -0.372 N 
ATOM      3  N   UNL     1      15.235  -0.684   7.720  0.00  0.00    -0.372 N 
ATOM      4  C   UNL     1      14.770  -1.616   6.881  0.00  0.00    +0.166 C 
ATOM      5  H   UNL     1      14.874  -2.505   5.062  0.00  0.00    +0.163 HD
ATOM      6  H   UNL     1      13.409  -2.334   8.245  0.00  0.00    +0.159 HD
ATOM      7  H   UNL     1      13.389  -3.136   6.720  0.00  0.00    +0.159 HD
ATOM      8  H   UNL     1      15.976  -0.048   7.456  0.00  0.00    +0.159 HD
ATOM      9  H   UNL     1      14.872  -0.588   8.660  0.00  0.00    +0.159 HD
ENDROOT
BRANCH   1  10
ATOM     10  C   UNL     1      16.274  -0.899   5.052  0.00  0.00    +0.151 C 
BRANCH  10  11
ATOM     11  C   UNL     1      15.671  -0.119   3.917  0.00  0.00    -0.028 A 
ATOM     12  C   UNL     1      14.674   0.837   4.161  0.00  0.00    +0.005 A 
ATOM     13  C   UNL     1      16.095  -0.326   2.596  0.00  0.00    +0.005 A 
ATOM     14  C   UNL     1      14.134   1.584   3.111  0.00  0.00    +0.000 A 
ATOM     15  C   UNL     1      15.553   0.421   1.550  0.00  0.00    +0.000 A 
ATOM     16  C   UNL     1      14.575   1.377   1.808  0.00  0.00    +0.000 A 
ENDBRANCH  10  11
ENDBRANCH   1  10
TORSDOF 2
ENDMDL
MODEL 8
REMARK VINA RESULT:    -5.328     15.287     16.443
REMARK INTER + INTRA:          -6.053
REMARK INTER:                  -5.951
REMARK INTRA:                  -0.102
REMARK UNBOUND:                -0.102
REMARK  Name = 1550473
REMARK  2 active torsions:
REMARK  status: ('A' for Active; 'I' for Inactive)
REMARK    1  A    between atoms: N_1  and  C_4
REMARK    2  A    between atoms: C_4  and  C_5
REMARK                            x       y       z     vdW  Elec       q    Type
REMARK                         _______ _______ _______ _____ _____    ______ ____
ROOT
ATOM      1  N   UNL     1       6.331  -0.863  17.688  0.00  0.00    -0.354 N 
ATOM      2  N   UNL     1       5.672   0.851  19.099  0.00  0.00    -0.372 N 
ATOM      3  N   UNL     1       5.930   1.293  16.862  0.00  0.00    -0.372 N 
ATOM      4  C   UNL     1       5.982   0.417  17.871  0.00  0.00    +0.166 C 
ATOM      5  H   UNL     1       6.381  -1.470  18.499  0.00  0.00    +0.163 HD
ATOM      6  H   UNL     1       5.401   1.810  19.267  0.00  0.00    +0.159 HD
ATOM      7  H   UNL     1       5.677   0.231  19.900  0.00  0.00    +0.159 HD
ATOM      8  H   UNL     1       6.158   1.030  15.913  0.00  0.00    +0.159 HD
ATOM      9  H   UNL     1       5.673   2.260  17.013  0.00  0.00    +0.159 HD
ENDROOT
BRANCH   1  10
ATOM     10  C   UNL     1       6.636  -1.449  16.384  0.00  0.00    +0.151 C 
BRANCH  10  11
ATOM     11  C   UNL     1       6.901  -2.920  16.555  0.00  0.00    -0.028 A 
ATOM     12  C   UNL     1       8.122  -3.475  16.147  0.00  0.00    +0.005 A 
ATOM     13  C   UNL     1       5.936  -3.761  17.131  0.00  0.00    +0.005 A 
ATOM     14  C   UNL     1       8.380  -4.836  16.334  0.00  0.00    +0.000 A 
ATOM     15  C   UNL     1       6.198  -5.119  17.314  0.00  0.00    +0.000 A 
ATOM     16  C   UNL     1       7.420  -5.655  16.918  0.00  0.00    +0.000 A 
ENDBRANCH  10  11
ENDBRANCH   1  10
TORSDOF 2
ENDMDL
MODEL 9
REMARK VINA RESULT:    -5.150      1.503      2.040
REMARK INTER + INTRA:          -5.854
REMARK INTER:                  -5.740
REMARK INTRA:                  -0.114
REMARK UNBOUND:                -0.102
REMARK  Name = 1550473
REMARK  2 active torsions:
REMARK  status: ('A' for Active; 'I' for Inactive)
REMARK    1  A    between atoms: N_1  and  C_4
REMARK    2  A    between atoms: C_4  and  C_5
REMARK                            x       y       z     vdW  Elec       q    Type
REMARK                         _______ _______ _______ _____ _____    ______ ____
ROOT
ATOM      1  N   UNL     1      15.000   0.938   2.883  0.00  0.00    -0.354 N 
ATOM      2  N   UNL     1      14.969   1.138   0.576  0.00  0.00    -0.372 N 
ATOM      3  N   UNL     1      14.343  -0.855   1.525  0.00  0.00    -0.372 N 
ATOM      4  C   UNL     1      14.770   0.403   1.676  0.00  0.00    +0.166 C 
ATOM      5  H   UNL     1      15.351   1.888   2.929  0.00  0.00    +0.163 HD
ATOM      6  H   UNL     1      14.801   0.762  -0.348  0.00  0.00    +0.159 HD
ATOM      7  H   UNL     1      15.276   2.102   0.627  0.00  0.00    +0.159 HD
ATOM      8  H   UNL     1      14.180  -1.464   2.315  0.00  0.00    +0.159 HD
ATOM      9  H   UNL     1      14.181  -1.253   0.608  0.00  0.00    +0.159 HD
ENDROOT
BRANCH   1  10
ATOM     10  C   UNL     1      14.763   0.240   4.145  0.00  0.00    +0.151 C 
BRANCH  10  11
ATOM     11  C   UNL     1      14.568   1.255   5.238  0.00  0.00    -0.028 A 
ATOM     12  C   UNL     1      13.611   2.271   5.103  0.00  0.00    +0.005 A 
ATOM     13  C   UNL     1      15.333   1.202   6.413  0.00  0.00    +0.005 A 
ATOM     14  C   UNL     1      13.408   3.196   6.131  0.00  0.00    +0.000 A 
ATOM     15  C   UNL     1      15.129   2.127   7.437  0.00  0.00    +0.000 A 
ATOM     16  C   UNL     1      14.164   3.123   7.296  0.00  0.00    +0.000 A 
ENDBRANCH  10  11
ENDBRANCH   1  10
TORSDOF 2
ENDMDL
