MODEL 1
REMARK VINA RESULT:    -4.872      0.000      0.000
REMARK INTER + INTRA:          -5.578
REMARK INTER:                  -5.441
REMARK INTRA:                  -0.137
REMARK UNBOUND:                -0.137
REMARK  Name = 1550473
REMARK  2 active torsions:
REMARK  status: ('A' for Active; 'I' for Inactive)
REMARK    1  A    between atoms: N_1  and  C_4
REMARK    2  A    between atoms: C_4  and  C_5
REMARK                            x       y       z     vdW  Elec       q    Type
REMARK                         _______ _______ _______ _____ _____    ______ ____
ROOT
ATOM      1  N   UNL     1      -4.978  11.953 -10.300  0.00  0.00    -0.354 N 
ATOM      2  N   UNL     1      -2.947  11.059 -10.965  0.00  0.00    -0.372 N 
ATOM      3  N   UNL     1      -4.738   9.653 -10.680  0.00  0.00    -0.372 N 
ATOM      4  C   UNL     1      -4.236  10.892 -10.644  0.00  0.00    +0.166 C 
ATOM      5  H   UNL     1      -4.530  12.862 -10.263  0.00  0.00    +0.163 HD
ATOM      6  H   UNL     1      -2.364  10.278 -11.232  0.00  0.00    +0.159 HD
ATOM      7  H   UNL     1      -2.514  11.975 -10.971  0.00  0.00    +0.159 HD
ATOM      8  H   UNL     1      -5.702   9.459 -10.444  0.00  0.00    +0.159 HD
ATOM      9  H   UNL     1      -4.167   8.857 -10.933  0.00  0.00    +0.159 HD
ENDROOT
BRANCH   1  10
ATOM     10  C   UNL     1      -6.404  11.887  -9.985  0.00  0.00    +0.151 C 
BRANCH  10  11
ATOM     11  C   UNL     1      -6.628  12.437  -8.603  0.00  0.00    -0.028 A 
ATOM     12  C   UNL     1      -5.988  13.616  -8.194  0.00  0.00    +0.005 A 
ATOM     13  C   UNL     1      -7.483  11.786  -7.701  0.00  0.00    +0.005 A 
ATOM     14  C   UNL     1      -6.219  14.143  -6.921  0.00  0.00    +0.000 A 
ATOM     15  C   UNL     1      -7.710  12.315  -6.430  0.00  0.00    +0.000 A 
ATOM     16  C   UNL     1      -7.080  13.495  -6.042  0.00  0.00    +0.000 A 
ENDBRANCH  10  11
ENDBRANCH   1  10
TORSDOF 2
ENDMDL
MODEL 2
REMARK VINA RESULT:    -4.757     13.896     15.446
REMARK INTER + INTRA:          -5.450
REMARK INTER:                  -5.341
REMARK INTRA:                  -0.109
REMARK UNBOUND:                -0.137
REMARK  Name = 1550473
REMARK  2 active torsions:
REMARK  status: ('A' for Active; 'I' for Inactive)
REMARK    1  A    between atoms: N_1  and  C_4
REMARK    2  A    between atoms: C_4  and  C_5
REMARK                            x       y       z     vdW  Elec       q    Type
REMARK                         _______ _______ _______ _____ _____    ______ ____
ROOT
ATOM      1  N   UNL     1       6.784  13.078  -5.619  0.00  0.00    -0.354 N 
ATOM      2  N   UNL     1       4.893  14.176  -6.380  0.00  0.00    -0.372 N 
ATOM      3  N   UNL     1       5.399  14.258  -4.143  0.00  0.00    -0.372 N 
ATOM      4  C   UNL     1       5.704  13.831  -5.373  0.00  0.00    +0.166 C 
ATOM      5  H   UNL     1       6.944  12.760  -6.568  0.00  0.00    +0.163 HD
ATOM      6  H   UNL     1       4.072  14.746  -6.225  0.00  0.00    +0.159 HD
ATOM      7  H   UNL     1       5.080  13.896  -7.335  0.00  0.00    +0.159 HD
ATOM      8  H   UNL     1       5.967  14.027  -3.340  0.00  0.00    +0.159 HD
ATOM      9  H   UNL     1       4.575  14.820  -3.967  0.00  0.00    +0.159 HD
ENDROOT
BRANCH   1  10
ATOM     10  C   UNL     1       7.761  12.691  -4.602  0.00  0.00    +0.151 C 
BRANCH  10  11
ATOM     11  C   UNL     1       9.133  12.682  -5.217  0.00  0.00    -0.028 A 
ATOM     12  C   UNL     1       9.390  11.931  -6.373  0.00  0.00    +0.005 A 
ATOM     13  C   UNL     1      10.179  13.428  -4.652  0.00  0.00    +0.005 A 
ATOM     14  C   UNL     1      10.657  11.946  -6.962  0.00  0.00    +0.000 A 
ATOM     15  C   UNL     1      11.443  13.439  -5.242  0.00  0.00    +0.000 A 
ATOM     16  C   UNL     1      11.681  12.700  -6.398  0.00  0.00    +0.000 A 
ENDBRANCH  10  11
ENDBRANCH   1  10
TORSDOF 2
ENDMDL
MODEL 3
REMARK VINA RESULT:    -4.756      1.427      2.245
REMARK INTER + INTRA:          -5.449
REMARK INTER:                  -5.328
REMARK INTRA:                  -0.120
REMARK UNBOUND:                -0.137
REMARK  Name = 1550473
REMARK  2 active torsions:
REMARK  status: ('A' for Active; 'I' for Inactive)
REMARK    1  A    between atoms: N_1  and  C_4
REMARK    2  A    between atoms: C_4  and  C_5
REMARK                            x       y       z     vdW  Elec       q    Type
REMARK                         _______ _______ _______ _____ _____    ______ ____
ROOT
ATOM      1  N   UNL     1      -4.231  10.526 -10.816  0.00  0.00    -0.354 N 
ATOM      2  N   UNL     1      -2.376   9.810 -12.004  0.00  0.00    -0.372 N 
ATOM      3  N   UNL     1      -4.368  10.075 -13.111  0.00  0.00    -0.372 N 
ATOM      4  C   UNL     1      -3.672  10.141 -11.971  0.00  0.00    +0.166 C 
ATOM      5  H   UNL     1      -3.657  10.526  -9.980  0.00  0.00    +0.163 HD
ATOM      6  H   UNL     1      -1.926   9.519 -12.861  0.00  0.00    +0.159 HD
ATOM      7  H   UNL     1      -1.793   9.855 -11.176  0.00  0.00    +0.159 HD
ATOM      8  H   UNL     1      -5.352  10.306 -13.152  0.00  0.00    +0.159 HD
ATOM      9  H   UNL     1      -3.939   9.775 -13.977  0.00  0.00    +0.159 HD
ENDROOT
BRANCH   1  10
ATOM     10  C   UNL     1      -5.621  10.959 -10.683  0.00  0.00    +0.151 C 
BRANCH  10  11
ATOM     11  C   UNL     1      -5.717  11.970  -9.574  0.00  0.00    -0.028 A 
ATOM     12  C   UNL     1      -6.652  11.807  -8.541  0.00  0.00    +0.005 A 
ATOM     13  C   UNL     1      -4.872  13.090  -9.547  0.00  0.00    +0.005 A 
ATOM     14  C   UNL     1      -6.721  12.730  -7.495  0.00  0.00    +0.000 A 
ATOM     15  C   UNL     1      -4.944  14.010  -8.501  0.00  0.00    +0.000 A 
ATOM     16  C   UNL     1      -5.867  13.828  -7.474  0.00  0.00    +0.000 A 
ENDBRANCH  10  11
ENDBRANCH   1  10
TORSDOF 2
ENDMDL
MODEL 4
REMARK VINA RESULT:    -4.753     29.507     30.360
REMARK INTER + INTRA:          -5.445
REMARK INTER:                  -5.275
REMARK INTRA:                  -0.171
REMARK UNBOUND:                -0.137
REMARK  Name = 1550473
REMARK  2 active torsions:
REMARK  status: ('A' for Active; 'I' for Inactive)
REMARK    1  A    between atoms: N_1  and  C_4
REMARK    2  A    between atoms: C_4  and  C_5
REMARK                            x       y       z     vdW  Elec       q    Type
REMARK                         _______ _______ _______ _____ _____    ______ ____
ROOT
ATOM      1  N   UNL     1       3.994  -7.053  13.663  0.00  0.00    -0.354 N 
ATOM      2  N   UNL     1       4.464  -9.275  13.208  0.00  0.00    -0.372 N 
ATOM      3  N   UNL     1       3.567  -7.969  11.549  0.00  0.00    -0.372 N 
ATOM      4  C   UNL     1       4.004  -8.083  12.807  0.00  0.00    +0.166 C 
ATOM      5  H   UNL     1       4.311  -7.212  14.613  0.00  0.00    +0.163 HD
ATOM      6  H   UNL     1       4.487 -10.070  12.584  0.00  0.00    +0.159 HD
ATOM      7  H   UNL     1       4.823  -9.419  14.144  0.00  0.00    +0.159 HD
ATOM      8  H   UNL     1       3.201  -7.098  11.186  0.00  0.00    +0.159 HD
ATOM      9  H   UNL     1       3.571  -8.756  10.912  0.00  0.00    +0.159 HD
ENDROOT
BRANCH   1  10
ATOM     10  C   UNL     1       3.563  -5.701  13.310  0.00  0.00    +0.151 C 
BRANCH  10  11
ATOM     11  C   UNL     1       2.275  -5.394  14.023  0.00  0.00    -0.028 A 
ATOM     12  C   UNL     1       1.043  -5.600  13.387  0.00  0.00    +0.005 A 
ATOM     13  C   UNL     1       2.281  -4.902  15.338  0.00  0.00    +0.005 A 
ATOM     14  C   UNL     1      -0.155  -5.343  14.060  0.00  0.00    +0.000 A 
ATOM     15  C   UNL     1       1.084  -4.646  16.006  0.00  0.00    +0.000 A 
ATOM     16  C   UNL     1      -0.134  -4.869  15.367  0.00  0.00    +0.000 A 
ENDBRANCH  10  11
ENDBRANCH   1  10
TORSDOF 2
ENDMDL
MODEL 5
REMARK VINA RESULT:    -4.711     20.267     21.526
REMARK INTER + INTRA:          -5.398
REMARK INTER:                  -5.255
REMARK INTRA:                  -0.143
REMARK UNBOUND:                -0.137
REMARK  Name = 1550473
REMARK  2 active torsions:
REMARK  status: ('A' for Active; 'I' for Inactive)
REMARK    1  A    between atoms: N_1  and  C_4
REMARK    2  A    between atoms: C_4  and  C_5
REMARK                            x       y       z     vdW  Elec       q    Type
REMARK                         _______ _______ _______ _____ _____    ______ ____
ROOT
ATOM      1  N   UNL     1     -10.712  -4.445   6.073  0.00  0.00    -0.354 N 
ATOM      2  N   UNL     1      -9.108  -6.008   6.662  0.00  0.00    -0.372 N 
ATOM      3  N   UNL     1      -9.455  -5.558   4.439  0.00  0.00    -0.372 N 
ATOM      4  C   UNL     1      -9.769  -5.327   5.718  0.00  0.00    +0.166 C 
ATOM      5  H   UNL     1     -10.924  -4.337   7.059  0.00  0.00    +0.163 HD
ATOM      6  H   UNL     1      -8.388  -6.678   6.424  0.00  0.00    +0.159 HD
ATOM      7  H   UNL     1      -9.289  -5.865   7.648  0.00  0.00    +0.159 HD
ATOM      8  H   UNL     1      -9.922  -5.081   3.678  0.00  0.00    +0.159 HD
ATOM      9  H   UNL     1      -8.747  -6.233   4.180  0.00  0.00    +0.159 HD
ENDROOT
BRANCH   1  10
ATOM     10  C   UNL     1     -11.452  -3.613   5.126  0.00  0.00    +0.151 C 
BRANCH  10  11
ATOM     11  C   UNL     1     -11.402  -2.182   5.585  0.00  0.00    -0.028 A 
ATOM     12  C   UNL     1     -12.014  -1.170   4.831  0.00  0.00    +0.005 A 
ATOM     13  C   UNL     1     -10.749  -1.832   6.777  0.00  0.00    +0.005 A 
ATOM     14  C   UNL     1     -11.994   0.155   5.273  0.00  0.00    +0.000 A 
ATOM     15  C   UNL     1     -10.730  -0.507   7.214  0.00  0.00    +0.000 A 
ATOM     16  C   UNL     1     -11.355   0.485   6.463  0.00  0.00    +0.000 A 
ENDBRANCH  10  11
ENDBRANCH   1  10
TORSDOF 2
ENDMDL
MODEL 6
REMARK VINA RESULT:    -4.676     20.344     21.645
REMARK INTER + INTRA:          -5.360
REMARK INTER:                  -5.300
REMARK INTRA:                  -0.060
REMARK UNBOUND:                -0.137
REMARK  Name = 1550473
REMARK  2 active torsions:
REMARK  status: ('A' for Active; 'I' for Inactive)
REMARK    1  A    between atoms: N_1  and  C_4
REMARK    2  A    between atoms: C_4  and  C_5
REMARK                            x       y       z     vdW  Elec       q    Type
REMARK                         _______ _______ _______ _____ _____    ______ ____
ROOT
ATOM      1  N   UNL     1     -12.159  -4.204   3.415  0.00  0.00    -0.354 N 
ATOM      2  N   UNL     1     -12.849  -2.667   1.825  0.00  0.00    -0.372 N 
ATOM      3  N   UNL     1     -10.697  -3.459   1.742  0.00  0.00    -0.372 N 
ATOM      4  C   UNL     1     -11.894  -3.454   2.337  0.00  0.00    +0.166 C 
ATOM      5  H   UNL     1     -13.077  -4.132   3.838  0.00  0.00    +0.163 HD
ATOM      6  H   UNL     1     -12.680  -2.093   1.011  0.00  0.00    +0.159 HD
ATOM      7  H   UNL     1     -13.780  -2.632   2.222  0.00  0.00    +0.159 HD
ATOM      8  H   UNL     1      -9.932  -4.026   2.083  0.00  0.00    +0.159 HD
ATOM      9  H   UNL     1     -10.505  -2.882   0.933  0.00  0.00    +0.159 HD
ENDROOT
BRANCH   1  10
ATOM     10  C   UNL     1     -11.206  -5.134   4.018  0.00  0.00    +0.151 C 
BRANCH  10  11
ATOM     11  C   UNL     1     -10.587  -4.488   5.227  0.00  0.00    -0.028 A 
ATOM     12  C   UNL     1     -11.007  -3.218   5.650  0.00  0.00    +0.005 A 
ATOM     13  C   UNL     1      -9.583  -5.143   5.957  0.00  0.00    +0.005 A 
ATOM     14  C   UNL     1     -10.453  -2.631   6.790  0.00  0.00    +0.000 A 
ATOM     15  C   UNL     1      -9.032  -4.552   7.095  0.00  0.00    +0.000 A 
ATOM     16  C   UNL     1      -9.469  -3.298   7.512  0.00  0.00    +0.000 A 
ENDBRANCH  10  11
ENDBRANCH   1  10
TORSDOF 2
ENDMDL
MODEL 7
REMARK VINA RESULT:    -4.675     17.620     18.749
REMARK INTER + INTRA:          -5.358
REMARK INTER:                  -5.185
REMARK INTRA:                  -0.173
REMARK UNBOUND:                -0.137
REMARK  Name = 1550473
REMARK  2 active torsions:
REMARK  status: ('A' for Active; 'I' for Inactive)
REMARK    1  A    between atoms: N_1  and  C_4
REMARK    2  A    between atoms: C_4  and  C_5
REMARK                            x       y       z     vdW  Elec       q    Type
REMARK                         _______ _______ _______ _____ _____    ______ ____
ROOT
ATOM      1  N   UNL     1      -1.027  11.697   7.872  0.00  0.00    -0.354 N 
ATOM      2  N   UNL     1      -1.920  13.771   8.386  0.00  0.00    -0.372 N 
ATOM      3  N   UNL     1      -1.331  12.362  10.098  0.00  0.00    -0.372 N 
ATOM      4  C   UNL     1      -1.420  12.595   8.785  0.00  0.00    +0.166 C 
ATOM      5  H   UNL     1      -1.149  11.922   6.891  0.00  0.00    +0.163 HD
ATOM      6  H   UNL     1      -2.221  14.470   9.051  0.00  0.00    +0.159 HD
ATOM      7  H   UNL     1      -1.998  14.012   7.405  0.00  0.00    +0.159 HD
ATOM      8  H   UNL     1      -0.968  11.492  10.464  0.00  0.00    +0.159 HD
ATOM      9  H   UNL     1      -1.638  13.045  10.780  0.00  0.00    +0.159 HD
ENDROOT
BRANCH   1  10
ATOM     10  C   UNL     1      -0.420  10.408   8.202  0.00  0.00    +0.151 C 
BRANCH  10  11
ATOM     11  C   UNL     1       1.058  10.479   7.932  0.00  0.00    -0.028 A 
ATOM     12  C   UNL     1       1.939  10.954   8.915  0.00  0.00    +0.005 A 
ATOM     13  C   UNL     1       1.584  10.067   6.698  0.00  0.00    +0.005 A 
ATOM     14  C   UNL     1       3.315  10.991   8.676  0.00  0.00    +0.000 A 
ATOM     15  C   UNL     1       2.959  10.107   6.463  0.00  0.00    +0.000 A 
ATOM     16  C   UNL     1       3.824  10.567   7.453  0.00  0.00    +0.000 A 
ENDBRANCH  10  11
ENDBRANCH   1  10
TORSDOF 2
ENDMDL
MODEL 8
REMARK VINA RESULT:    -4.579     29.804     30.715
REMARK INTER + INTRA:          -5.251
REMARK INTER:                  -5.118
REMARK INTRA:                  -0.133
REMARK UNBOUND:                -0.137
REMARK  Name = 1550473
REMARK  2 active torsions:
REMARK  status: ('A' for Active; 'I' for Inactive)
REMARK    1  A    between atoms: N_1  and  C_4
REMARK    2  A    between atoms: C_4  and  C_5
REMARK                            x       y       z     vdW  Elec       q    Type
REMARK                         _______ _______ _______ _____ _____    ______ ____
ROOT
ATOM      1  N   UNL     1       1.508  -3.122  15.608  0.00  0.00    -0.354 N 
ATOM      2  N   UNL     1       1.733  -1.321  17.046  0.00  0.00    -0.372 N 
ATOM      3  N   UNL     1       0.447  -3.106  17.697  0.00  0.00    -0.372 N 
ATOM      4  C   UNL     1       1.226  -2.530  16.776  0.00  0.00    +0.166 C 
ATOM      5  H   UNL     1       2.080  -2.619  14.939  0.00  0.00    +0.163 HD
ATOM      6  H   UNL     1       1.540  -0.850  17.920  0.00  0.00    +0.159 HD
ATOM      7  H   UNL     1       2.342  -0.840  16.395  0.00  0.00    +0.159 HD
ATOM      8  H   UNL     1       0.029  -4.015  17.552  0.00  0.00    +0.159 HD
ATOM      9  H   UNL     1       0.233  -2.646  18.574  0.00  0.00    +0.159 HD
ENDROOT
BRANCH   1  10
ATOM     10  C   UNL     1       1.050  -4.460  15.238  0.00  0.00    +0.151 C 
BRANCH  10  11
ATOM     11  C   UNL     1       2.206  -5.235  14.669  0.00  0.00    -0.028 A 
ATOM     12  C   UNL     1       3.351  -5.476  15.443  0.00  0.00    +0.005 A 
ATOM     13  C   UNL     1       2.161  -5.736  13.359  0.00  0.00    +0.005 A 
ATOM     14  C   UNL     1       4.413  -6.222  14.925  0.00  0.00    +0.000 A 
ATOM     15  C   UNL     1       3.223  -6.480  12.846  0.00  0.00    +0.000 A 
ATOM     16  C   UNL     1       4.348  -6.724  13.630  0.00  0.00    +0.000 A 
ENDBRANCH  10  11
ENDBRANCH   1  10
TORSDOF 2
ENDMDL
MODEL 9
REMARK VINA RESULT:    -4.538      0.989      2.030
REMARK INTER + INTRA:          -5.205
REMARK INTER:                  -5.063
REMARK INTRA:                  -0.143
REMARK UNBOUND:                -0.137
REMARK  Name = 1550473
REMARK  2 active torsions:
REMARK  status: ('A' for Active; 'I' for Inactive)
REMARK    1  A    between atoms: N_1  and  C_4
REMARK    2  A    between atoms: C_4  and  C_5
REMARK                            x       y       z     vdW  Elec       q    Type
REMARK                         _______ _______ _______ _____ _____    ______ ____
ROOT
ATOM      1  N   UNL     1      -4.491  12.184 -10.333  0.00  0.00    -0.354 N 
ATOM      2  N   UNL     1      -3.688  10.273 -11.366  0.00  0.00    -0.372 N 
ATOM      3  N   UNL     1      -2.208  11.656 -10.289  0.00  0.00    -0.372 N 
ATOM      4  C   UNL     1      -3.465  11.385 -10.655  0.00  0.00    +0.166 C 
ATOM      5  H   UNL     1      -5.416  11.938 -10.667  0.00  0.00    +0.163 HD
ATOM      6  H   UNL     1      -2.934   9.648 -11.621  0.00  0.00    +0.159 HD
ATOM      7  H   UNL     1      -4.619  10.005 -11.659  0.00  0.00    +0.159 HD
ATOM      8  H   UNL     1      -1.972  12.483  -9.756  0.00  0.00    +0.159 HD
ATOM      9  H   UNL     1      -1.438  11.050 -10.545  0.00  0.00    +0.159 HD
ENDROOT
BRANCH   1  10
ATOM     10  C   UNL     1      -4.363  13.389  -9.517  0.00  0.00    +0.151 C 
BRANCH  10  11
ATOM     11  C   UNL     1      -5.388  13.349  -8.417  0.00  0.00    -0.028 A 
ATOM     12  C   UNL     1      -6.400  12.378  -8.423  0.00  0.00    +0.005 A 
ATOM     13  C   UNL     1      -5.349  14.275  -7.364  0.00  0.00    +0.005 A 
ATOM     14  C   UNL     1      -7.335  12.321  -7.386  0.00  0.00    +0.000 A 
ATOM     15  C   UNL     1      -6.285  14.215  -6.331  0.00  0.00    +0.000 A 
ATOM     16  C   UNL     1      -7.275  13.237  -6.341  0.00  0.00    +0.000 A 
ENDBRANCH  10  11
ENDBRANCH   1  10
TORSDOF 2
ENDMDL
