MODEL 1
REMARK VINA RESULT:    -4.759      0.000      0.000
REMARK INTER + INTRA:          -5.445
REMARK INTER:                  -5.315
REMARK INTRA:                  -0.129
REMARK UNBOUND:                -0.129
REMARK  Name = 1550473
REMARK  2 active torsions:
REMARK  status: ('A' for Active; 'I' for Inactive)
REMARK    1  A    between atoms: N_1  and  C_4
REMARK    2  A    between atoms: C_4  and  C_5
REMARK                            x       y       z     vdW  Elec       q    Type
REMARK                         _______ _______ _______ _____ _____    ______ ____
ROOT
ATOM      1  N   UNL     1      -1.659  -0.880 -18.540  0.00  0.00    -0.354 N 
ATOM      2  N   UNL     1      -3.402  -2.294 -17.967  0.00  0.00    -0.372 N 
ATOM      3  N   UNL     1      -3.888  -0.169 -18.685  0.00  0.00    -0.372 N 
ATOM      4  C   UNL     1      -2.973  -1.103 -18.402  0.00  0.00    +0.166 C 
ATOM      5  H   UNL     1      -1.016  -1.618 -18.280  0.00  0.00    +0.163 HD
ATOM      6  H   UNL     1      -4.387  -2.492 -17.856  0.00  0.00    +0.159 HD
ATOM      7  H   UNL     1      -2.758  -3.045 -17.752  0.00  0.00    +0.159 HD
ATOM      8  H   UNL     1      -3.629   0.752 -19.011  0.00  0.00    +0.159 HD
ATOM      9  H   UNL     1      -4.878  -0.345 -18.569  0.00  0.00    +0.159 HD
ENDROOT
BRANCH   1  10
ATOM     10  C   UNL     1      -1.091   0.364 -19.057  0.00  0.00    +0.151 C 
BRANCH  10  11
ATOM     11  C   UNL     1      -0.074   0.037 -20.116  0.00  0.00    -0.028 A 
ATOM     12  C   UNL     1       0.765  -1.078 -19.977  0.00  0.00    +0.005 A 
ATOM     13  C   UNL     1       0.050   0.835 -21.263  0.00  0.00    +0.005 A 
ATOM     14  C   UNL     1       1.689  -1.399 -20.974  0.00  0.00    +0.000 A 
ATOM     15  C   UNL     1       0.975   0.512 -22.257  0.00  0.00    +0.000 A 
ATOM     16  C   UNL     1       1.792  -0.607 -22.113  0.00  0.00    +0.000 A 
ENDBRANCH  10  11
ENDBRANCH   1  10
TORSDOF 2
ENDMDL
MODEL 2
REMARK VINA RESULT:    -4.554     75.453     76.527
REMARK INTER + INTRA:          -5.216
REMARK INTER:                  -5.109
REMARK INTRA:                  -0.107
REMARK UNBOUND:                -0.129
REMARK  Name = 1550473
REMARK  2 active torsions:
REMARK  status: ('A' for Active; 'I' for Inactive)
REMARK    1  A    between atoms: N_1  and  C_4
REMARK    2  A    between atoms: C_4  and  C_5
REMARK                            x       y       z     vdW  Elec       q    Type
REMARK                         _______ _______ _______ _____ _____    ______ ____
ROOT
ATOM      1  N   UNL     1      12.459  25.978  51.929  0.00  0.00    -0.354 N 
ATOM      2  N   UNL     1      14.078  25.433  53.492  0.00  0.00    -0.372 N 
ATOM      3  N   UNL     1      12.297  26.723  54.145  0.00  0.00    -0.372 N 
ATOM      4  C   UNL     1      12.932  26.050  53.180  0.00  0.00    +0.166 C 
ATOM      5  H   UNL     1      13.004  25.478  51.236  0.00  0.00    +0.163 HD
ATOM      6  H   UNL     1      14.458  25.466  54.428  0.00  0.00    +0.159 HD
ATOM      7  H   UNL     1      14.597  24.895  52.809  0.00  0.00    +0.159 HD
ATOM      8  H   UNL     1      11.430  27.215  53.973  0.00  0.00    +0.159 HD
ATOM      9  H   UNL     1      12.667  26.778  55.085  0.00  0.00    +0.159 HD
ENDROOT
BRANCH   1  10
ATOM     10  C   UNL     1      11.193  26.570  51.498  0.00  0.00    +0.151 C 
BRANCH  10  11
ATOM     11  C   UNL     1      11.136  26.569  49.996  0.00  0.00    -0.028 A 
ATOM     12  C   UNL     1      10.709  27.709  49.299  0.00  0.00    +0.005 A 
ATOM     13  C   UNL     1      11.514  25.434  49.263  0.00  0.00    +0.005 A 
ATOM     14  C   UNL     1      10.685  27.719  47.902  0.00  0.00    +0.000 A 
ATOM     15  C   UNL     1      11.488  25.447  47.868  0.00  0.00    +0.000 A 
ATOM     16  C   UNL     1      11.075  26.591  47.188  0.00  0.00    +0.000 A 
ENDBRANCH  10  11
ENDBRANCH   1  10
TORSDOF 2
ENDMDL
MODEL 3
REMARK VINA RESULT:    -4.541     30.215     31.977
REMARK INTER + INTRA:          -5.201
REMARK INTER:                  -5.091
REMARK INTRA:                  -0.110
REMARK UNBOUND:                -0.129
REMARK  Name = 1550473
REMARK  2 active torsions:
REMARK  status: ('A' for Active; 'I' for Inactive)
REMARK    1  A    between atoms: N_1  and  C_4
REMARK    2  A    between atoms: C_4  and  C_5
REMARK                            x       y       z     vdW  Elec       q    Type
REMARK                         _______ _______ _______ _____ _____    ______ ____
ROOT
ATOM      1  N   UNL     1      -6.253  -5.508  12.780  0.00  0.00    -0.354 N 
ATOM      2  N   UNL     1      -7.215  -6.701  14.517  0.00  0.00    -0.372 N 
ATOM      3  N   UNL     1      -5.066  -7.200  13.886  0.00  0.00    -0.372 N 
ATOM      4  C   UNL     1      -6.169  -6.463  13.716  0.00  0.00    +0.166 C 
ATOM      5  H   UNL     1      -7.128  -5.005  12.683  0.00  0.00    +0.163 HD
ATOM      6  H   UNL     1      -7.180  -7.412  15.235  0.00  0.00    +0.159 HD
ATOM      7  H   UNL     1      -8.072  -6.165  14.448  0.00  0.00    +0.159 HD
ATOM      8  H   UNL     1      -4.245  -7.074  13.310  0.00  0.00    +0.159 HD
ATOM      9  H   UNL     1      -5.016  -7.925  14.591  0.00  0.00    +0.159 HD
ENDROOT
BRANCH   1  10
ATOM     10  C   UNL     1      -5.153  -5.134  11.893  0.00  0.00    +0.151 C 
BRANCH  10  11
ATOM     11  C   UNL     1      -5.691  -4.930  10.504  0.00  0.00    -0.028 A 
ATOM     12  C   UNL     1      -5.448  -5.879   9.500  0.00  0.00    +0.005 A 
ATOM     13  C   UNL     1      -6.449  -3.792  10.186  0.00  0.00    +0.005 A 
ATOM     14  C   UNL     1      -5.973  -5.705   8.217  0.00  0.00    +0.000 A 
ATOM     15  C   UNL     1      -6.970  -3.621   8.903  0.00  0.00    +0.000 A 
ATOM     16  C   UNL     1      -6.734  -4.579   7.920  0.00  0.00    +0.000 A 
ENDBRANCH  10  11
ENDBRANCH   1  10
TORSDOF 2
ENDMDL
MODEL 4
REMARK VINA RESULT:    -4.476     13.732     14.641
REMARK INTER + INTRA:          -5.129
REMARK INTER:                  -4.999
REMARK INTRA:                  -0.130
REMARK UNBOUND:                -0.129
REMARK  Name = 1550473
REMARK  2 active torsions:
REMARK  status: ('A' for Active; 'I' for Inactive)
REMARK    1  A    between atoms: N_1  and  C_4
REMARK    2  A    between atoms: C_4  and  C_5
REMARK                            x       y       z     vdW  Elec       q    Type
REMARK                         _______ _______ _______ _____ _____    ______ ____
ROOT
ATOM      1  N   UNL     1      -2.188  -9.781 -32.486  0.00  0.00    -0.354 N 
ATOM      2  N   UNL     1      -1.895 -10.967 -34.453  0.00  0.00    -0.372 N 
ATOM      3  N   UNL     1      -0.930 -11.758 -32.527  0.00  0.00    -0.372 N 
ATOM      4  C   UNL     1      -1.671 -10.829 -33.141  0.00  0.00    +0.166 C 
ATOM      5  H   UNL     1      -2.716  -9.096 -33.015  0.00  0.00    +0.163 HD
ATOM      6  H   UNL     1      -1.520 -11.750 -34.974  0.00  0.00    +0.159 HD
ATOM      7  H   UNL     1      -2.461 -10.306 -34.970  0.00  0.00    +0.159 HD
ATOM      8  H   UNL     1      -0.720 -11.708 -31.539  0.00  0.00    +0.159 HD
ATOM      9  H   UNL     1      -0.537 -12.542 -33.033  0.00  0.00    +0.159 HD
ENDROOT
BRANCH   1  10
ATOM     10  C   UNL     1      -2.049  -9.567 -31.047  0.00  0.00    +0.151 C 
BRANCH  10  11
ATOM     11  C   UNL     1      -1.925  -8.092 -30.780  0.00  0.00    -0.028 A 
ATOM     12  C   UNL     1      -2.528  -7.520 -29.650  0.00  0.00    +0.005 A 
ATOM     13  C   UNL     1      -1.201  -7.262 -31.649  0.00  0.00    +0.005 A 
ATOM     14  C   UNL     1      -2.388  -6.155 -29.385  0.00  0.00    +0.000 A 
ATOM     15  C   UNL     1      -1.064  -5.900 -31.382  0.00  0.00    +0.000 A 
ATOM     16  C   UNL     1      -1.656  -5.348 -30.248  0.00  0.00    +0.000 A 
ENDBRANCH  10  11
ENDBRANCH   1  10
TORSDOF 2
ENDMDL
MODEL 5
REMARK VINA RESULT:    -4.473      4.242      5.786
REMARK INTER + INTRA:          -5.125
REMARK INTER:                  -5.005
REMARK INTRA:                  -0.121
REMARK UNBOUND:                -0.129
REMARK  Name = 1550473
REMARK  2 active torsions:
REMARK  status: ('A' for Active; 'I' for Inactive)
REMARK    1  A    between atoms: N_1  and  C_4
REMARK    2  A    between atoms: C_4  and  C_5
REMARK                            x       y       z     vdW  Elec       q    Type
REMARK                         _______ _______ _______ _____ _____    ______ ____
ROOT
ATOM      1  N   UNL     1       2.861  -2.086 -22.823  0.00  0.00    -0.354 N 
ATOM      2  N   UNL     1       4.114  -3.645 -23.991  0.00  0.00    -0.372 N 
ATOM      3  N   UNL     1       4.188  -1.447 -24.645  0.00  0.00    -0.372 N 
ATOM      4  C   UNL     1       3.713  -2.380 -23.814  0.00  0.00    +0.166 C 
ATOM      5  H   UNL     1       2.515  -2.844 -22.245  0.00  0.00    +0.163 HD
ATOM      6  H   UNL     1       4.759  -3.896 -24.728  0.00  0.00    +0.159 HD
ATOM      7  H   UNL     1       3.802  -4.393 -23.384  0.00  0.00    +0.159 HD
ATOM      8  H   UNL     1       3.920  -0.475 -24.569  0.00  0.00    +0.159 HD
ATOM      9  H   UNL     1       4.825  -1.681 -25.397  0.00  0.00    +0.159 HD
ENDROOT
BRANCH   1  10
ATOM     10  C   UNL     1       2.405  -0.733 -22.511  0.00  0.00    +0.151 C 
BRANCH  10  11
ATOM     11  C   UNL     1       1.346  -0.805 -21.446  0.00  0.00    -0.028 A 
ATOM     12  C   UNL     1       1.202  -1.958 -20.661  0.00  0.00    +0.005 A 
ATOM     13  C   UNL     1       0.485   0.279 -21.214  0.00  0.00    +0.005 A 
ATOM     14  C   UNL     1       0.238  -2.014 -19.652  0.00  0.00    +0.000 A 
ATOM     15  C   UNL     1      -0.477   0.219 -20.206  0.00  0.00    +0.000 A 
ATOM     16  C   UNL     1      -0.599  -0.927 -19.424  0.00  0.00    +0.000 A 
ENDBRANCH  10  11
ENDBRANCH   1  10
TORSDOF 2
ENDMDL
MODEL 6
REMARK VINA RESULT:    -4.439      1.581      2.318
REMARK INTER + INTRA:          -5.087
REMARK INTER:                  -4.942
REMARK INTRA:                  -0.145
REMARK UNBOUND:                -0.129
REMARK  Name = 1550473
REMARK  2 active torsions:
REMARK  status: ('A' for Active; 'I' for Inactive)
REMARK    1  A    between atoms: N_1  and  C_4
REMARK    2  A    between atoms: C_4  and  C_5
REMARK                            x       y       z     vdW  Elec       q    Type
REMARK                         _______ _______ _______ _____ _____    ______ ____
ROOT
ATOM      1  N   UNL     1      -2.274  -0.405 -17.871  0.00  0.00    -0.354 N 
ATOM      2  N   UNL     1      -3.379  -2.437 -17.986  0.00  0.00    -0.372 N 
ATOM      3  N   UNL     1      -4.613  -0.503 -17.966  0.00  0.00    -0.372 N 
ATOM      4  C   UNL     1      -3.417  -1.100 -17.940  0.00  0.00    +0.166 C 
ATOM      5  H   UNL     1      -1.401  -0.918 -17.824  0.00  0.00    +0.163 HD
ATOM      6  H   UNL     1      -4.226  -2.988 -18.042  0.00  0.00    +0.159 HD
ATOM      7  H   UNL     1      -2.504  -2.945 -17.985  0.00  0.00    +0.159 HD
ATOM      8  H   UNL     1      -4.711   0.503 -17.928  0.00  0.00    +0.159 HD
ATOM      9  H   UNL     1      -5.472  -1.037 -18.010  0.00  0.00    +0.159 HD
ENDROOT
BRANCH   1  10
ATOM     10  C   UNL     1      -2.203   1.055 -17.870  0.00  0.00    +0.151 C 
BRANCH  10  11
ATOM     11  C   UNL     1      -1.396   1.508 -19.055  0.00  0.00    -0.028 A 
ATOM     12  C   UNL     1      -0.691   0.579 -19.834  0.00  0.00    +0.005 A 
ATOM     13  C   UNL     1      -1.336   2.865 -19.408  0.00  0.00    +0.005 A 
ATOM     14  C   UNL     1       0.035   0.995 -20.952  0.00  0.00    +0.000 A 
ATOM     15  C   UNL     1      -0.609   3.277 -20.525  0.00  0.00    +0.000 A 
ATOM     16  C   UNL     1       0.074   2.342 -21.298  0.00  0.00    +0.000 A 
ENDBRANCH  10  11
ENDBRANCH   1  10
TORSDOF 2
ENDMDL
MODEL 7
REMARK VINA RESULT:    -4.381      3.748      5.587
REMARK INTER + INTRA:          -5.022
REMARK INTER:                  -4.895
REMARK INTRA:                  -0.127
REMARK UNBOUND:                -0.129
REMARK  Name = 1550473
REMARK  2 active torsions:
REMARK  status: ('A' for Active; 'I' for Inactive)
REMARK    1  A    between atoms: N_1  and  C_4
REMARK    2  A    between atoms: C_4  and  C_5
REMARK                            x       y       z     vdW  Elec       q    Type
REMARK                         _______ _______ _______ _____ _____    ______ ____
ROOT
ATOM      1  N   UNL     1       1.628   0.352 -22.884  0.00  0.00    -0.354 N 
ATOM      2  N   UNL     1       2.159   0.892 -25.073  0.00  0.00    -0.372 N 
ATOM      3  N   UNL     1       2.766  -1.166 -24.260  0.00  0.00    -0.372 N 
ATOM      4  C   UNL     1       2.182   0.020 -24.058  0.00  0.00    +0.166 C 
ATOM      5  H   UNL     1       1.228   1.278 -22.786  0.00  0.00    +0.163 HD
ATOM      6  H   UNL     1       2.566   0.668 -25.971  0.00  0.00    +0.159 HD
ATOM      7  H   UNL     1       1.718   1.799 -24.986  0.00  0.00    +0.159 HD
ATOM      8  H   UNL     1       2.822  -1.867 -23.533  0.00  0.00    +0.159 HD
ATOM      9  H   UNL     1       3.189  -1.404 -25.149  0.00  0.00    +0.159 HD
ENDROOT
BRANCH   1  10
ATOM     10  C   UNL     1       1.552  -0.546 -21.733  0.00  0.00    +0.151 C 
BRANCH  10  11
ATOM     11  C   UNL     1       0.390  -0.140 -20.869  0.00  0.00    -0.028 A 
ATOM     12  C   UNL     1      -0.304   1.052 -21.124  0.00  0.00    +0.005 A 
ATOM     13  C   UNL     1      -0.025  -0.945 -19.798  0.00  0.00    +0.005 A 
ATOM     14  C   UNL     1      -1.403   1.414 -20.341  0.00  0.00    +0.000 A 
ATOM     15  C   UNL     1      -1.122  -0.579 -19.018  0.00  0.00    +0.000 A 
ATOM     16  C   UNL     1      -1.812   0.599 -19.291  0.00  0.00    +0.000 A 
ENDBRANCH  10  11
ENDBRANCH   1  10
TORSDOF 2
ENDMDL
MODEL 8
REMARK VINA RESULT:    -4.251      3.089      4.682
REMARK INTER + INTRA:          -4.878
REMARK INTER:                  -4.714
REMARK INTRA:                  -0.164
REMARK UNBOUND:                -0.129
REMARK  Name = 1550473
REMARK  2 active torsions:
REMARK  status: ('A' for Active; 'I' for Inactive)
REMARK    1  A    between atoms: N_1  and  C_4
REMARK    2  A    between atoms: C_4  and  C_5
REMARK                            x       y       z     vdW  Elec       q    Type
REMARK                         _______ _______ _______ _____ _____    ______ ____
ROOT
ATOM      1  N   UNL     1       2.100  -0.774 -20.579  0.00  0.00    -0.354 N 
ATOM      2  N   UNL     1       2.791  -1.694 -22.589  0.00  0.00    -0.372 N 
ATOM      3  N   UNL     1       1.379  -2.903 -21.244  0.00  0.00    -0.372 N 
ATOM      4  C   UNL     1       2.084  -1.787 -21.457  0.00  0.00    +0.166 C 
ATOM      5  H   UNL     1       2.678   0.032 -20.785  0.00  0.00    +0.163 HD
ATOM      6  H   UNL     1       2.796  -2.441 -23.271  0.00  0.00    +0.159 HD
ATOM      7  H   UNL     1       3.332  -0.868 -22.814  0.00  0.00    +0.159 HD
ATOM      8  H   UNL     1       0.829  -3.037 -20.406  0.00  0.00    +0.159 HD
ATOM      9  H   UNL     1       1.381  -3.666 -21.909  0.00  0.00    +0.159 HD
ENDROOT
BRANCH   1  10
ATOM     10  C   UNL     1       1.322  -0.752 -19.342  0.00  0.00    +0.151 C 
BRANCH  10  11
ATOM     11  C   UNL     1       0.059   0.032 -19.569  0.00  0.00    -0.028 A 
ATOM     12  C   UNL     1       0.064   1.166 -20.394  0.00  0.00    +0.005 A 
ATOM     13  C   UNL     1      -1.147  -0.358 -18.967  0.00  0.00    +0.005 A 
ATOM     14  C   UNL     1      -1.115   1.877 -20.630  0.00  0.00    +0.000 A 
ATOM     15  C   UNL     1      -2.322   0.355 -19.204  0.00  0.00    +0.000 A 
ATOM     16  C   UNL     1      -2.306   1.471 -20.037  0.00  0.00    +0.000 A 
ENDBRANCH  10  11
ENDBRANCH   1  10
TORSDOF 2
ENDMDL
MODEL 9
REMARK VINA RESULT:    -4.202      1.576      2.204
REMARK INTER + INTRA:          -4.822
REMARK INTER:                  -4.726
REMARK INTRA:                  -0.096
REMARK UNBOUND:                -0.129
REMARK  Name = 1550473
REMARK  2 active torsions:
REMARK  status: ('A' for Active; 'I' for Inactive)
REMARK    1  A    between atoms: N_1  and  C_4
REMARK    2  A    between atoms: C_4  and  C_5
REMARK                            x       y       z     vdW  Elec       q    Type
REMARK                         _______ _______ _______ _____ _____    ______ ____
ROOT
ATOM      1  N   UNL     1      -0.115   0.445 -18.892  0.00  0.00    -0.354 N 
ATOM      2  N   UNL     1      -0.815   1.851 -17.189  0.00  0.00    -0.372 N 
ATOM      3  N   UNL     1      -2.007  -0.065 -17.606  0.00  0.00    -0.372 N 
ATOM      4  C   UNL     1      -0.977   0.733 -17.907  0.00  0.00    +0.166 C 
ATOM      5  H   UNL     1       0.627   1.106 -19.090  0.00  0.00    +0.163 HD
ATOM      6  H   UNL     1      -1.447   2.093 -16.438  0.00  0.00    +0.159 HD
ATOM      7  H   UNL     1      -0.045   2.487 -17.360  0.00  0.00    +0.159 HD
ATOM      8  H   UNL     1      -2.188  -0.920 -18.113  0.00  0.00    +0.159 HD
ATOM      9  H   UNL     1      -2.657   0.166 -16.864  0.00  0.00    +0.159 HD
ENDROOT
BRANCH   1  10
ATOM     10  C   UNL     1      -0.171  -0.774 -19.697  0.00  0.00    +0.151 C 
BRANCH  10  11
ATOM     11  C   UNL     1       0.718  -0.610 -20.899  0.00  0.00    -0.028 A 
ATOM     12  C   UNL     1       1.957  -1.263 -20.961  0.00  0.00    +0.005 A 
ATOM     13  C   UNL     1       0.324   0.193 -21.980  0.00  0.00    +0.005 A 
ATOM     14  C   UNL     1       2.770  -1.135 -22.090  0.00  0.00    +0.000 A 
ATOM     15  C   UNL     1       1.138   0.318 -23.105  0.00  0.00    +0.000 A 
ATOM     16  C   UNL     1       2.360  -0.348 -23.161  0.00  0.00    +0.000 A 
ENDBRANCH  10  11
ENDBRANCH   1  10
TORSDOF 2
ENDMDL
