MODEL 1
REMARK VINA RESULT:    -5.437      0.000      0.000
REMARK INTER + INTRA:          -6.241
REMARK INTER:                  -6.073
REMARK INTRA:                  -0.168
REMARK UNBOUND:                -0.168
REMARK  Name = 1550473
REMARK  2 active torsions:
REMARK  status: ('A' for Active; 'I' for Inactive)
REMARK    1  A    between atoms: N_1  and  C_4
REMARK    2  A    between atoms: C_4  and  C_5
REMARK                            x       y       z     vdW  Elec       q    Type
REMARK                         _______ _______ _______ _____ _____    ______ ____
ROOT
ATOM      1  N   UNL     1      -9.226   7.428   0.505  0.00  0.00    -0.354 N 
ATOM      2  N   UNL     1      -9.584   6.389   2.544  0.00  0.00    -0.372 N 
ATOM      3  N   UNL     1      -8.525   5.222   0.876  0.00  0.00    -0.372 N 
ATOM      4  C   UNL     1      -9.108   6.351   1.293  0.00  0.00    +0.166 C 
ATOM      5  H   UNL     1      -9.706   8.242   0.871  0.00  0.00    +0.163 HD
ATOM      6  H   UNL     1      -9.506   5.593   3.163  0.00  0.00    +0.159 HD
ATOM      7  H   UNL     1     -10.022   7.220   2.923  0.00  0.00    +0.159 HD
ATOM      8  H   UNL     1      -8.151   5.127  -0.059  0.00  0.00    +0.159 HD
ATOM      9  H   UNL     1      -8.448   4.411   1.477  0.00  0.00    +0.159 HD
ENDROOT
BRANCH   1  10
ATOM     10  C   UNL     1      -8.694   7.508  -0.854  0.00  0.00    +0.151 C 
BRANCH  10  11
ATOM     11  C   UNL     1      -9.818   7.309  -1.834  0.00  0.00    -0.028 A 
ATOM     12  C   UNL     1      -9.637   6.510  -2.972  0.00  0.00    +0.005 A 
ATOM     13  C   UNL     1     -11.068   7.912  -1.627  0.00  0.00    +0.005 A 
ATOM     14  C   UNL     1     -10.689   6.300  -3.867  0.00  0.00    +0.000 A 
ATOM     15  C   UNL     1     -12.116   7.701  -2.523  0.00  0.00    +0.000 A 
ATOM     16  C   UNL     1     -11.927   6.893  -3.641  0.00  0.00    +0.000 A 
ENDBRANCH  10  11
ENDBRANCH   1  10
TORSDOF 2
ENDMDL
MODEL 2
REMARK VINA RESULT:    -5.432     14.636     16.135
REMARK INTER + INTRA:          -6.236
REMARK INTER:                  -6.054
REMARK INTRA:                  -0.182
REMARK UNBOUND:                -0.168
REMARK  Name = 1550473
REMARK  2 active torsions:
REMARK  status: ('A' for Active; 'I' for Inactive)
REMARK    1  A    between atoms: N_1  and  C_4
REMARK    2  A    between atoms: C_4  and  C_5
REMARK                            x       y       z     vdW  Elec       q    Type
REMARK                         _______ _______ _______ _____ _____    ______ ____
ROOT
ATOM      1  N   UNL     1       5.148  11.148  -1.224  0.00  0.00    -0.354 N 
ATOM      2  N   UNL     1       3.178  12.365  -1.147  0.00  0.00    -0.372 N 
ATOM      3  N   UNL     1       3.235  10.422  -2.367  0.00  0.00    -0.372 N 
ATOM      4  C   UNL     1       3.866  11.302  -1.582  0.00  0.00    +0.166 C 
ATOM      5  H   UNL     1       5.577  11.866  -0.651  0.00  0.00    +0.163 HD
ATOM      6  H   UNL     1       2.209  12.506  -1.398  0.00  0.00    +0.159 HD
ATOM      7  H   UNL     1       3.596  13.057  -0.537  0.00  0.00    +0.159 HD
ATOM      8  H   UNL     1       3.700   9.602  -2.734  0.00  0.00    +0.159 HD
ATOM      9  H   UNL     1       2.269  10.552  -2.639  0.00  0.00    +0.159 HD
ENDROOT
BRANCH   1  10
ATOM     10  C   UNL     1       5.969   9.999  -1.599  0.00  0.00    +0.151 C 
BRANCH  10  11
ATOM     11  C   UNL     1       6.029   9.039  -0.442  0.00  0.00    -0.028 A 
ATOM     12  C   UNL     1       6.935   9.246   0.608  0.00  0.00    +0.005 A 
ATOM     13  C   UNL     1       5.178   7.925  -0.389  0.00  0.00    +0.005 A 
ATOM     14  C   UNL     1       6.970   8.372   1.697  0.00  0.00    +0.000 A 
ATOM     15  C   UNL     1       5.217   7.053   0.700  0.00  0.00    +0.000 A 
ATOM     16  C   UNL     1       6.111   7.279   1.744  0.00  0.00    +0.000 A 
ENDBRANCH  10  11
ENDBRANCH   1  10
TORSDOF 2
ENDMDL
MODEL 3
REMARK VINA RESULT:    -5.049     16.010     17.307
REMARK INTER + INTRA:          -5.808
REMARK INTER:                  -5.630
REMARK INTRA:                  -0.178
REMARK UNBOUND:                -0.168
REMARK  Name = 1550473
REMARK  2 active torsions:
REMARK  status: ('A' for Active; 'I' for Inactive)
REMARK    1  A    between atoms: N_1  and  C_4
REMARK    2  A    between atoms: C_4  and  C_5
REMARK                            x       y       z     vdW  Elec       q    Type
REMARK                         _______ _______ _______ _____ _____    ______ ____
ROOT
ATOM      1  N   UNL     1       7.837  11.242   0.865  0.00  0.00    -0.354 N 
ATOM      2  N   UNL     1       7.017  13.253   1.670  0.00  0.00    -0.372 N 
ATOM      3  N   UNL     1       6.408  12.569  -0.434  0.00  0.00    -0.372 N 
ATOM      4  C   UNL     1       7.092  12.342   0.693  0.00  0.00    +0.166 C 
ATOM      5  H   UNL     1       8.355  11.143   1.731  0.00  0.00    +0.163 HD
ATOM      6  H   UNL     1       6.460  14.091   1.570  0.00  0.00    +0.159 HD
ATOM      7  H   UNL     1       7.500  13.129   2.552  0.00  0.00    +0.159 HD
ATOM      8  H   UNL     1       6.427  11.924  -1.212  0.00  0.00    +0.159 HD
ATOM      9  H   UNL     1       5.854  13.408  -0.557  0.00  0.00    +0.159 HD
ENDROOT
BRANCH   1  10
ATOM     10  C   UNL     1       7.942  10.163  -0.116  0.00  0.00    +0.151 C 
BRANCH  10  11
ATOM     11  C   UNL     1       6.953   9.085   0.231  0.00  0.00    -0.028 A 
ATOM     12  C   UNL     1       6.948   8.508   1.510  0.00  0.00    +0.005 A 
ATOM     13  C   UNL     1       6.014   8.641  -0.712  0.00  0.00    +0.005 A 
ATOM     14  C   UNL     1       6.009   7.528   1.842  0.00  0.00    +0.000 A 
ATOM     15  C   UNL     1       5.079   7.661  -0.377  0.00  0.00    +0.000 A 
ATOM     16  C   UNL     1       5.075   7.107   0.901  0.00  0.00    +0.000 A 
ENDBRANCH  10  11
ENDBRANCH   1  10
TORSDOF 2
ENDMDL
MODEL 4
REMARK VINA RESULT:    -5.044     14.094     15.713
REMARK INTER + INTRA:          -5.802
REMARK INTER:                  -5.626
REMARK INTRA:                  -0.176
REMARK UNBOUND:                -0.168
REMARK  Name = 1550473
REMARK  2 active torsions:
REMARK  status: ('A' for Active; 'I' for Inactive)
REMARK    1  A    between atoms: N_1  and  C_4
REMARK    2  A    between atoms: C_4  and  C_5
REMARK                            x       y       z     vdW  Elec       q    Type
REMARK                         _______ _______ _______ _____ _____    ______ ____
ROOT
ATOM      1  N   UNL     1       3.128  10.446  -2.486  0.00  0.00    -0.354 N 
ATOM      2  N   UNL     1       2.141  10.027  -4.539  0.00  0.00    -0.372 N 
ATOM      3  N   UNL     1       4.206  11.027  -4.484  0.00  0.00    -0.372 N 
ATOM      4  C   UNL     1       3.167  10.504  -3.824  0.00  0.00    +0.166 C 
ATOM      5  H   UNL     1       2.299  10.065  -2.045  0.00  0.00    +0.163 HD
ATOM      6  H   UNL     1       2.144  10.055  -5.550  0.00  0.00    +0.159 HD
ATOM      7  H   UNL     1       1.334   9.606  -4.097  0.00  0.00    +0.159 HD
ATOM      8  H   UNL     1       5.009  11.409  -4.003  0.00  0.00    +0.159 HD
ATOM      9  H   UNL     1       4.222  11.074  -5.495  0.00  0.00    +0.159 HD
ENDROOT
BRANCH   1  10
ATOM     10  C   UNL     1       4.217  10.888  -1.616  0.00  0.00    +0.151 C 
BRANCH  10  11
ATOM     11  C   UNL     1       5.084   9.708  -1.276  0.00  0.00    -0.028 A 
ATOM     12  C   UNL     1       6.463   9.741  -1.530  0.00  0.00    +0.005 A 
ATOM     13  C   UNL     1       4.534   8.555  -0.694  0.00  0.00    +0.005 A 
ATOM     14  C   UNL     1       7.274   8.657  -1.187  0.00  0.00    +0.000 A 
ATOM     15  C   UNL     1       5.347   7.475  -0.353  0.00  0.00    +0.000 A 
ATOM     16  C   UNL     1       6.718   7.526  -0.598  0.00  0.00    +0.000 A 
ENDBRANCH  10  11
ENDBRANCH   1  10
TORSDOF 2
ENDMDL
MODEL 5
REMARK VINA RESULT:    -4.893      3.290      5.047
REMARK INTER + INTRA:          -5.634
REMARK INTER:                  -5.509
REMARK INTRA:                  -0.124
REMARK UNBOUND:                -0.168
REMARK  Name = 1550473
REMARK  2 active torsions:
REMARK  status: ('A' for Active; 'I' for Inactive)
REMARK    1  A    between atoms: N_1  and  C_4
REMARK    2  A    between atoms: C_4  and  C_5
REMARK                            x       y       z     vdW  Elec       q    Type
REMARK                         _______ _______ _______ _____ _____    ______ ____
ROOT
ATOM      1  N   UNL     1     -11.938   6.112  -2.693  0.00  0.00    -0.354 N 
ATOM      2  N   UNL     1     -13.526   5.292  -4.167  0.00  0.00    -0.372 N 
ATOM      3  N   UNL     1     -12.187   7.032  -4.834  0.00  0.00    -0.372 N 
ATOM      4  C   UNL     1     -12.539   6.153  -3.890  0.00  0.00    +0.166 C 
ATOM      5  H   UNL     1     -12.272   5.442  -2.010  0.00  0.00    +0.163 HD
ATOM      6  H   UNL     1     -13.995   5.296  -5.062  0.00  0.00    +0.159 HD
ATOM      7  H   UNL     1     -13.826   4.593  -3.498  0.00  0.00    +0.159 HD
ATOM      8  H   UNL     1     -11.454   7.712  -4.686  0.00  0.00    +0.159 HD
ATOM      9  H   UNL     1     -12.653   7.060  -5.732  0.00  0.00    +0.159 HD
ENDROOT
BRANCH   1  10
ATOM     10  C   UNL     1     -10.818   6.969  -2.311  0.00  0.00    +0.151 C 
BRANCH  10  11
ATOM     11  C   UNL     1     -10.139   6.383  -1.104  0.00  0.00    -0.028 A 
ATOM     12  C   UNL     1      -9.305   7.174  -0.301  0.00  0.00    +0.005 A 
ATOM     13  C   UNL     1     -10.331   5.037  -0.755  0.00  0.00    +0.005 A 
ATOM     14  C   UNL     1      -8.699   6.638   0.838  0.00  0.00    +0.000 A 
ATOM     15  C   UNL     1      -9.723   4.505   0.382  0.00  0.00    +0.000 A 
ATOM     16  C   UNL     1      -8.909   5.306   1.179  0.00  0.00    +0.000 A 
ENDBRANCH  10  11
ENDBRANCH   1  10
TORSDOF 2
ENDMDL
MODEL 6
REMARK VINA RESULT:    -4.879      4.450      7.292
REMARK INTER + INTRA:          -5.617
REMARK INTER:                  -5.477
REMARK INTRA:                  -0.140
REMARK UNBOUND:                -0.168
REMARK  Name = 1550473
REMARK  2 active torsions:
REMARK  status: ('A' for Active; 'I' for Inactive)
REMARK    1  A    between atoms: N_1  and  C_4
REMARK    2  A    between atoms: C_4  and  C_5
REMARK                            x       y       z     vdW  Elec       q    Type
REMARK                         _______ _______ _______ _____ _____    ______ ____
ROOT
ATOM      1  N   UNL     1     -10.815   6.234   2.871  0.00  0.00    -0.354 N 
ATOM      2  N   UNL     1      -9.014   7.129   1.722  0.00  0.00    -0.372 N 
ATOM      3  N   UNL     1      -9.482   4.896   1.485  0.00  0.00    -0.372 N 
ATOM      4  C   UNL     1      -9.782   6.078   2.033  0.00  0.00    +0.166 C 
ATOM      5  H   UNL     1     -10.972   7.150   3.277  0.00  0.00    +0.163 HD
ATOM      6  H   UNL     1      -8.230   7.043   1.090  0.00  0.00    +0.159 HD
ATOM      7  H   UNL     1      -9.201   8.053   2.093  0.00  0.00    +0.159 HD
ATOM      8  H   UNL     1     -10.018   4.062   1.684  0.00  0.00    +0.159 HD
ATOM      9  H   UNL     1      -8.693   4.786   0.859  0.00  0.00    +0.159 HD
ENDROOT
BRANCH   1  10
ATOM     10  C   UNL     1     -11.744   5.165   3.232  0.00  0.00    +0.151 C 
BRANCH  10  11
ATOM     11  C   UNL     1     -11.574   4.838   4.690  0.00  0.00    -0.028 A 
ATOM     12  C   UNL     1     -10.799   5.661   5.519  0.00  0.00    +0.005 A 
ATOM     13  C   UNL     1     -12.191   3.708   5.250  0.00  0.00    +0.005 A 
ATOM     14  C   UNL     1     -10.665   5.375   6.880  0.00  0.00    +0.000 A 
ATOM     15  C   UNL     1     -12.055   3.425   6.609  0.00  0.00    +0.000 A 
ATOM     16  C   UNL     1     -11.294   4.260   7.424  0.00  0.00    +0.000 A 
ENDBRANCH  10  11
ENDBRANCH   1  10
TORSDOF 2
ENDMDL
MODEL 7
REMARK VINA RESULT:    -4.704     11.838     12.775
REMARK INTER + INTRA:          -5.422
REMARK INTER:                  -5.345
REMARK INTRA:                  -0.077
REMARK UNBOUND:                -0.168
REMARK  Name = 1550473
REMARK  2 active torsions:
REMARK  status: ('A' for Active; 'I' for Inactive)
REMARK    1  A    between atoms: N_1  and  C_4
REMARK    2  A    between atoms: C_4  and  C_5
REMARK                            x       y       z     vdW  Elec       q    Type
REMARK                         _______ _______ _______ _____ _____    ______ ____
ROOT
ATOM      1  N   UNL     1       1.731  10.233  -3.924  0.00  0.00    -0.354 N 
ATOM      2  N   UNL     1       3.226  10.738  -2.228  0.00  0.00    -0.372 N 
ATOM      3  N   UNL     1       3.973  10.724  -4.398  0.00  0.00    -0.372 N 
ATOM      4  C   UNL     1       2.969  10.562  -3.530  0.00  0.00    +0.166 C 
ATOM      5  H   UNL     1       1.021  10.095  -3.214  0.00  0.00    +0.163 HD
ATOM      6  H   UNL     1       4.149  10.990  -1.902  0.00  0.00    +0.159 HD
ATOM      7  H   UNL     1       2.504  10.645  -1.525  0.00  0.00    +0.159 HD
ATOM      8  H   UNL     1       3.845  10.600  -5.394  0.00  0.00    +0.159 HD
ATOM      9  H   UNL     1       4.907  10.965  -4.090  0.00  0.00    +0.159 HD
ENDROOT
BRANCH   1  10
ATOM     10  C   UNL     1       1.333  10.071  -5.321  0.00  0.00    +0.151 C 
BRANCH  10  11
ATOM     11  C   UNL     1       0.452  11.223  -5.718  0.00  0.00    -0.028 A 
ATOM     12  C   UNL     1       0.802  12.538  -5.378  0.00  0.00    +0.005 A 
ATOM     13  C   UNL     1      -0.732  11.007  -6.439  0.00  0.00    +0.005 A 
ATOM     14  C   UNL     1      -0.001  13.610  -5.772  0.00  0.00    +0.000 A 
ATOM     15  C   UNL     1      -1.532  12.080  -6.830  0.00  0.00    +0.000 A 
ATOM     16  C   UNL     1      -1.165  13.382  -6.499  0.00  0.00    +0.000 A 
ENDBRANCH  10  11
ENDBRANCH   1  10
TORSDOF 2
ENDMDL
MODEL 8
REMARK VINA RESULT:    -4.694     19.526     21.116
REMARK INTER + INTRA:          -5.411
REMARK INTER:                  -5.314
REMARK INTRA:                  -0.097
REMARK UNBOUND:                -0.168
REMARK  Name = 1550473
REMARK  2 active torsions:
REMARK  status: ('A' for Active; 'I' for Inactive)
REMARK    1  A    between atoms: N_1  and  C_4
REMARK    2  A    between atoms: C_4  and  C_5
REMARK                            x       y       z     vdW  Elec       q    Type
REMARK                         _______ _______ _______ _____ _____    ______ ____
ROOT
ATOM      1  N   UNL     1      -3.218 -13.142   5.970  0.00  0.00    -0.354 N 
ATOM      2  N   UNL     1      -1.350 -13.627   7.251  0.00  0.00    -0.372 N 
ATOM      3  N   UNL     1      -2.548 -15.358   6.336  0.00  0.00    -0.372 N 
ATOM      4  C   UNL     1      -2.385 -14.042   6.510  0.00  0.00    +0.166 C 
ATOM      5  H   UNL     1      -3.057 -12.160   6.164  0.00  0.00    +0.163 HD
ATOM      6  H   UNL     1      -0.703 -14.283   7.668  0.00  0.00    +0.159 HD
ATOM      7  H   UNL     1      -1.165 -12.644   7.405  0.00  0.00    +0.159 HD
ATOM      8  H   UNL     1      -3.313 -15.735   5.793  0.00  0.00    +0.159 HD
ATOM      9  H   UNL     1      -1.918 -16.030   6.756  0.00  0.00    +0.159 HD
ENDROOT
BRANCH   1  10
ATOM     10  C   UNL     1      -4.343 -13.486   5.103  0.00  0.00    +0.151 C 
BRANCH  10  11
ATOM     11  C   UNL     1      -4.988 -12.221   4.610  0.00  0.00    -0.028 A 
ATOM     12  C   UNL     1      -6.282 -11.873   5.024  0.00  0.00    +0.005 A 
ATOM     13  C   UNL     1      -4.308 -11.362   3.732  0.00  0.00    +0.005 A 
ATOM     14  C   UNL     1      -6.870 -10.682   4.589  0.00  0.00    +0.000 A 
ATOM     15  C   UNL     1      -4.899 -10.175   3.300  0.00  0.00    +0.000 A 
ATOM     16  C   UNL     1      -6.179  -9.834   3.731  0.00  0.00    +0.000 A 
ENDBRANCH  10  11
ENDBRANCH   1  10
TORSDOF 2
ENDMDL
MODEL 9
REMARK VINA RESULT:    -4.657     21.261     22.409
REMARK INTER + INTRA:          -5.370
REMARK INTER:                  -5.206
REMARK INTRA:                  -0.164
REMARK UNBOUND:                -0.168
REMARK  Name = 1550473
REMARK  2 active torsions:
REMARK  status: ('A' for Active; 'I' for Inactive)
REMARK    1  A    between atoms: N_1  and  C_4
REMARK    2  A    between atoms: C_4  and  C_5
REMARK                            x       y       z     vdW  Elec       q    Type
REMARK                         _______ _______ _______ _____ _____    ______ ____
ROOT
ATOM      1  N   UNL     1      -3.862 -13.109  -6.201  0.00  0.00    -0.354 N 
ATOM      2  N   UNL     1      -4.694 -14.277  -8.020  0.00  0.00    -0.372 N 
ATOM      3  N   UNL     1      -6.099 -13.806  -6.268  0.00  0.00    -0.372 N 
ATOM      4  C   UNL     1      -4.882 -13.723  -6.816  0.00  0.00    +0.166 C 
ATOM      5  H   UNL     1      -2.957 -13.107  -6.656  0.00  0.00    +0.163 HD
ATOM      6  H   UNL     1      -5.445 -14.744  -8.510  0.00  0.00    +0.159 HD
ATOM      7  H   UNL     1      -3.800 -14.234  -8.492  0.00  0.00    +0.159 HD
ATOM      8  H   UNL     1      -6.305 -13.413  -5.359  0.00  0.00    +0.159 HD
ATOM      9  H   UNL     1      -6.861 -14.279  -6.737  0.00  0.00    +0.159 HD
ENDROOT
BRANCH   1  10
ATOM     10  C   UNL     1      -3.976 -12.428  -4.912  0.00  0.00    +0.151 C 
BRANCH  10  11
ATOM     11  C   UNL     1      -3.304 -13.261  -3.855  0.00  0.00    -0.028 A 
ATOM     12  C   UNL     1      -3.959 -14.371  -3.302  0.00  0.00    +0.005 A 
ATOM     13  C   UNL     1      -2.012 -12.948  -3.407  0.00  0.00    +0.005 A 
ATOM     14  C   UNL     1      -3.324 -15.163  -2.342  0.00  0.00    +0.000 A 
ATOM     15  C   UNL     1      -1.382 -13.741  -2.448  0.00  0.00    +0.000 A 
ATOM     16  C   UNL     1      -2.037 -14.849  -1.917  0.00  0.00    +0.000 A 
ENDBRANCH  10  11
ENDBRANCH   1  10
TORSDOF 2
ENDMDL
