MODEL 1
REMARK VINA RESULT:    -4.842      0.000      0.000
REMARK INTER + INTRA:          -5.534
REMARK INTER:                  -5.408
REMARK INTRA:                  -0.125
REMARK UNBOUND:                -0.125
REMARK  Name = 1550473
REMARK  2 active torsions:
REMARK  status: ('A' for Active; 'I' for Inactive)
REMARK    1  A    between atoms: N_1  and  C_4
REMARK    2  A    between atoms: C_4  and  C_5
REMARK                            x       y       z     vdW  Elec       q    Type
REMARK                         _______ _______ _______ _____ _____    ______ ____
ROOT
ATOM      1  N   UNL     1       8.672  11.016   1.200  0.00  0.00    -0.354 N 
ATOM      2  N   UNL     1       7.065  11.211  -0.457  0.00  0.00    -0.372 N 
ATOM      3  N   UNL     1       6.631  12.092   1.617  0.00  0.00    -0.372 N 
ATOM      4  C   UNL     1       7.465  11.439   0.800  0.00  0.00    +0.166 C 
ATOM      5  H   UNL     1       9.244  10.501   0.541  0.00  0.00    +0.163 HD
ATOM      6  H   UNL     1       6.162  11.521  -0.788  0.00  0.00    +0.159 HD
ATOM      7  H   UNL     1       7.658  10.736  -1.127  0.00  0.00    +0.159 HD
ATOM      8  H   UNL     1       6.871  12.290   2.579  0.00  0.00    +0.159 HD
ATOM      9  H   UNL     1       5.718  12.400   1.307  0.00  0.00    +0.159 HD
ENDROOT
BRANCH   1  10
ATOM     10  C   UNL     1       9.224  11.261   2.531  0.00  0.00    +0.151 C 
BRANCH  10  11
ATOM     11  C   UNL     1      10.268  10.221   2.829  0.00  0.00    -0.028 A 
ATOM     12  C   UNL     1      11.301  10.490   3.739  0.00  0.00    +0.005 A 
ATOM     13  C   UNL     1      10.228   8.963   2.208  0.00  0.00    +0.005 A 
ATOM     14  C   UNL     1      12.255   9.513   4.038  0.00  0.00    +0.000 A 
ATOM     15  C   UNL     1      11.182   7.992   2.509  0.00  0.00    +0.000 A 
ATOM     16  C   UNL     1      12.194   8.266   3.426  0.00  0.00    +0.000 A 
ENDBRANCH  10  11
ENDBRANCH   1  10
TORSDOF 2
ENDMDL
MODEL 2
REMARK VINA RESULT:    -4.828     20.633     21.309
REMARK INTER + INTRA:          -5.518
REMARK INTER:                  -5.402
REMARK INTRA:                  -0.116
REMARK UNBOUND:                -0.125
REMARK  Name = 1550473
REMARK  2 active torsions:
REMARK  status: ('A' for Active; 'I' for Inactive)
REMARK    1  A    between atoms: N_1  and  C_4
REMARK    2  A    between atoms: C_4  and  C_5
REMARK                            x       y       z     vdW  Elec       q    Type
REMARK                         _______ _______ _______ _____ _____    ______ ____
ROOT
ATOM      1  N   UNL     1      -0.053  -6.133  12.500  0.00  0.00    -0.354 N 
ATOM      2  N   UNL     1      -1.843  -7.371  13.291  0.00  0.00    -0.372 N 
ATOM      3  N   UNL     1       0.004  -8.476  12.496  0.00  0.00    -0.372 N 
ATOM      4  C   UNL     1      -0.617  -7.321  12.756  0.00  0.00    +0.166 C 
ATOM      5  H   UNL     1      -0.588  -5.294  12.691  0.00  0.00    +0.163 HD
ATOM      6  H   UNL     1      -2.294  -8.252  13.498  0.00  0.00    +0.159 HD
ATOM      7  H   UNL     1      -2.358  -6.530  13.524  0.00  0.00    +0.159 HD
ATOM      8  H   UNL     1       0.928  -8.507  12.088  0.00  0.00    +0.159 HD
ATOM      9  H   UNL     1      -0.435  -9.368  12.686  0.00  0.00    +0.159 HD
ENDROOT
BRANCH   1  10
ATOM     10  C   UNL     1       1.299  -5.969  11.968  0.00  0.00    +0.151 C 
BRANCH  10  11
ATOM     11  C   UNL     1       2.147  -5.265  12.992  0.00  0.00    -0.028 A 
ATOM     12  C   UNL     1       2.114  -5.660  14.337  0.00  0.00    +0.005 A 
ATOM     13  C   UNL     1       2.990  -4.205  12.621  0.00  0.00    +0.005 A 
ATOM     14  C   UNL     1       2.923  -5.026  15.283  0.00  0.00    +0.000 A 
ATOM     15  C   UNL     1       3.796  -3.574  13.569  0.00  0.00    +0.000 A 
ATOM     16  C   UNL     1       3.764  -3.986  14.899  0.00  0.00    +0.000 A 
ENDBRANCH  10  11
ENDBRANCH   1  10
TORSDOF 2
ENDMDL
MODEL 3
REMARK VINA RESULT:    -4.324     12.514     13.272
REMARK INTER + INTRA:          -4.955
REMARK INTER:                  -4.799
REMARK INTRA:                  -0.156
REMARK UNBOUND:                -0.125
REMARK  Name = 1550473
REMARK  2 active torsions:
REMARK  status: ('A' for Active; 'I' for Inactive)
REMARK    1  A    between atoms: N_1  and  C_4
REMARK    2  A    between atoms: C_4  and  C_5
REMARK                            x       y       z     vdW  Elec       q    Type
REMARK                         _______ _______ _______ _____ _____    ______ ____
ROOT
ATOM      1  N   UNL     1       0.192  11.523  -6.592  0.00  0.00    -0.354 N 
ATOM      2  N   UNL     1       1.717  10.260  -7.793  0.00  0.00    -0.372 N 
ATOM      3  N   UNL     1       0.518  11.884  -8.884  0.00  0.00    -0.372 N 
ATOM      4  C   UNL     1       0.798  11.232  -7.751  0.00  0.00    +0.166 C 
ATOM      5  H   UNL     1       0.427  10.972  -5.774  0.00  0.00    +0.163 HD
ATOM      6  H   UNL     1       2.193  10.020  -8.653  0.00  0.00    +0.159 HD
ATOM      7  H   UNL     1       1.983   9.742  -6.965  0.00  0.00    +0.159 HD
ATOM      8  H   UNL     1      -0.171  12.624  -8.920  0.00  0.00    +0.159 HD
ATOM      9  H   UNL     1       0.975  11.650  -9.757  0.00  0.00    +0.159 HD
ENDROOT
BRANCH   1  10
ATOM     10  C   UNL     1      -0.783  12.599  -6.426  0.00  0.00    +0.151 C 
BRANCH  10  11
ATOM     11  C   UNL     1      -0.230  13.622  -5.473  0.00  0.00    -0.028 A 
ATOM     12  C   UNL     1       0.870  14.412  -5.836  0.00  0.00    +0.005 A 
ATOM     13  C   UNL     1      -0.805  13.809  -4.206  0.00  0.00    +0.005 A 
ATOM     14  C   UNL     1       1.365  15.383  -4.962  0.00  0.00    +0.000 A 
ATOM     15  C   UNL     1      -0.307  14.779  -3.336  0.00  0.00    +0.000 A 
ATOM     16  C   UNL     1       0.777  15.567  -3.715  0.00  0.00    +0.000 A 
ENDBRANCH  10  11
ENDBRANCH   1  10
TORSDOF 2
ENDMDL
MODEL 4
REMARK VINA RESULT:    -4.323     23.843     25.160
REMARK INTER + INTRA:          -4.954
REMARK INTER:                  -4.776
REMARK INTRA:                  -0.178
REMARK UNBOUND:                -0.125
REMARK  Name = 1550473
REMARK  2 active torsions:
REMARK  status: ('A' for Active; 'I' for Inactive)
REMARK    1  A    between atoms: N_1  and  C_4
REMARK    2  A    between atoms: C_4  and  C_5
REMARK                            x       y       z     vdW  Elec       q    Type
REMARK                         _______ _______ _______ _____ _____    ______ ____
ROOT
ATOM      1  N   UNL     1       6.542  -8.829 -10.652  0.00  0.00    -0.354 N 
ATOM      2  N   UNL     1       5.685  -8.197  -8.595  0.00  0.00    -0.372 N 
ATOM      3  N   UNL     1       5.688 -10.421  -9.159  0.00  0.00    -0.372 N 
ATOM      4  C   UNL     1       5.976  -9.156  -9.482  0.00  0.00    +0.166 C 
ATOM      5  H   UNL     1       6.708  -7.849 -10.849  0.00  0.00    +0.163 HD
ATOM      6  H   UNL     1       5.261  -8.413  -7.703  0.00  0.00    +0.159 HD
ATOM      7  H   UNL     1       5.894  -7.223  -8.776  0.00  0.00    +0.159 HD
ATOM      8  H   UNL     1       5.877 -11.191  -9.787  0.00  0.00    +0.159 HD
ATOM      9  H   UNL     1       5.253 -10.657  -8.275  0.00  0.00    +0.159 HD
ENDROOT
BRANCH   1  10
ATOM     10  C   UNL     1       6.948  -9.803 -11.664  0.00  0.00    +0.151 C 
BRANCH  10  11
ATOM     11  C   UNL     1       5.903  -9.853 -12.744  0.00  0.00    -0.028 A 
ATOM     12  C   UNL     1       5.571  -8.698 -13.467  0.00  0.00    +0.005 A 
ATOM     13  C   UNL     1       5.246 -11.054 -13.054  0.00  0.00    +0.005 A 
ATOM     14  C   UNL     1       4.622  -8.751 -14.491  0.00  0.00    +0.000 A 
ATOM     15  C   UNL     1       4.299 -11.102 -14.077  0.00  0.00    +0.000 A 
ATOM     16  C   UNL     1       3.989  -9.951 -14.797  0.00  0.00    +0.000 A 
ENDBRANCH  10  11
ENDBRANCH   1  10
TORSDOF 2
ENDMDL
MODEL 5
REMARK VINA RESULT:    -4.282     12.651     14.018
REMARK INTER + INTRA:          -4.908
REMARK INTER:                  -4.781
REMARK INTRA:                  -0.127
REMARK UNBOUND:                -0.125
REMARK  Name = 1550473
REMARK  2 active torsions:
REMARK  status: ('A' for Active; 'I' for Inactive)
REMARK    1  A    between atoms: N_1  and  C_4
REMARK    2  A    between atoms: C_4  and  C_5
REMARK                            x       y       z     vdW  Elec       q    Type
REMARK                         _______ _______ _______ _____ _____    ______ ____
ROOT
ATOM      1  N   UNL     1      -0.038  11.793  -6.961  0.00  0.00    -0.354 N 
ATOM      2  N   UNL     1       1.578  10.343  -7.765  0.00  0.00    -0.372 N 
ATOM      3  N   UNL     1       0.655  11.878  -9.198  0.00  0.00    -0.372 N 
ATOM      4  C   UNL     1       0.720  11.349  -7.972  0.00  0.00    +0.166 C 
ATOM      5  H   UNL     1       0.037  11.330  -6.063  0.00  0.00    +0.163 HD
ATOM      6  H   UNL     1       2.166   9.988  -8.507  0.00  0.00    +0.159 HD
ATOM      7  H   UNL     1       1.685   9.912  -6.854  0.00  0.00    +0.159 HD
ATOM      8  H   UNL     1       0.023  12.636  -9.421  0.00  0.00    +0.159 HD
ATOM      9  H   UNL     1       1.226  11.529  -9.957  0.00  0.00    +0.159 HD
ENDROOT
BRANCH   1  10
ATOM     10  C   UNL     1      -0.965  12.919  -7.068  0.00  0.00    +0.151 C 
BRANCH  10  11
ATOM     11  C   UNL     1      -1.144  13.538  -5.709  0.00  0.00    -0.028 A 
ATOM     12  C   UNL     1      -2.296  14.280  -5.411  0.00  0.00    +0.005 A 
ATOM     13  C   UNL     1      -0.167  13.383  -4.714  0.00  0.00    +0.005 A 
ATOM     14  C   UNL     1      -2.477  14.830  -4.139  0.00  0.00    +0.000 A 
ATOM     15  C   UNL     1      -0.350  13.935  -3.446  0.00  0.00    +0.000 A 
ATOM     16  C   UNL     1      -1.506  14.656  -3.158  0.00  0.00    +0.000 A 
ENDBRANCH  10  11
ENDBRANCH   1  10
TORSDOF 2
ENDMDL
MODEL 6
REMARK VINA RESULT:    -4.231     26.334     27.166
REMARK INTER + INTRA:          -4.851
REMARK INTER:                  -4.670
REMARK INTRA:                  -0.181
REMARK UNBOUND:                -0.125
REMARK  Name = 1550473
REMARK  2 active torsions:
REMARK  status: ('A' for Active; 'I' for Inactive)
REMARK    1  A    between atoms: N_1  and  C_4
REMARK    2  A    between atoms: C_4  and  C_5
REMARK                            x       y       z     vdW  Elec       q    Type
REMARK                         _______ _______ _______ _____ _____    ______ ____
ROOT
ATOM      1  N   UNL     1      -6.860  -8.949  -9.300  0.00  0.00    -0.354 N 
ATOM      2  N   UNL     1      -7.911  -7.288  -8.076  0.00  0.00    -0.372 N 
ATOM      3  N   UNL     1      -7.476  -6.921 -10.299  0.00  0.00    -0.372 N 
ATOM      4  C   UNL     1      -7.408  -7.729  -9.235  0.00  0.00    +0.166 C 
ATOM      5  H   UNL     1      -6.812  -9.501  -8.451  0.00  0.00    +0.163 HD
ATOM      6  H   UNL     1      -8.335  -6.373  -7.998  0.00  0.00    +0.159 HD
ATOM      7  H   UNL     1      -7.904  -7.860  -7.240  0.00  0.00    +0.159 HD
ATOM      8  H   UNL     1      -7.109  -7.192 -11.201  0.00  0.00    +0.159 HD
ATOM      9  H   UNL     1      -7.885  -5.997 -10.237  0.00  0.00    +0.159 HD
ENDROOT
BRANCH   1  10
ATOM     10  C   UNL     1      -6.332  -9.545 -10.526  0.00  0.00    +0.151 C 
BRANCH  10  11
ATOM     11  C   UNL     1      -4.831  -9.469 -10.503  0.00  0.00    -0.028 A 
ATOM     12  C   UNL     1      -4.087 -10.327  -9.680  0.00  0.00    +0.005 A 
ATOM     13  C   UNL     1      -4.145  -8.544 -11.306  0.00  0.00    +0.005 A 
ATOM     14  C   UNL     1      -2.691 -10.277  -9.681  0.00  0.00    +0.000 A 
ATOM     15  C   UNL     1      -2.751  -8.497 -11.303  0.00  0.00    +0.000 A 
ATOM     16  C   UNL     1      -2.024  -9.365 -10.492  0.00  0.00    +0.000 A 
ENDBRANCH  10  11
ENDBRANCH   1  10
TORSDOF 2
ENDMDL
MODEL 7
REMARK VINA RESULT:    -4.059     26.368     27.056
REMARK INTER + INTRA:          -4.659
REMARK INTER:                  -4.528
REMARK INTRA:                  -0.131
REMARK UNBOUND:                -0.125
REMARK  Name = 1550473
REMARK  2 active torsions:
REMARK  status: ('A' for Active; 'I' for Inactive)
REMARK    1  A    between atoms: N_1  and  C_4
REMARK    2  A    between atoms: C_4  and  C_5
REMARK                            x       y       z     vdW  Elec       q    Type
REMARK                         _______ _______ _______ _____ _____    ______ ____
ROOT
ATOM      1  N   UNL     1      -0.954 -11.951  -8.466  0.00  0.00    -0.354 N 
ATOM      2  N   UNL     1       1.138 -12.621  -7.733  0.00  0.00    -0.372 N 
ATOM      3  N   UNL     1      -0.579 -12.490  -6.217  0.00  0.00    -0.372 N 
ATOM      4  C   UNL     1      -0.147 -12.349  -7.474  0.00  0.00    +0.166 C 
ATOM      5  H   UNL     1      -0.558 -11.834  -9.392  0.00  0.00    +0.163 HD
ATOM      6  H   UNL     1       1.771 -12.927  -7.005  0.00  0.00    +0.159 HD
ATOM      7  H   UNL     1       1.521 -12.548  -8.668  0.00  0.00    +0.159 HD
ATOM      8  H   UNL     1      -1.536 -12.296  -5.955  0.00  0.00    +0.159 HD
ATOM      9  H   UNL     1       0.041 -12.784  -5.473  0.00  0.00    +0.159 HD
ENDROOT
BRANCH   1  10
ATOM     10  C   UNL     1      -2.381 -11.682  -8.301  0.00  0.00    +0.151 C 
BRANCH  10  11
ATOM     11  C   UNL     1      -2.803 -10.636  -9.296  0.00  0.00    -0.028 A 
ATOM     12  C   UNL     1      -1.848  -9.819  -9.917  0.00  0.00    +0.005 A 
ATOM     13  C   UNL     1      -4.156 -10.462  -9.626  0.00  0.00    +0.005 A 
ATOM     14  C   UNL     1      -2.236  -8.868 -10.864  0.00  0.00    +0.000 A 
ATOM     15  C   UNL     1      -4.539  -9.511 -10.571  0.00  0.00    +0.000 A 
ATOM     16  C   UNL     1      -3.579  -8.715 -11.191  0.00  0.00    +0.000 A 
ENDBRANCH  10  11
ENDBRANCH   1  10
TORSDOF 2
ENDMDL
MODEL 8
REMARK VINA RESULT:    -3.944     22.918     23.655
REMARK INTER + INTRA:          -4.531
REMARK INTER:                  -4.398
REMARK INTRA:                  -0.132
REMARK UNBOUND:                -0.125
REMARK  Name = 1550473
REMARK  2 active torsions:
REMARK  status: ('A' for Active; 'I' for Inactive)
REMARK    1  A    between atoms: N_1  and  C_4
REMARK    2  A    between atoms: C_4  and  C_5
REMARK                            x       y       z     vdW  Elec       q    Type
REMARK                         _______ _______ _______ _____ _____    ______ ____
ROOT
ATOM      1  N   UNL     1      -0.162  -9.636  14.065  0.00  0.00    -0.354 N 
ATOM      2  N   UNL     1      -0.473 -11.570  12.829  0.00  0.00    -0.372 N 
ATOM      3  N   UNL     1      -2.152 -10.007  12.884  0.00  0.00    -0.372 N 
ATOM      4  C   UNL     1      -0.929 -10.391  13.267  0.00  0.00    +0.166 C 
ATOM      5  H   UNL     1       0.743  -9.997  14.344  0.00  0.00    +0.163 HD
ATOM      6  H   UNL     1      -1.027 -12.160  12.223  0.00  0.00    +0.159 HD
ATOM      7  H   UNL     1       0.451 -11.908  13.072  0.00  0.00    +0.159 HD
ATOM      8  H   UNL     1      -2.557  -9.131  13.184  0.00  0.00    +0.159 HD
ATOM      9  H   UNL     1      -2.727 -10.589  12.287  0.00  0.00    +0.159 HD
ENDROOT
BRANCH   1  10
ATOM     10  C   UNL     1      -0.544  -8.312  14.553  0.00  0.00    +0.151 C 
BRANCH  10  11
ATOM     11  C   UNL     1       0.310  -7.275  13.877  0.00  0.00    -0.028 A 
ATOM     12  C   UNL     1       0.233  -7.083  12.490  0.00  0.00    +0.005 A 
ATOM     13  C   UNL     1       1.193  -6.476  14.620  0.00  0.00    +0.005 A 
ATOM     14  C   UNL     1       1.004  -6.099  11.866  0.00  0.00    +0.000 A 
ATOM     15  C   UNL     1       1.961  -5.495  13.993  0.00  0.00    +0.000 A 
ATOM     16  C   UNL     1       1.865  -5.305  12.616  0.00  0.00    +0.000 A 
ENDBRANCH  10  11
ENDBRANCH   1  10
TORSDOF 2
ENDMDL
MODEL 9
REMARK VINA RESULT:    -3.881     26.419     27.238
REMARK INTER + INTRA:          -4.460
REMARK INTER:                  -4.342
REMARK INTRA:                  -0.118
REMARK UNBOUND:                -0.125
REMARK  Name = 1550473
REMARK  2 active torsions:
REMARK  status: ('A' for Active; 'I' for Inactive)
REMARK    1  A    between atoms: N_1  and  C_4
REMARK    2  A    between atoms: C_4  and  C_5
REMARK                            x       y       z     vdW  Elec       q    Type
REMARK                         _______ _______ _______ _____ _____    ______ ____
ROOT
ATOM      1  N   UNL     1      -0.930 -12.190  -6.606  0.00  0.00    -0.354 N 
ATOM      2  N   UNL     1      -0.363 -13.152  -4.577  0.00  0.00    -0.372 N 
ATOM      3  N   UNL     1       1.033 -13.448  -6.374  0.00  0.00    -0.372 N 
ATOM      4  C   UNL     1      -0.088 -12.925  -5.867  0.00  0.00    +0.166 C 
ATOM      5  H   UNL     1      -1.779 -11.847  -6.170  0.00  0.00    +0.163 HD
ATOM      6  H   UNL     1       0.256 -13.699  -3.993  0.00  0.00    +0.159 HD
ATOM      7  H   UNL     1      -1.188 -12.769  -4.132  0.00  0.00    +0.159 HD
ATOM      8  H   UNL     1       1.295 -13.319  -7.342  0.00  0.00    +0.159 HD
ATOM      9  H   UNL     1       1.659 -14.009  -5.809  0.00  0.00    +0.159 HD
ENDROOT
BRANCH   1  10
ATOM     10  C   UNL     1      -0.697 -11.840  -8.006  0.00  0.00    +0.151 C 
BRANCH  10  11
ATOM     11  C   UNL     1      -1.981 -11.340  -8.608  0.00  0.00    -0.028 A 
ATOM     12  C   UNL     1      -1.967 -10.321  -9.572  0.00  0.00    +0.005 A 
ATOM     13  C   UNL     1      -3.216 -11.884  -8.222  0.00  0.00    +0.005 A 
ATOM     14  C   UNL     1      -3.157  -9.877 -10.153  0.00  0.00    +0.000 A 
ATOM     15  C   UNL     1      -4.402 -11.438  -8.804  0.00  0.00    +0.000 A 
ATOM     16  C   UNL     1      -4.372 -10.436  -9.771  0.00  0.00    +0.000 A 
ENDBRANCH  10  11
ENDBRANCH   1  10
TORSDOF 2
ENDMDL
