MODEL 1
REMARK VINA RESULT:    -5.240      0.000      0.000
REMARK INTER + INTRA:          -5.841
REMARK INTER:                  -5.853
REMARK INTRA:                   0.012
REMARK UNBOUND:                 0.012
REMARK  Name = 1550473
REMARK  2 active torsions:
REMARK  status: ('A' for Active; 'I' for Inactive)
REMARK    1  A    between atoms: N_1  and  C_4
REMARK    2  A    between atoms: C_4  and  C_5
REMARK                            x       y       z     vdW  Elec       q    Type
REMARK                         _______ _______ _______ _____ _____    ______ ____
ROOT
ATOM      1  N   UNL     1       4.725   7.083  -6.418  0.00  0.00    -0.354 N 
ATOM      2  N   UNL     1       4.610   7.073  -4.105  0.00  0.00    -0.372 N 
ATOM      3  N   UNL     1       2.716   6.605  -5.311  0.00  0.00    -0.372 N 
ATOM      4  C   UNL     1       4.015   6.920  -5.294  0.00  0.00    +0.166 C 
ATOM      5  H   UNL     1       5.700   7.351  -6.337  0.00  0.00    +0.163 HD
ATOM      6  H   UNL     1       4.101   6.953  -3.240  0.00  0.00    +0.159 HD
ATOM      7  H   UNL     1       5.595   7.295  -4.027  0.00  0.00    +0.159 HD
ATOM      8  H   UNL     1       2.206   6.482  -6.176  0.00  0.00    +0.159 HD
ATOM      9  H   UNL     1       2.186   6.492  -4.456  0.00  0.00    +0.159 HD
ENDROOT
BRANCH   1  10
ATOM     10  C   UNL     1       4.185   6.887  -7.762  0.00  0.00    +0.151 C 
BRANCH  10  11
ATOM     11  C   UNL     1       4.064   5.413  -8.032  0.00  0.00    -0.028 A 
ATOM     12  C   UNL     1       2.915   4.894  -8.646  0.00  0.00    +0.005 A 
ATOM     13  C   UNL     1       5.097   4.530  -7.682  0.00  0.00    +0.005 A 
ATOM     14  C   UNL     1       2.814   3.528  -8.925  0.00  0.00    +0.000 A 
ATOM     15  C   UNL     1       4.993   3.168  -7.961  0.00  0.00    +0.000 A 
ATOM     16  C   UNL     1       3.853   2.667  -8.585  0.00  0.00    +0.000 A 
ENDBRANCH  10  11
ENDBRANCH   1  10
TORSDOF 2
ENDMDL
MODEL 2
REMARK VINA RESULT:    -4.948      2.590      3.666
REMARK INTER + INTRA:          -5.514
REMARK INTER:                  -5.394
REMARK INTRA:                  -0.120
REMARK UNBOUND:                 0.012
REMARK  Name = 1550473
REMARK  2 active torsions:
REMARK  status: ('A' for Active; 'I' for Inactive)
REMARK    1  A    between atoms: N_1  and  C_4
REMARK    2  A    between atoms: C_4  and  C_5
REMARK                            x       y       z     vdW  Elec       q    Type
REMARK                         _______ _______ _______ _____ _____    ______ ____
ROOT
ATOM      1  N   UNL     1       3.268   6.372  -8.879  0.00  0.00    -0.354 N 
ATOM      2  N   UNL     1       2.240   6.882 -10.891  0.00  0.00    -0.372 N 
ATOM      3  N   UNL     1       2.318   8.482  -9.248  0.00  0.00    -0.372 N 
ATOM      4  C   UNL     1       2.615   7.245  -9.658  0.00  0.00    +0.166 C 
ATOM      5  H   UNL     1       3.436   5.439  -9.238  0.00  0.00    +0.163 HD
ATOM      6  H   UNL     1       1.749   7.520 -11.503  0.00  0.00    +0.159 HD
ATOM      7  H   UNL     1       2.450   5.964 -11.264  0.00  0.00    +0.159 HD
ATOM      8  H   UNL     1       2.567   8.816  -8.327  0.00  0.00    +0.159 HD
ATOM      9  H   UNL     1       1.816   9.131  -9.842  0.00  0.00    +0.159 HD
ENDROOT
BRANCH   1  10
ATOM     10  C   UNL     1       3.767   6.685  -7.541  0.00  0.00    +0.151 C 
BRANCH  10  11
ATOM     11  C   UNL     1       4.467   5.477  -6.984  0.00  0.00    -0.028 A 
ATOM     12  C   UNL     1       4.666   5.344  -5.602  0.00  0.00    +0.005 A 
ATOM     13  C   UNL     1       4.929   4.458  -7.831  0.00  0.00    +0.005 A 
ATOM     14  C   UNL     1       5.290   4.208  -5.080  0.00  0.00    +0.000 A 
ATOM     15  C   UNL     1       5.552   3.325  -7.307  0.00  0.00    +0.000 A 
ATOM     16  C   UNL     1       5.730   3.199  -5.932  0.00  0.00    +0.000 A 
ENDBRANCH  10  11
ENDBRANCH   1  10
TORSDOF 2
ENDMDL
MODEL 3
REMARK VINA RESULT:    -4.933      2.997      4.050
REMARK INTER + INTRA:          -5.498
REMARK INTER:                  -5.323
REMARK INTRA:                  -0.176
REMARK UNBOUND:                 0.012
REMARK  Name = 1550473
REMARK  2 active torsions:
REMARK  status: ('A' for Active; 'I' for Inactive)
REMARK    1  A    between atoms: N_1  and  C_4
REMARK    2  A    between atoms: C_4  and  C_5
REMARK                            x       y       z     vdW  Elec       q    Type
REMARK                         _______ _______ _______ _____ _____    ______ ____
ROOT
ATOM      1  N   UNL     1       7.919   4.982  -8.146  0.00  0.00    -0.354 N 
ATOM      2  N   UNL     1       9.451   5.320  -9.850  0.00  0.00    -0.372 N 
ATOM      3  N   UNL     1       8.070   7.049  -9.239  0.00  0.00    -0.372 N 
ATOM      4  C   UNL     1       8.469   5.784  -9.067  0.00  0.00    +0.166 C 
ATOM      5  H   UNL     1       8.245   4.024  -8.086  0.00  0.00    +0.163 HD
ATOM      6  H   UNL     1       9.887   5.903 -10.552  0.00  0.00    +0.159 HD
ATOM      7  H   UNL     1       9.806   4.376  -9.757  0.00  0.00    +0.159 HD
ATOM      8  H   UNL     1       7.330   7.457  -8.685  0.00  0.00    +0.159 HD
ATOM      9  H   UNL     1       8.487   7.644  -9.944  0.00  0.00    +0.159 HD
ENDROOT
BRANCH   1  10
ATOM     10  C   UNL     1       6.881   5.405  -7.208  0.00  0.00    +0.151 C 
BRANCH  10  11
ATOM     11  C   UNL     1       5.554   4.871  -7.670  0.00  0.00    -0.028 A 
ATOM     12  C   UNL     1       4.488   5.744  -7.935  0.00  0.00    +0.005 A 
ATOM     13  C   UNL     1       5.356   3.493  -7.850  0.00  0.00    +0.005 A 
ATOM     14  C   UNL     1       3.264   5.250  -8.393  0.00  0.00    +0.000 A 
ATOM     15  C   UNL     1       4.132   3.004  -8.307  0.00  0.00    +0.000 A 
ATOM     16  C   UNL     1       3.087   3.883  -8.580  0.00  0.00    +0.000 A 
ENDBRANCH  10  11
ENDBRANCH   1  10
TORSDOF 2
ENDMDL
MODEL 4
REMARK VINA RESULT:    -4.487     53.385     55.096
REMARK INTER + INTRA:          -5.000
REMARK INTER:                  -4.870
REMARK INTRA:                  -0.130
REMARK UNBOUND:                 0.012
REMARK  Name = 1550473
REMARK  2 active torsions:
REMARK  status: ('A' for Active; 'I' for Inactive)
REMARK    1  A    between atoms: N_1  and  C_4
REMARK    2  A    between atoms: C_4  and  C_5
REMARK                            x       y       z     vdW  Elec       q    Type
REMARK                         _______ _______ _______ _____ _____    ______ ____
ROOT
ATOM      1  N   UNL     1     -26.820 -24.468 -39.036  0.00  0.00    -0.354 N 
ATOM      2  N   UNL     1     -25.947 -23.281 -37.249  0.00  0.00    -0.372 N 
ATOM      3  N   UNL     1     -25.475 -25.519 -37.430  0.00  0.00    -0.372 N 
ATOM      4  C   UNL     1     -26.085 -24.433 -37.916  0.00  0.00    +0.166 C 
ATOM      5  H   UNL     1     -27.282 -23.617 -39.335  0.00  0.00    +0.163 HD
ATOM      6  H   UNL     1     -25.396 -23.224 -36.402  0.00  0.00    +0.159 HD
ATOM      7  H   UNL     1     -26.372 -22.422 -37.575  0.00  0.00    +0.159 HD
ATOM      8  H   UNL     1     -25.545 -26.421 -37.884  0.00  0.00    +0.159 HD
ATOM      9  H   UNL     1     -24.929 -25.484 -36.579  0.00  0.00    +0.159 HD
ENDROOT
BRANCH   1  10
ATOM     10  C   UNL     1     -26.989 -25.659 -39.866  0.00  0.00    +0.151 C 
BRANCH  10  11
ATOM     11  C   UNL     1     -28.378 -25.663 -40.442  0.00  0.00    -0.028 A 
ATOM     12  C   UNL     1     -28.915 -26.833 -40.998  0.00  0.00    +0.005 A 
ATOM     13  C   UNL     1     -29.164 -24.500 -40.431  0.00  0.00    +0.005 A 
ATOM     14  C   UNL     1     -30.217 -26.844 -41.507  0.00  0.00    +0.000 A 
ATOM     15  C   UNL     1     -30.462 -24.515 -40.940  0.00  0.00    +0.000 A 
ATOM     16  C   UNL     1     -30.989 -25.688 -41.476  0.00  0.00    +0.000 A 
ENDBRANCH  10  11
ENDBRANCH   1  10
TORSDOF 2
ENDMDL
MODEL 5
REMARK VINA RESULT:    -4.349     12.563     13.824
REMARK INTER + INTRA:          -4.845
REMARK INTER:                  -4.691
REMARK INTRA:                  -0.155
REMARK UNBOUND:                 0.012
REMARK  Name = 1550473
REMARK  2 active torsions:
REMARK  status: ('A' for Active; 'I' for Inactive)
REMARK    1  A    between atoms: N_1  and  C_4
REMARK    2  A    between atoms: C_4  and  C_5
REMARK                            x       y       z     vdW  Elec       q    Type
REMARK                         _______ _______ _______ _____ _____    ______ ____
ROOT
ATOM      1  N   UNL     1      13.774  -4.435  -9.672  0.00  0.00    -0.354 N 
ATOM      2  N   UNL     1      12.294  -4.963 -11.373  0.00  0.00    -0.372 N 
ATOM      3  N   UNL     1      13.636  -3.116 -11.604  0.00  0.00    -0.372 N 
ATOM      4  C   UNL     1      13.245  -4.165 -10.873  0.00  0.00    +0.166 C 
ATOM      5  H   UNL     1      13.413  -5.228  -9.154  0.00  0.00    +0.163 HD
ATOM      6  H   UNL     1      11.879  -4.787 -12.278  0.00  0.00    +0.159 HD
ATOM      7  H   UNL     1      11.968  -5.782 -10.874  0.00  0.00    +0.159 HD
ATOM      8  H   UNL     1      14.345  -2.472 -11.281  0.00  0.00    +0.159 HD
ATOM      9  H   UNL     1      13.224  -2.917 -12.507  0.00  0.00    +0.159 HD
ENDROOT
BRANCH   1  10
ATOM     10  C   UNL     1      14.853  -3.660  -9.061  0.00  0.00    +0.151 C 
BRANCH  10  11
ATOM     11  C   UNL     1      14.353  -3.045  -7.783  0.00  0.00    -0.028 A 
ATOM     12  C   UNL     1      14.417  -3.758  -6.577  0.00  0.00    +0.005 A 
ATOM     13  C   UNL     1      13.818  -1.747  -7.771  0.00  0.00    +0.005 A 
ATOM     14  C   UNL     1      13.981  -3.176  -5.384  0.00  0.00    +0.000 A 
ATOM     15  C   UNL     1      13.383  -1.170  -6.578  0.00  0.00    +0.000 A 
ATOM     16  C   UNL     1      13.466  -1.883  -5.385  0.00  0.00    +0.000 A 
ENDBRANCH  10  11
ENDBRANCH   1  10
TORSDOF 2
ENDMDL
MODEL 6
REMARK VINA RESULT:    -4.344     12.943     14.121
REMARK INTER + INTRA:          -4.840
REMARK INTER:                  -4.666
REMARK INTRA:                  -0.174
REMARK UNBOUND:                 0.012
REMARK  Name = 1550473
REMARK  2 active torsions:
REMARK  status: ('A' for Active; 'I' for Inactive)
REMARK    1  A    between atoms: N_1  and  C_4
REMARK    2  A    between atoms: C_4  and  C_5
REMARK                            x       y       z     vdW  Elec       q    Type
REMARK                         _______ _______ _______ _____ _____    ______ ____
ROOT
ATOM      1  N   UNL     1      13.077  -5.879  -9.136  0.00  0.00    -0.354 N 
ATOM      2  N   UNL     1      11.177  -6.723 -10.157  0.00  0.00    -0.372 N 
ATOM      3  N   UNL     1      12.387  -5.098 -11.235  0.00  0.00    -0.372 N 
ATOM      4  C   UNL     1      12.227  -5.892 -10.171  0.00  0.00    +0.166 C 
ATOM      5  H   UNL     1      12.884  -6.484  -8.346  0.00  0.00    +0.163 HD
ATOM      6  H   UNL     1      10.521  -6.758 -10.925  0.00  0.00    +0.159 HD
ATOM      7  H   UNL     1      11.012  -7.360  -9.387  0.00  0.00    +0.159 HD
ATOM      8  H   UNL     1      13.155  -4.444 -11.304  0.00  0.00    +0.159 HD
ATOM      9  H   UNL     1      11.734  -5.110 -12.008  0.00  0.00    +0.159 HD
ENDROOT
BRANCH   1  10
ATOM     10  C   UNL     1      14.280  -5.051  -9.077  0.00  0.00    +0.151 C 
BRANCH  10  11
ATOM     11  C   UNL     1      14.067  -3.944  -8.081  0.00  0.00    -0.028 A 
ATOM     12  C   UNL     1      13.772  -2.643  -8.514  0.00  0.00    +0.005 A 
ATOM     13  C   UNL     1      14.151  -4.192  -6.702  0.00  0.00    +0.005 A 
ATOM     14  C   UNL     1      13.544  -1.622  -7.589  0.00  0.00    +0.000 A 
ATOM     15  C   UNL     1      13.924  -3.169  -5.781  0.00  0.00    +0.000 A 
ATOM     16  C   UNL     1      13.618  -1.885  -6.225  0.00  0.00    +0.000 A 
ENDBRANCH  10  11
ENDBRANCH   1  10
TORSDOF 2
ENDMDL
MODEL 7
REMARK VINA RESULT:    -4.333      3.796      4.963
REMARK INTER + INTRA:          -4.828
REMARK INTER:                  -4.723
REMARK INTRA:                  -0.104
REMARK UNBOUND:                 0.012
REMARK  Name = 1550473
REMARK  2 active torsions:
REMARK  status: ('A' for Active; 'I' for Inactive)
REMARK    1  A    between atoms: N_1  and  C_4
REMARK    2  A    between atoms: C_4  and  C_5
REMARK                            x       y       z     vdW  Elec       q    Type
REMARK                         _______ _______ _______ _____ _____    ______ ____
ROOT
ATOM      1  N   UNL     1       8.122   5.279  -8.500  0.00  0.00    -0.354 N 
ATOM      2  N   UNL     1      10.180   5.224  -9.562  0.00  0.00    -0.372 N 
ATOM      3  N   UNL     1       8.576   6.677 -10.325  0.00  0.00    -0.372 N 
ATOM      4  C   UNL     1       8.945   5.729  -9.458  0.00  0.00    +0.166 C 
ATOM      5  H   UNL     1       8.451   4.537  -7.893  0.00  0.00    +0.163 HD
ATOM      6  H   UNL     1      10.824   5.546 -10.272  0.00  0.00    +0.159 HD
ATOM      7  H   UNL     1      10.522   4.516  -8.925  0.00  0.00    +0.159 HD
ATOM      8  H   UNL     1       7.655   7.094 -10.303  0.00  0.00    +0.159 HD
ATOM      9  H   UNL     1       9.202   7.004 -11.050  0.00  0.00    +0.159 HD
ENDROOT
BRANCH   1  10
ATOM     10  C   UNL     1       6.777   5.800  -8.267  0.00  0.00    +0.151 C 
BRANCH  10  11
ATOM     11  C   UNL     1       6.243   5.226  -6.983  0.00  0.00    -0.028 A 
ATOM     12  C   UNL     1       5.651   6.058  -6.023  0.00  0.00    +0.005 A 
ATOM     13  C   UNL     1       6.322   3.849  -6.725  0.00  0.00    +0.005 A 
ATOM     14  C   UNL     1       5.129   5.521  -4.843  0.00  0.00    +0.000 A 
ATOM     15  C   UNL     1       5.800   3.317  -5.546  0.00  0.00    +0.000 A 
ATOM     16  C   UNL     1       5.201   4.153  -4.607  0.00  0.00    +0.000 A 
ENDBRANCH  10  11
ENDBRANCH   1  10
TORSDOF 2
ENDMDL
MODEL 8
REMARK VINA RESULT:    -4.318      2.666      4.047
REMARK INTER + INTRA:          -4.811
REMARK INTER:                  -4.657
REMARK INTRA:                  -0.153
REMARK UNBOUND:                 0.012
REMARK  Name = 1550473
REMARK  2 active torsions:
REMARK  status: ('A' for Active; 'I' for Inactive)
REMARK    1  A    between atoms: N_1  and  C_4
REMARK    2  A    between atoms: C_4  and  C_5
REMARK                            x       y       z     vdW  Elec       q    Type
REMARK                         _______ _______ _______ _____ _____    ______ ____
ROOT
ATOM      1  N   UNL     1       4.824   5.315  -7.215  0.00  0.00    -0.354 N 
ATOM      2  N   UNL     1       6.056   3.357  -7.115  0.00  0.00    -0.372 N 
ATOM      3  N   UNL     1       3.769   3.223  -7.239  0.00  0.00    -0.372 N 
ATOM      4  C   UNL     1       4.872   3.977  -7.190  0.00  0.00    +0.166 C 
ATOM      5  H   UNL     1       5.694   5.830  -7.144  0.00  0.00    +0.163 HD
ATOM      6  H   UNL     1       6.125   2.348  -7.098  0.00  0.00    +0.159 HD
ATOM      7  H   UNL     1       6.928   3.873  -7.091  0.00  0.00    +0.159 HD
ATOM      8  H   UNL     1       2.845   3.629  -7.290  0.00  0.00    +0.159 HD
ATOM      9  H   UNL     1       3.816   2.212  -7.211  0.00  0.00    +0.159 HD
ENDROOT
BRANCH   1  10
ATOM     10  C   UNL     1       3.589   6.086  -7.349  0.00  0.00    +0.151 C 
BRANCH  10  11
ATOM     11  C   UNL     1       3.579   6.767  -8.690  0.00  0.00    -0.028 A 
ATOM     12  C   UNL     1       4.675   7.538  -9.105  0.00  0.00    +0.005 A 
ATOM     13  C   UNL     1       2.479   6.642  -9.552  0.00  0.00    +0.005 A 
ATOM     14  C   UNL     1       4.679   8.146 -10.363  0.00  0.00    +0.000 A 
ATOM     15  C   UNL     1       2.486   7.251 -10.806  0.00  0.00    +0.000 A 
ATOM     16  C   UNL     1       3.587   8.001 -11.212  0.00  0.00    +0.000 A 
ENDBRANCH  10  11
ENDBRANCH   1  10
TORSDOF 2
ENDMDL
MODEL 9
REMARK VINA RESULT:    -4.304     41.316     42.434
REMARK INTER + INTRA:          -4.795
REMARK INTER:                  -4.690
REMARK INTRA:                  -0.105
REMARK UNBOUND:                 0.012
REMARK  Name = 1550473
REMARK  2 active torsions:
REMARK  status: ('A' for Active; 'I' for Inactive)
REMARK    1  A    between atoms: N_1  and  C_4
REMARK    2  A    between atoms: C_4  and  C_5
REMARK                            x       y       z     vdW  Elec       q    Type
REMARK                         _______ _______ _______ _____ _____    ______ ____
ROOT
ATOM      1  N   UNL     1     -15.938 -31.746  -8.206  0.00  0.00    -0.354 N 
ATOM      2  N   UNL     1     -13.986 -31.842  -6.963  0.00  0.00    -0.372 N 
ATOM      3  N   UNL     1     -15.302 -33.716  -7.108  0.00  0.00    -0.372 N 
ATOM      4  C   UNL     1     -15.089 -32.437  -7.433  0.00  0.00    +0.166 C 
ATOM      5  H   UNL     1     -15.735 -30.770  -8.392  0.00  0.00    +0.163 HD
ATOM      6  H   UNL     1     -13.326 -32.339  -6.380  0.00  0.00    +0.159 HD
ATOM      7  H   UNL     1     -13.763 -30.880  -7.188  0.00  0.00    +0.159 HD
ATOM      8  H   UNL     1     -16.119 -34.221  -7.426  0.00  0.00    +0.159 HD
ATOM      9  H   UNL     1     -14.659 -34.227  -6.517  0.00  0.00    +0.159 HD
ENDROOT
BRANCH   1  10
ATOM     10  C   UNL     1     -17.140 -32.316  -8.813  0.00  0.00    +0.151 C 
BRANCH  10  11
ATOM     11  C   UNL     1     -17.779 -31.283  -9.700  0.00  0.00    -0.028 A 
ATOM     12  C   UNL     1     -18.185 -31.614 -11.001  0.00  0.00    +0.005 A 
ATOM     13  C   UNL     1     -17.987 -29.973  -9.242  0.00  0.00    +0.005 A 
ATOM     14  C   UNL     1     -18.807 -30.663 -11.814  0.00  0.00    +0.000 A 
ATOM     15  C   UNL     1     -18.608 -29.026 -10.057  0.00  0.00    +0.000 A 
ATOM     16  C   UNL     1     -19.019 -29.372 -11.342  0.00  0.00    +0.000 A 
ENDBRANCH  10  11
ENDBRANCH   1  10
TORSDOF 2
ENDMDL
