MODEL 1
REMARK VINA RESULT:    -5.653      0.000      0.000
REMARK INTER + INTRA:          -6.422
REMARK INTER:                  -6.314
REMARK INTRA:                  -0.108
REMARK UNBOUND:                -0.108
REMARK  Name = 1550473
REMARK  2 active torsions:
REMARK  status: ('A' for Active; 'I' for Inactive)
REMARK    1  A    between atoms: N_1  and  C_4
REMARK    2  A    between atoms: C_4  and  C_5
REMARK                            x       y       z     vdW  Elec       q    Type
REMARK                         _______ _______ _______ _____ _____    ______ ____
ROOT
ATOM      1  N   UNL     1       3.135  -4.765  -7.430  0.00  0.00    -0.354 N 
ATOM      2  N   UNL     1       4.125  -6.341  -8.808  0.00  0.00    -0.372 N 
ATOM      3  N   UNL     1       4.760  -6.238  -6.605  0.00  0.00    -0.372 N 
ATOM      4  C   UNL     1       4.002  -5.771  -7.603  0.00  0.00    +0.166 C 
ATOM      5  H   UNL     1       2.611  -4.437  -8.234  0.00  0.00    +0.163 HD
ATOM      6  H   UNL     1       4.768  -7.105  -8.968  0.00  0.00    +0.159 HD
ATOM      7  H   UNL     1       3.567  -6.042  -9.598  0.00  0.00    +0.159 HD
ATOM      8  H   UNL     1       4.719  -5.847  -5.674  0.00  0.00    +0.159 HD
ATOM      9  H   UNL     1       5.419  -6.993  -6.748  0.00  0.00    +0.159 HD
ENDROOT
BRANCH   1  10
ATOM     10  C   UNL     1       2.886  -4.111  -6.146  0.00  0.00    +0.151 C 
BRANCH  10  11
ATOM     11  C   UNL     1       1.795  -3.091  -6.318  0.00  0.00    -0.028 A 
ATOM     12  C   UNL     1       0.773  -2.974  -5.364  0.00  0.00    +0.005 A 
ATOM     13  C   UNL     1       1.780  -2.234  -7.429  0.00  0.00    +0.005 A 
ATOM     14  C   UNL     1      -0.224  -2.007  -5.507  0.00  0.00    +0.000 A 
ATOM     15  C   UNL     1       0.782  -1.270  -7.569  0.00  0.00    +0.000 A 
ATOM     16  C   UNL     1      -0.219  -1.155  -6.607  0.00  0.00    +0.000 A 
ENDBRANCH  10  11
ENDBRANCH   1  10
TORSDOF 2
ENDMDL
MODEL 2
REMARK VINA RESULT:    -5.542      1.121      1.874
REMARK INTER + INTRA:          -6.298
REMARK INTER:                  -6.163
REMARK INTRA:                  -0.135
REMARK UNBOUND:                -0.108
REMARK  Name = 1550473
REMARK  2 active torsions:
REMARK  status: ('A' for Active; 'I' for Inactive)
REMARK    1  A    between atoms: N_1  and  C_4
REMARK    2  A    between atoms: C_4  and  C_5
REMARK                            x       y       z     vdW  Elec       q    Type
REMARK                         _______ _______ _______ _____ _____    ______ ____
ROOT
ATOM      1  N   UNL     1       3.050  -4.995  -5.759  0.00  0.00    -0.354 N 
ATOM      2  N   UNL     1       4.402  -6.630  -6.686  0.00  0.00    -0.372 N 
ATOM      3  N   UNL     1       5.382  -4.885  -5.565  0.00  0.00    -0.372 N 
ATOM      4  C   UNL     1       4.271  -5.491  -5.997  0.00  0.00    +0.166 C 
ATOM      5  H   UNL     1       2.249  -5.486  -6.140  0.00  0.00    +0.163 HD
ATOM      6  H   UNL     1       5.311  -7.031  -6.878  0.00  0.00    +0.159 HD
ATOM      7  H   UNL     1       3.598  -7.143  -7.026  0.00  0.00    +0.159 HD
ATOM      8  H   UNL     1       5.352  -4.019  -5.044  0.00  0.00    +0.159 HD
ATOM      9  H   UNL     1       6.302  -5.264  -5.756  0.00  0.00    +0.159 HD
ENDROOT
BRANCH   1  10
ATOM     10  C   UNL     1       2.795  -3.790  -4.972  0.00  0.00    +0.151 C 
BRANCH  10  11
ATOM     11  C   UNL     1       1.768  -2.949  -5.679  0.00  0.00    -0.028 A 
ATOM     12  C   UNL     1       1.954  -2.573  -7.017  0.00  0.00    +0.005 A 
ATOM     13  C   UNL     1       0.603  -2.531  -5.018  0.00  0.00    +0.005 A 
ATOM     14  C   UNL     1       0.985  -1.818  -7.683  0.00  0.00    +0.000 A 
ATOM     15  C   UNL     1      -0.362  -1.777  -5.686  0.00  0.00    +0.000 A 
ATOM     16  C   UNL     1      -0.171  -1.422  -7.019  0.00  0.00    +0.000 A 
ENDBRANCH  10  11
ENDBRANCH   1  10
TORSDOF 2
ENDMDL
MODEL 3
REMARK VINA RESULT:    -5.097      1.509      2.470
REMARK INTER + INTRA:          -5.801
REMARK INTER:                  -5.635
REMARK INTRA:                  -0.165
REMARK UNBOUND:                -0.108
REMARK  Name = 1550473
REMARK  2 active torsions:
REMARK  status: ('A' for Active; 'I' for Inactive)
REMARK    1  A    between atoms: N_1  and  C_4
REMARK    2  A    between atoms: C_4  and  C_5
REMARK                            x       y       z     vdW  Elec       q    Type
REMARK                         _______ _______ _______ _____ _____    ______ ____
ROOT
ATOM      1  N   UNL     1       4.556  -6.022  -6.575  0.00  0.00    -0.354 N 
ATOM      2  N   UNL     1       4.548  -8.222  -7.298  0.00  0.00    -0.372 N 
ATOM      3  N   UNL     1       4.327  -6.544  -8.848  0.00  0.00    -0.372 N 
ATOM      4  C   UNL     1       4.476  -6.914  -7.571  0.00  0.00    +0.166 C 
ATOM      5  H   UNL     1       4.639  -6.368  -5.625  0.00  0.00    +0.163 HD
ATOM      6  H   UNL     1       4.494  -8.918  -8.030  0.00  0.00    +0.159 HD
ATOM      7  H   UNL     1       4.676  -8.563  -6.354  0.00  0.00    +0.159 HD
ATOM      8  H   UNL     1       4.260  -5.573  -9.120  0.00  0.00    +0.159 HD
ATOM      9  H   UNL     1       4.259  -7.226  -9.593  0.00  0.00    +0.159 HD
ENDROOT
BRANCH   1  10
ATOM     10  C   UNL     1       4.544  -4.574  -6.771  0.00  0.00    +0.151 C 
BRANCH  10  11
ATOM     11  C   UNL     1       3.294  -4.006  -6.157  0.00  0.00    -0.028 A 
ATOM     12  C   UNL     1       2.126  -3.865  -6.921  0.00  0.00    +0.005 A 
ATOM     13  C   UNL     1       3.268  -3.613  -4.810  0.00  0.00    +0.005 A 
ATOM     14  C   UNL     1       0.956  -3.366  -6.344  0.00  0.00    +0.000 A 
ATOM     15  C   UNL     1       2.098  -3.114  -4.238  0.00  0.00    +0.000 A 
ATOM     16  C   UNL     1       0.942  -2.993  -5.004  0.00  0.00    +0.000 A 
ENDBRANCH  10  11
ENDBRANCH   1  10
TORSDOF 2
ENDMDL
MODEL 4
REMARK VINA RESULT:    -4.930      2.633      4.093
REMARK INTER + INTRA:          -5.615
REMARK INTER:                  -5.441
REMARK INTRA:                  -0.174
REMARK UNBOUND:                -0.108
REMARK  Name = 1550473
REMARK  2 active torsions:
REMARK  status: ('A' for Active; 'I' for Inactive)
REMARK    1  A    between atoms: N_1  and  C_4
REMARK    2  A    between atoms: C_4  and  C_5
REMARK                            x       y       z     vdW  Elec       q    Type
REMARK                         _______ _______ _______ _____ _____    ______ ____
ROOT
ATOM      1  N   UNL     1       1.240  -2.703  -8.599  0.00  0.00    -0.354 N 
ATOM      2  N   UNL     1       0.319  -3.566 -10.541  0.00  0.00    -0.372 N 
ATOM      3  N   UNL     1      -0.932  -3.582  -8.618  0.00  0.00    -0.372 N 
ATOM      4  C   UNL     1       0.213  -3.279  -9.238  0.00  0.00    +0.166 C 
ATOM      5  H   UNL     1       2.092  -2.526  -9.118  0.00  0.00    +0.163 HD
ATOM      6  H   UNL     1      -0.440  -3.997 -11.050  0.00  0.00    +0.159 HD
ATOM      7  H   UNL     1       1.155  -3.346 -11.068  0.00  0.00    +0.159 HD
ATOM      8  H   UNL     1      -1.074  -3.397  -7.634  0.00  0.00    +0.159 HD
ATOM      9  H   UNL     1      -1.700  -4.025  -9.108  0.00  0.00    +0.159 HD
ENDROOT
BRANCH   1  10
ATOM     10  C   UNL     1       1.206  -2.300  -7.194  0.00  0.00    +0.151 C 
BRANCH  10  11
ATOM     11  C   UNL     1       1.809  -3.393  -6.355  0.00  0.00    -0.028 A 
ATOM     12  C   UNL     1       1.036  -4.066  -5.398  0.00  0.00    +0.005 A 
ATOM     13  C   UNL     1       3.153  -3.765  -6.517  0.00  0.00    +0.005 A 
ATOM     14  C   UNL     1       1.587  -5.101  -4.640  0.00  0.00    +0.000 A 
ATOM     15  C   UNL     1       3.700  -4.799  -5.758  0.00  0.00    +0.000 A 
ATOM     16  C   UNL     1       2.916  -5.468  -4.821  0.00  0.00    +0.000 A 
ENDBRANCH  10  11
ENDBRANCH   1  10
TORSDOF 2
ENDMDL
MODEL 5
REMARK VINA RESULT:    -4.868      3.981      5.213
REMARK INTER + INTRA:          -5.545
REMARK INTER:                  -5.405
REMARK INTRA:                  -0.140
REMARK UNBOUND:                -0.108
REMARK  Name = 1550473
REMARK  2 active torsions:
REMARK  status: ('A' for Active; 'I' for Inactive)
REMARK    1  A    between atoms: N_1  and  C_4
REMARK    2  A    between atoms: C_4  and  C_5
REMARK                            x       y       z     vdW  Elec       q    Type
REMARK                         _______ _______ _______ _____ _____    ______ ____
ROOT
ATOM      1  N   UNL     1       6.134  -6.835  -8.142  0.00  0.00    -0.354 N 
ATOM      2  N   UNL     1       5.567  -8.954  -8.884  0.00  0.00    -0.372 N 
ATOM      3  N   UNL     1       4.026  -7.264  -9.071  0.00  0.00    -0.372 N 
ATOM      4  C   UNL     1       5.243  -7.669  -8.695  0.00  0.00    +0.166 C 
ATOM      5  H   UNL     1       7.029  -7.211  -7.851  0.00  0.00    +0.163 HD
ATOM      6  H   UNL     1       4.917  -9.607  -9.302  0.00  0.00    +0.159 HD
ATOM      7  H   UNL     1       6.478  -9.317  -8.634  0.00  0.00    +0.159 HD
ATOM      8  H   UNL     1       3.718  -6.309  -8.950  0.00  0.00    +0.159 HD
ATOM      9  H   UNL     1       3.357  -7.905  -9.481  0.00  0.00    +0.159 HD
ENDROOT
BRANCH   1  10
ATOM     10  C   UNL     1       5.901  -5.406  -7.942  0.00  0.00    +0.151 C 
BRANCH  10  11
ATOM     11  C   UNL     1       5.994  -5.094  -6.474  0.00  0.00    -0.028 A 
ATOM     12  C   UNL     1       7.057  -5.592  -5.706  0.00  0.00    +0.005 A 
ATOM     13  C   UNL     1       5.026  -4.296  -5.845  0.00  0.00    +0.005 A 
ATOM     14  C   UNL     1       7.161  -5.278  -4.349  0.00  0.00    +0.000 A 
ATOM     15  C   UNL     1       5.133  -3.985  -4.490  0.00  0.00    +0.000 A 
ATOM     16  C   UNL     1       6.201  -4.474  -3.742  0.00  0.00    +0.000 A 
ENDBRANCH  10  11
ENDBRANCH   1  10
TORSDOF 2
ENDMDL
MODEL 6
REMARK VINA RESULT:    -4.849      7.503      9.046
REMARK INTER + INTRA:          -5.524
REMARK INTER:                  -5.342
REMARK INTRA:                  -0.182
REMARK UNBOUND:                -0.108
REMARK  Name = 1550473
REMARK  2 active torsions:
REMARK  status: ('A' for Active; 'I' for Inactive)
REMARK    1  A    between atoms: N_1  and  C_4
REMARK    2  A    between atoms: C_4  and  C_5
REMARK                            x       y       z     vdW  Elec       q    Type
REMARK                         _______ _______ _______ _____ _____    ______ ____
ROOT
ATOM      1  N   UNL     1       3.754   5.393  -7.404  0.00  0.00    -0.354 N 
ATOM      2  N   UNL     1       5.174   6.060  -5.700  0.00  0.00    -0.372 N 
ATOM      3  N   UNL     1       5.968   6.018  -7.853  0.00  0.00    -0.372 N 
ATOM      4  C   UNL     1       4.958   5.819  -6.999  0.00  0.00    +0.166 C 
ATOM      5  H   UNL     1       3.040   5.233  -6.703  0.00  0.00    +0.163 HD
ATOM      6  H   UNL     1       6.071   6.385  -5.365  0.00  0.00    +0.159 HD
ATOM      7  H   UNL     1       4.445   5.942  -5.008  0.00  0.00    +0.159 HD
ATOM      8  H   UNL     1       5.871   5.850  -8.845  0.00  0.00    +0.159 HD
ATOM      9  H   UNL     1       6.876   6.333  -7.535  0.00  0.00    +0.159 HD
ENDROOT
BRANCH   1  10
ATOM     10  C   UNL     1       3.399   5.154  -8.802  0.00  0.00    +0.151 C 
BRANCH  10  11
ATOM     11  C   UNL     1       3.431   3.675  -9.070  0.00  0.00    -0.028 A 
ATOM     12  C   UNL     1       4.446   3.117  -9.862  0.00  0.00    +0.005 A 
ATOM     13  C   UNL     1       2.454   2.825  -8.531  0.00  0.00    +0.005 A 
ATOM     14  C   UNL     1       4.493   1.739 -10.087  0.00  0.00    +0.000 A 
ATOM     15  C   UNL     1       2.504   1.450  -8.759  0.00  0.00    +0.000 A 
ATOM     16  C   UNL     1       3.525   0.907  -9.535  0.00  0.00    +0.000 A 
ENDBRANCH  10  11
ENDBRANCH   1  10
TORSDOF 2
ENDMDL
MODEL 7
REMARK VINA RESULT:    -4.805      3.102      5.314
REMARK INTER + INTRA:          -5.475
REMARK INTER:                  -5.332
REMARK INTRA:                  -0.143
REMARK UNBOUND:                -0.108
REMARK  Name = 1550473
REMARK  2 active torsions:
REMARK  status: ('A' for Active; 'I' for Inactive)
REMARK    1  A    between atoms: N_1  and  C_4
REMARK    2  A    between atoms: C_4  and  C_5
REMARK                            x       y       z     vdW  Elec       q    Type
REMARK                         _______ _______ _______ _____ _____    ______ ____
ROOT
ATOM      1  N   UNL     1      -0.072  -2.537  -6.297  0.00  0.00    -0.354 N 
ATOM      2  N   UNL     1      -1.722  -1.209  -5.359  0.00  0.00    -0.372 N 
ATOM      3  N   UNL     1       0.182  -0.211  -6.161  0.00  0.00    -0.372 N 
ATOM      4  C   UNL     1      -0.524  -1.325  -5.945  0.00  0.00    +0.166 C 
ATOM      5  H   UNL     1      -0.642  -3.345  -6.078  0.00  0.00    +0.163 HD
ATOM      6  H   UNL     1      -2.091  -0.308  -5.086  0.00  0.00    +0.159 HD
ATOM      7  H   UNL     1      -2.310  -2.015  -5.183  0.00  0.00    +0.159 HD
ATOM      8  H   UNL     1       1.096  -0.231  -6.594  0.00  0.00    +0.159 HD
ATOM      9  H   UNL     1      -0.165   0.699  -5.884  0.00  0.00    +0.159 HD
ENDROOT
BRANCH   1  10
ATOM     10  C   UNL     1       1.195  -2.767  -6.989  0.00  0.00    +0.151 C 
BRANCH  10  11
ATOM     11  C   UNL     1       1.944  -3.867  -6.289  0.00  0.00    -0.028 A 
ATOM     12  C   UNL     1       3.209  -4.268  -6.744  0.00  0.00    +0.005 A 
ATOM     13  C   UNL     1       1.398  -4.508  -5.167  0.00  0.00    +0.005 A 
ATOM     14  C   UNL     1       3.919  -5.269  -6.076  0.00  0.00    +0.000 A 
ATOM     15  C   UNL     1       2.109  -5.507  -4.503  0.00  0.00    +0.000 A 
ATOM     16  C   UNL     1       3.371  -5.886  -4.957  0.00  0.00    +0.000 A 
ENDBRANCH  10  11
ENDBRANCH   1  10
TORSDOF 2
ENDMDL
MODEL 8
REMARK VINA RESULT:    -4.665      3.926      5.197
REMARK INTER + INTRA:          -5.319
REMARK INTER:                  -5.185
REMARK INTRA:                  -0.134
REMARK UNBOUND:                -0.108
REMARK  Name = 1550473
REMARK  2 active torsions:
REMARK  status: ('A' for Active; 'I' for Inactive)
REMARK    1  A    between atoms: N_1  and  C_4
REMARK    2  A    between atoms: C_4  and  C_5
REMARK                            x       y       z     vdW  Elec       q    Type
REMARK                         _______ _______ _______ _____ _____    ______ ____
ROOT
ATOM      1  N   UNL     1       5.063  -6.800  -8.000  0.00  0.00    -0.354 N 
ATOM      2  N   UNL     1       4.955  -8.988  -8.751  0.00  0.00    -0.372 N 
ATOM      3  N   UNL     1       6.576  -7.603  -9.599  0.00  0.00    -0.372 N 
ATOM      4  C   UNL     1       5.534  -7.782  -8.780  0.00  0.00    +0.166 C 
ATOM      5  H   UNL     1       4.251  -6.990  -7.424  0.00  0.00    +0.163 HD
ATOM      6  H   UNL     1       5.291  -9.749  -9.325  0.00  0.00    +0.159 HD
ATOM      7  H   UNL     1       4.173  -9.189  -8.140  0.00  0.00    +0.159 HD
ATOM      8  H   UNL     1       7.054  -6.715  -9.672  0.00  0.00    +0.159 HD
ATOM      9  H   UNL     1       6.920  -8.349 -10.190  0.00  0.00    +0.159 HD
ENDROOT
BRANCH   1  10
ATOM     10  C   UNL     1       5.655  -5.465  -7.918  0.00  0.00    +0.151 C 
BRANCH  10  11
ATOM     11  C   UNL     1       5.894  -5.123  -6.473  0.00  0.00    -0.028 A 
ATOM     12  C   UNL     1       5.008  -4.280  -5.785  0.00  0.00    +0.005 A 
ATOM     13  C   UNL     1       7.001  -5.642  -5.785  0.00  0.00    +0.005 A 
ATOM     14  C   UNL     1       5.213  -3.986  -4.435  0.00  0.00    +0.000 A 
ATOM     15  C   UNL     1       7.203  -5.345  -4.437  0.00  0.00    +0.000 A 
ATOM     16  C   UNL     1       6.307  -4.519  -3.762  0.00  0.00    +0.000 A 
ENDBRANCH  10  11
ENDBRANCH   1  10
TORSDOF 2
ENDMDL
MODEL 9
REMARK VINA RESULT:    -4.644      1.731      2.561
REMARK INTER + INTRA:          -5.295
REMARK INTER:                  -5.159
REMARK INTRA:                  -0.136
REMARK UNBOUND:                -0.108
REMARK  Name = 1550473
REMARK  2 active torsions:
REMARK  status: ('A' for Active; 'I' for Inactive)
REMARK    1  A    between atoms: N_1  and  C_4
REMARK    2  A    between atoms: C_4  and  C_5
REMARK                            x       y       z     vdW  Elec       q    Type
REMARK                         _______ _______ _______ _____ _____    ______ ____
ROOT
ATOM      1  N   UNL     1       5.333  -4.943  -6.273  0.00  0.00    -0.354 N 
ATOM      2  N   UNL     1       7.344  -5.838  -5.553  0.00  0.00    -0.372 N 
ATOM      3  N   UNL     1       5.852  -7.198  -6.643  0.00  0.00    -0.372 N 
ATOM      4  C   UNL     1       6.162  -5.990  -6.162  0.00  0.00    +0.166 C 
ATOM      5  H   UNL     1       5.613  -4.061  -5.861  0.00  0.00    +0.163 HD
ATOM      6  H   UNL     1       7.991  -6.608  -5.457  0.00  0.00    +0.159 HD
ATOM      7  H   UNL     1       7.641  -4.944  -5.182  0.00  0.00    +0.159 HD
ATOM      8  H   UNL     1       4.973  -7.380  -7.109  0.00  0.00    +0.159 HD
ATOM      9  H   UNL     1       6.482  -7.985  -6.547  0.00  0.00    +0.159 HD
ENDROOT
BRANCH   1  10
ATOM     10  C   UNL     1       4.046  -4.989  -6.966  0.00  0.00    +0.151 C 
BRANCH  10  11
ATOM     11  C   UNL     1       3.057  -4.136  -6.222  0.00  0.00    -0.028 A 
ATOM     12  C   UNL     1       3.266  -3.815  -4.873  0.00  0.00    +0.005 A 
ATOM     13  C   UNL     1       1.910  -3.640  -6.861  0.00  0.00    +0.005 A 
ATOM     14  C   UNL     1       2.363  -2.998  -4.189  0.00  0.00    +0.000 A 
ATOM     15  C   UNL     1       1.010  -2.825  -6.175  0.00  0.00    +0.000 A 
ATOM     16  C   UNL     1       1.238  -2.502  -4.840  0.00  0.00    +0.000 A 
ENDBRANCH  10  11
ENDBRANCH   1  10
TORSDOF 2
ENDMDL
