MODEL 1
REMARK VINA RESULT:    -4.454      0.000      0.000
REMARK INTER + INTRA:          -5.066
REMARK INTER:                  -4.975
REMARK INTRA:                  -0.091
REMARK UNBOUND:                -0.091
REMARK  Name = 1550473
REMARK  2 active torsions:
REMARK  status: ('A' for Active; 'I' for Inactive)
REMARK    1  A    between atoms: N_1  and  C_4
REMARK    2  A    between atoms: C_4  and  C_5
REMARK                            x       y       z     vdW  Elec       q    Type
REMARK                         _______ _______ _______ _____ _____    ______ ____
ROOT
ATOM      1  N   UNL     1       5.680  11.020  -2.617  0.00  0.00    -0.354 N 
ATOM      2  N   UNL     1       4.720  13.041  -2.018  0.00  0.00    -0.372 N 
ATOM      3  N   UNL     1       6.230  12.064  -0.592  0.00  0.00    -0.372 N 
ATOM      4  C   UNL     1       5.551  12.028  -1.744  0.00  0.00    +0.166 C 
ATOM      5  H   UNL     1       5.115  11.036  -3.458  0.00  0.00    +0.163 HD
ATOM      6  H   UNL     1       4.605  13.817  -1.380  0.00  0.00    +0.159 HD
ATOM      7  H   UNL     1       4.191  13.077  -2.881  0.00  0.00    +0.159 HD
ATOM      8  H   UNL     1       6.868  11.327  -0.324  0.00  0.00    +0.159 HD
ATOM      9  H   UNL     1       6.119  12.826   0.064  0.00  0.00    +0.159 HD
ENDROOT
BRANCH   1  10
ATOM     10  C   UNL     1       6.598   9.896  -2.439  0.00  0.00    +0.151 C 
BRANCH  10  11
ATOM     11  C   UNL     1       6.466   8.963  -3.611  0.00  0.00    -0.028 A 
ATOM     12  C   UNL     1       5.498   7.948  -3.608  0.00  0.00    +0.005 A 
ATOM     13  C   UNL     1       7.303   9.093  -4.730  0.00  0.00    +0.005 A 
ATOM     14  C   UNL     1       5.355   7.101  -4.710  0.00  0.00    +0.000 A 
ATOM     15  C   UNL     1       7.158   8.244  -5.828  0.00  0.00    +0.000 A 
ATOM     16  C   UNL     1       6.182   7.250  -5.818  0.00  0.00    +0.000 A 
ENDBRANCH  10  11
ENDBRANCH   1  10
TORSDOF 2
ENDMDL
MODEL 2
REMARK VINA RESULT:    -4.439      2.454      3.540
REMARK INTER + INTRA:          -5.050
REMARK INTER:                  -4.894
REMARK INTRA:                  -0.156
REMARK UNBOUND:                -0.091
REMARK  Name = 1550473
REMARK  2 active torsions:
REMARK  status: ('A' for Active; 'I' for Inactive)
REMARK    1  A    between atoms: N_1  and  C_4
REMARK    2  A    between atoms: C_4  and  C_5
REMARK                            x       y       z     vdW  Elec       q    Type
REMARK                         _______ _______ _______ _____ _____    ______ ____
ROOT
ATOM      1  N   UNL     1       5.605   8.398  -2.973  0.00  0.00    -0.354 N 
ATOM      2  N   UNL     1       6.948  10.226  -2.509  0.00  0.00    -0.372 N 
ATOM      3  N   UNL     1       7.867   8.421  -3.587  0.00  0.00    -0.372 N 
ATOM      4  C   UNL     1       6.800   9.001  -3.027  0.00  0.00    +0.166 C 
ATOM      5  H   UNL     1       4.843   8.878  -2.509  0.00  0.00    +0.163 HD
ATOM      6  H   UNL     1       7.837  10.708  -2.538  0.00  0.00    +0.159 HD
ATOM      7  H   UNL     1       6.174  10.723  -2.086  0.00  0.00    +0.159 HD
ATOM      8  H   UNL     1       7.822   7.495  -3.991  0.00  0.00    +0.159 HD
ATOM      9  H   UNL     1       8.767   8.883  -3.615  0.00  0.00    +0.159 HD
ENDROOT
BRANCH   1  10
ATOM     10  C   UNL     1       5.325   7.087  -3.556  0.00  0.00    +0.151 C 
BRANCH  10  11
ATOM     11  C   UNL     1       4.260   7.234  -4.608  0.00  0.00    -0.028 A 
ATOM     12  C   UNL     1       2.978   6.703  -4.403  0.00  0.00    +0.005 A 
ATOM     13  C   UNL     1       4.525   7.909  -5.809  0.00  0.00    +0.005 A 
ATOM     14  C   UNL     1       1.980   6.866  -5.367  0.00  0.00    +0.000 A 
ATOM     15  C   UNL     1       3.526   8.069  -6.770  0.00  0.00    +0.000 A 
ATOM     16  C   UNL     1       2.253   7.549  -6.547  0.00  0.00    +0.000 A 
ENDBRANCH  10  11
ENDBRANCH   1  10
TORSDOF 2
ENDMDL
MODEL 3
REMARK VINA RESULT:    -4.391     18.019     18.950
REMARK INTER + INTRA:          -4.995
REMARK INTER:                  -4.895
REMARK INTRA:                  -0.101
REMARK UNBOUND:                -0.091
REMARK  Name = 1550473
REMARK  2 active torsions:
REMARK  status: ('A' for Active; 'I' for Inactive)
REMARK    1  A    between atoms: N_1  and  C_4
REMARK    2  A    between atoms: C_4  and  C_5
REMARK                            x       y       z     vdW  Elec       q    Type
REMARK                         _______ _______ _______ _____ _____    ______ ____
ROOT
ATOM      1  N   UNL     1      13.880  -5.654   0.875  0.00  0.00    -0.354 N 
ATOM      2  N   UNL     1      14.084  -4.365  -1.039  0.00  0.00    -0.372 N 
ATOM      3  N   UNL     1      15.984  -4.987   0.087  0.00  0.00    -0.372 N 
ATOM      4  C   UNL     1      14.651  -5.011  -0.012  0.00  0.00    +0.166 C 
ATOM      5  H   UNL     1      12.874  -5.609   0.760  0.00  0.00    +0.163 HD
ATOM      6  H   UNL     1      14.640  -3.874  -1.726  0.00  0.00    +0.159 HD
ATOM      7  H   UNL     1      13.080  -4.360  -1.176  0.00  0.00    +0.159 HD
ATOM      8  H   UNL     1      16.473  -5.449   0.842  0.00  0.00    +0.159 HD
ATOM      9  H   UNL     1      16.557  -4.491  -0.584  0.00  0.00    +0.159 HD
ENDROOT
BRANCH   1  10
ATOM     10  C   UNL     1      14.401  -6.432   1.997  0.00  0.00    +0.151 C 
BRANCH  10  11
ATOM     11  C   UNL     1      13.248  -6.967   2.801  0.00  0.00    -0.028 A 
ATOM     12  C   UNL     1      13.121  -6.651   4.161  0.00  0.00    +0.005 A 
ATOM     13  C   UNL     1      12.276  -7.787   2.206  0.00  0.00    +0.005 A 
ATOM     14  C   UNL     1      12.034  -7.123   4.901  0.00  0.00    +0.000 A 
ATOM     15  C   UNL     1      11.193  -8.257   2.948  0.00  0.00    +0.000 A 
ATOM     16  C   UNL     1      11.071  -7.923   4.295  0.00  0.00    +0.000 A 
ENDBRANCH  10  11
ENDBRANCH   1  10
TORSDOF 2
ENDMDL
MODEL 4
REMARK VINA RESULT:    -4.297     21.043     21.821
REMARK INTER + INTRA:          -4.891
REMARK INTER:                  -4.786
REMARK INTRA:                  -0.105
REMARK UNBOUND:                -0.091
REMARK  Name = 1550473
REMARK  2 active torsions:
REMARK  status: ('A' for Active; 'I' for Inactive)
REMARK    1  A    between atoms: N_1  and  C_4
REMARK    2  A    between atoms: C_4  and  C_5
REMARK                            x       y       z     vdW  Elec       q    Type
REMARK                         _______ _______ _______ _____ _____    ______ ____
ROOT
ATOM      1  N   UNL     1      13.896  -8.665   8.351  0.00  0.00    -0.354 N 
ATOM      2  N   UNL     1      15.363  -7.655   9.832  0.00  0.00    -0.372 N 
ATOM      3  N   UNL     1      13.106  -7.439  10.186  0.00  0.00    -0.372 N 
ATOM      4  C   UNL     1      14.110  -7.925   9.447  0.00  0.00    +0.166 C 
ATOM      5  H   UNL     1      14.699  -8.978   7.818  0.00  0.00    +0.163 HD
ATOM      6  H   UNL     1      15.555  -7.103  10.656  0.00  0.00    +0.159 HD
ATOM      7  H   UNL     1      16.164  -8.008   9.322  0.00  0.00    +0.159 HD
ATOM      8  H   UNL     1      12.137  -7.602   9.946  0.00  0.00    +0.159 HD
ATOM      9  H   UNL     1      13.279  -6.874  11.008  0.00  0.00    +0.159 HD
ENDROOT
BRANCH   1  10
ATOM     10  C   UNL     1      12.571  -9.061   7.878  0.00  0.00    +0.151 C 
BRANCH  10  11
ATOM     11  C   UNL     1      12.296  -8.383   6.564  0.00  0.00    -0.028 A 
ATOM     12  C   UNL     1      13.147  -7.374   6.091  0.00  0.00    +0.005 A 
ATOM     13  C   UNL     1      11.188  -8.749   5.784  0.00  0.00    +0.005 A 
ATOM     14  C   UNL     1      12.909  -6.765   4.856  0.00  0.00    +0.000 A 
ATOM     15  C   UNL     1      10.953  -8.138   4.552  0.00  0.00    +0.000 A 
ATOM     16  C   UNL     1      11.815  -7.148   4.088  0.00  0.00    +0.000 A 
ENDBRANCH  10  11
ENDBRANCH   1  10
TORSDOF 2
ENDMDL
MODEL 5
REMARK VINA RESULT:    -4.212     23.236     23.658
REMARK INTER + INTRA:          -4.795
REMARK INTER:                  -4.678
REMARK INTRA:                  -0.118
REMARK UNBOUND:                -0.091
REMARK  Name = 1550473
REMARK  2 active torsions:
REMARK  status: ('A' for Active; 'I' for Inactive)
REMARK    1  A    between atoms: N_1  and  C_4
REMARK    2  A    between atoms: C_4  and  C_5
REMARK                            x       y       z     vdW  Elec       q    Type
REMARK                         _______ _______ _______ _____ _____    ______ ____
ROOT
ATOM      1  N   UNL     1      -7.112  -6.627   7.788  0.00  0.00    -0.354 N 
ATOM      2  N   UNL     1      -6.902  -6.796  10.088  0.00  0.00    -0.372 N 
ATOM      3  N   UNL     1      -5.154  -7.469   8.762  0.00  0.00    -0.372 N 
ATOM      4  C   UNL     1      -6.388  -6.964   8.864  0.00  0.00    +0.166 C 
ATOM      5  H   UNL     1      -8.053  -6.278   7.931  0.00  0.00    +0.163 HD
ATOM      6  H   UNL     1      -6.378  -7.037  10.919  0.00  0.00    +0.159 HD
ATOM      7  H   UNL     1      -7.824  -6.403  10.230  0.00  0.00    +0.159 HD
ATOM      8  H   UNL     1      -4.712  -7.626   7.867  0.00  0.00    +0.159 HD
ATOM      9  H   UNL     1      -4.619  -7.728   9.581  0.00  0.00    +0.159 HD
ENDROOT
BRANCH   1  10
ATOM     10  C   UNL     1      -6.625  -6.721   6.413  0.00  0.00    +0.151 C 
BRANCH  10  11
ATOM     11  C   UNL     1      -7.766  -6.456   5.469  0.00  0.00    -0.028 A 
ATOM     12  C   UNL     1      -7.751  -6.983   4.169  0.00  0.00    +0.005 A 
ATOM     13  C   UNL     1      -8.867  -5.684   5.871  0.00  0.00    +0.005 A 
ATOM     14  C   UNL     1      -8.824  -6.762   3.302  0.00  0.00    +0.000 A 
ATOM     15  C   UNL     1      -9.936  -5.465   5.002  0.00  0.00    +0.000 A 
ATOM     16  C   UNL     1      -9.915  -6.007   3.719  0.00  0.00    +0.000 A 
ENDBRANCH  10  11
ENDBRANCH   1  10
TORSDOF 2
ENDMDL
MODEL 6
REMARK VINA RESULT:    -4.126     18.703     19.600
REMARK INTER + INTRA:          -4.699
REMARK INTER:                  -4.573
REMARK INTRA:                  -0.126
REMARK UNBOUND:                -0.091
REMARK  Name = 1550473
REMARK  2 active torsions:
REMARK  status: ('A' for Active; 'I' for Inactive)
REMARK    1  A    between atoms: N_1  and  C_4
REMARK    2  A    between atoms: C_4  and  C_5
REMARK                            x       y       z     vdW  Elec       q    Type
REMARK                         _______ _______ _______ _____ _____    ______ ____
ROOT
ATOM      1  N   UNL     1      13.287  -6.047   1.996  0.00  0.00    -0.354 N 
ATOM      2  N   UNL     1      13.283  -5.432  -0.237  0.00  0.00    -0.372 N 
ATOM      3  N   UNL     1      15.281  -5.506   0.890  0.00  0.00    -0.372 N 
ATOM      4  C   UNL     1      13.953  -5.665   0.898  0.00  0.00    +0.166 C 
ATOM      5  H   UNL     1      12.277  -6.120   1.945  0.00  0.00    +0.163 HD
ATOM      6  H   UNL     1      13.759  -5.146  -1.082  0.00  0.00    +0.159 HD
ATOM      7  H   UNL     1      12.279  -5.550  -0.297  0.00  0.00    +0.159 HD
ATOM      8  H   UNL     1      15.844  -5.661   1.716  0.00  0.00    +0.159 HD
ATOM      9  H   UNL     1      15.774  -5.209   0.057  0.00  0.00    +0.159 HD
ENDROOT
BRANCH   1  10
ATOM     10  C   UNL     1      13.928  -6.378   3.268  0.00  0.00    +0.151 C 
BRANCH  10  11
ATOM     11  C   UNL     1      12.950  -7.128   4.130  0.00  0.00    -0.028 A 
ATOM     12  C   UNL     1      11.719  -7.551   3.608  0.00  0.00    +0.005 A 
ATOM     13  C   UNL     1      13.251  -7.423   5.468  0.00  0.00    +0.005 A 
ATOM     14  C   UNL     1      10.823  -8.274   4.400  0.00  0.00    +0.000 A 
ATOM     15  C   UNL     1      12.353  -8.144   6.256  0.00  0.00    +0.000 A 
ATOM     16  C   UNL     1      11.141  -8.571   5.721  0.00  0.00    +0.000 A 
ENDBRANCH  10  11
ENDBRANCH   1  10
TORSDOF 2
ENDMDL
MODEL 7
REMARK VINA RESULT:    -4.100     10.389     11.300
REMARK INTER + INTRA:          -4.670
REMARK INTER:                  -4.546
REMARK INTRA:                  -0.124
REMARK UNBOUND:                -0.091
REMARK  Name = 1550473
REMARK  2 active torsions:
REMARK  status: ('A' for Active; 'I' for Inactive)
REMARK    1  A    between atoms: N_1  and  C_4
REMARK    2  A    between atoms: C_4  and  C_5
REMARK                            x       y       z     vdW  Elec       q    Type
REMARK                         _______ _______ _______ _____ _____    ______ ____
ROOT
ATOM      1  N   UNL     1      14.961   8.633   3.245  0.00  0.00    -0.354 N 
ATOM      2  N   UNL     1      15.720   7.209   1.584  0.00  0.00    -0.372 N 
ATOM      3  N   UNL     1      15.713   9.469   1.189  0.00  0.00    -0.372 N 
ATOM      4  C   UNL     1      15.460   8.449   2.016  0.00  0.00    +0.166 C 
ATOM      5  H   UNL     1      14.763   7.816   3.812  0.00  0.00    +0.163 HD
ATOM      6  H   UNL     1      16.100   7.039   0.662  0.00  0.00    +0.159 HD
ATOM      7  H   UNL     1      15.564   6.397   2.169  0.00  0.00    +0.159 HD
ATOM      8  H   UNL     1      15.533  10.429   1.453  0.00  0.00    +0.159 HD
ATOM      9  H   UNL     1      16.082   9.319   0.259  0.00  0.00    +0.159 HD
ENDROOT
BRANCH   1  10
ATOM     10  C   UNL     1      14.694   9.945   3.831  0.00  0.00    +0.151 C 
BRANCH  10  11
ATOM     11  C   UNL     1      13.280   9.976   4.343  0.00  0.00    -0.028 A 
ATOM     12  C   UNL     1      12.855   9.059   5.315  0.00  0.00    +0.005 A 
ATOM     13  C   UNL     1      12.362  10.922   3.863  0.00  0.00    +0.005 A 
ATOM     14  C   UNL     1      11.550   9.106   5.813  0.00  0.00    +0.000 A 
ATOM     15  C   UNL     1      11.060  10.966   4.362  0.00  0.00    +0.000 A 
ATOM     16  C   UNL     1      10.655  10.059   5.338  0.00  0.00    +0.000 A 
ENDBRANCH  10  11
ENDBRANCH   1  10
TORSDOF 2
ENDMDL
MODEL 8
REMARK VINA RESULT:    -4.098     11.373     13.061
REMARK INTER + INTRA:          -4.668
REMARK INTER:                  -4.499
REMARK INTRA:                  -0.169
REMARK UNBOUND:                -0.091
REMARK  Name = 1550473
REMARK  2 active torsions:
REMARK  status: ('A' for Active; 'I' for Inactive)
REMARK    1  A    between atoms: N_1  and  C_4
REMARK    2  A    between atoms: C_4  and  C_5
REMARK                            x       y       z     vdW  Elec       q    Type
REMARK                         _______ _______ _______ _____ _____    ______ ____
ROOT
ATOM      1  N   UNL     1      13.484   1.300 -11.979  0.00  0.00    -0.354 N 
ATOM      2  N   UNL     1      15.114   2.138 -13.394  0.00  0.00    -0.372 N 
ATOM      3  N   UNL     1      15.656   1.716 -11.205  0.00  0.00    -0.372 N 
ATOM      4  C   UNL     1      14.742   1.713 -12.181  0.00  0.00    +0.166 C 
ATOM      5  H   UNL     1      12.831   1.350 -12.753  0.00  0.00    +0.163 HD
ATOM      6  H   UNL     1      16.058   2.453 -13.577  0.00  0.00    +0.159 HD
ATOM      7  H   UNL     1      14.472   2.144 -14.177  0.00  0.00    +0.159 HD
ATOM      8  H   UNL     1      15.437   1.413 -10.265  0.00  0.00    +0.159 HD
ATOM      9  H   UNL     1      16.602   2.038 -11.365  0.00  0.00    +0.159 HD
ENDROOT
BRANCH   1  10
ATOM     10  C   UNL     1      12.992   0.767 -10.710  0.00  0.00    +0.151 C 
BRANCH  10  11
ATOM     11  C   UNL     1      12.121   1.799 -10.048  0.00  0.00    -0.028 A 
ATOM     12  C   UNL     1      10.725   1.734 -10.164  0.00  0.00    +0.005 A 
ATOM     13  C   UNL     1      12.687   2.843  -9.299  0.00  0.00    +0.005 A 
ATOM     14  C   UNL     1       9.915   2.675  -9.525  0.00  0.00    +0.000 A 
ATOM     15  C   UNL     1      11.874   3.781  -8.663  0.00  0.00    +0.000 A 
ATOM     16  C   UNL     1      10.489   3.696  -8.774  0.00  0.00    +0.000 A 
ENDBRANCH  10  11
ENDBRANCH   1  10
TORSDOF 2
ENDMDL
MODEL 9
REMARK VINA RESULT:    -4.027     18.127     19.586
REMARK INTER + INTRA:          -4.589
REMARK INTER:                  -4.497
REMARK INTRA:                  -0.093
REMARK UNBOUND:                -0.091
REMARK  Name = 1550473
REMARK  2 active torsions:
REMARK  status: ('A' for Active; 'I' for Inactive)
REMARK    1  A    between atoms: N_1  and  C_4
REMARK    2  A    between atoms: C_4  and  C_5
REMARK                            x       y       z     vdW  Elec       q    Type
REMARK                         _______ _______ _______ _____ _____    ______ ____
ROOT
ATOM      1  N   UNL     1      -3.212   5.953  14.146  0.00  0.00    -0.354 N 
ATOM      2  N   UNL     1      -4.236   4.417  15.545  0.00  0.00    -0.372 N 
ATOM      3  N   UNL     1      -5.163   4.834  13.488  0.00  0.00    -0.372 N 
ATOM      4  C   UNL     1      -4.199   5.078  14.382  0.00  0.00    +0.166 C 
ATOM      5  H   UNL     1      -2.528   6.115  14.877  0.00  0.00    +0.163 HD
ATOM      6  H   UNL     1      -4.967   3.748  15.750  0.00  0.00    +0.159 HD
ATOM      7  H   UNL     1      -3.526   4.547  16.255  0.00  0.00    +0.159 HD
ATOM      8  H   UNL     1      -5.195   5.304  12.593  0.00  0.00    +0.159 HD
ATOM      9  H   UNL     1      -5.909   4.177  13.679  0.00  0.00    +0.159 HD
ENDROOT
BRANCH   1  10
ATOM     10  C   UNL     1      -3.050   6.684  12.891  0.00  0.00    +0.151 C 
BRANCH  10  11
ATOM     11  C   UNL     1      -1.886   7.628  13.019  0.00  0.00    -0.028 A 
ATOM     12  C   UNL     1      -0.656   7.327  12.416  0.00  0.00    +0.005 A 
ATOM     13  C   UNL     1      -2.008   8.827  13.737  0.00  0.00    +0.005 A 
ATOM     14  C   UNL     1       0.417   8.217  12.509  0.00  0.00    +0.000 A 
ATOM     15  C   UNL     1      -0.935   9.713  13.829  0.00  0.00    +0.000 A 
ATOM     16  C   UNL     1       0.276   9.409  13.213  0.00  0.00    +0.000 A 
ENDBRANCH  10  11
ENDBRANCH   1  10
TORSDOF 2
ENDMDL
