MODEL 1
REMARK VINA RESULT:    -5.335      0.000      0.000
REMARK INTER + INTRA:          -6.107
REMARK INTER:                  -5.959
REMARK INTRA:                  -0.148
REMARK UNBOUND:                -0.148
REMARK  Name = 1550473
REMARK  2 active torsions:
REMARK  status: ('A' for Active; 'I' for Inactive)
REMARK    1  A    between atoms: N_1  and  C_4
REMARK    2  A    between atoms: C_4  and  C_5
REMARK                            x       y       z     vdW  Elec       q    Type
REMARK                         _______ _______ _______ _____ _____    ______ ____
ROOT
ATOM      1  N   UNL     1       0.471  -1.127 -16.833  0.00  0.00    -0.354 N 
ATOM      2  N   UNL     1       2.443  -0.042 -16.288  0.00  0.00    -0.372 N 
ATOM      3  N   UNL     1       0.796  -0.211 -14.700  0.00  0.00    -0.372 N 
ATOM      4  C   UNL     1       1.222  -0.467 -15.942  0.00  0.00    +0.166 C 
ATOM      5  H   UNL     1       0.840  -1.262 -17.767  0.00  0.00    +0.163 HD
ATOM      6  H   UNL     1       3.035   0.456 -15.636  0.00  0.00    +0.159 HD
ATOM      7  H   UNL     1       2.828  -0.219 -17.208  0.00  0.00    +0.159 HD
ATOM      8  H   UNL     1      -0.118  -0.500 -14.378  0.00  0.00    +0.159 HD
ATOM      9  H   UNL     1       1.368   0.296 -14.037  0.00  0.00    +0.159 HD
ENDROOT
BRANCH   1  10
ATOM     10  C   UNL     1      -0.850  -1.679 -16.539  0.00  0.00    +0.151 C 
BRANCH  10  11
ATOM     11  C   UNL     1      -1.850  -1.097 -17.500  0.00  0.00    -0.028 A 
ATOM     12  C   UNL     1      -1.421  -0.403 -18.641  0.00  0.00    +0.005 A 
ATOM     13  C   UNL     1      -3.228  -1.241 -17.278  0.00  0.00    +0.005 A 
ATOM     14  C   UNL     1      -2.349   0.111 -19.550  0.00  0.00    +0.000 A 
ATOM     15  C   UNL     1      -4.152  -0.725 -18.188  0.00  0.00    +0.000 A 
ATOM     16  C   UNL     1      -3.712  -0.051 -19.324  0.00  0.00    +0.000 A 
ENDBRANCH  10  11
ENDBRANCH   1  10
TORSDOF 2
ENDMDL
MODEL 2
REMARK VINA RESULT:    -4.858     43.476     44.961
REMARK INTER + INTRA:          -5.574
REMARK INTER:                  -5.428
REMARK INTRA:                  -0.146
REMARK UNBOUND:                -0.148
REMARK  Name = 1550473
REMARK  2 active torsions:
REMARK  status: ('A' for Active; 'I' for Inactive)
REMARK    1  A    between atoms: N_1  and  C_4
REMARK    2  A    between atoms: C_4  and  C_5
REMARK                            x       y       z     vdW  Elec       q    Type
REMARK                         _______ _______ _______ _____ _____    ______ ____
ROOT
ATOM      1  N   UNL     1       5.999   6.595  28.016  0.00  0.00    -0.354 N 
ATOM      2  N   UNL     1       8.088   7.595  27.986  0.00  0.00    -0.372 N 
ATOM      3  N   UNL     1       7.877   5.443  27.217  0.00  0.00    -0.372 N 
ATOM      4  C   UNL     1       7.308   6.535  27.739  0.00  0.00    +0.166 C 
ATOM      5  H   UNL     1       5.635   7.441  28.439  0.00  0.00    +0.163 HD
ATOM      6  H   UNL     1       9.079   7.580  27.784  0.00  0.00    +0.159 HD
ATOM      7  H   UNL     1       7.713   8.455  28.366  0.00  0.00    +0.159 HD
ATOM      8  H   UNL     1       7.345   4.608  27.012  0.00  0.00    +0.159 HD
ATOM      9  H   UNL     1       8.869   5.405  27.019  0.00  0.00    +0.159 HD
ENDROOT
BRANCH   1  10
ATOM     10  C   UNL     1       5.054   5.516  27.735  0.00  0.00    +0.151 C 
BRANCH  10  11
ATOM     11  C   UNL     1       4.069   5.983  26.698  0.00  0.00    -0.028 A 
ATOM     12  C   UNL     1       3.891   5.261  25.509  0.00  0.00    +0.005 A 
ATOM     13  C   UNL     1       3.307   7.143  26.902  0.00  0.00    +0.005 A 
ATOM     14  C   UNL     1       2.955   5.677  24.560  0.00  0.00    +0.000 A 
ATOM     15  C   UNL     1       2.374   7.556  25.951  0.00  0.00    +0.000 A 
ATOM     16  C   UNL     1       2.197   6.822  24.781  0.00  0.00    +0.000 A 
ENDBRANCH  10  11
ENDBRANCH   1  10
TORSDOF 2
ENDMDL
MODEL 3
REMARK VINA RESULT:    -4.798     12.159     13.724
REMARK INTER + INTRA:          -5.507
REMARK INTER:                  -5.346
REMARK INTRA:                  -0.162
REMARK UNBOUND:                -0.148
REMARK  Name = 1550473
REMARK  2 active torsions:
REMARK  status: ('A' for Active; 'I' for Inactive)
REMARK    1  A    between atoms: N_1  and  C_4
REMARK    2  A    between atoms: C_4  and  C_5
REMARK                            x       y       z     vdW  Elec       q    Type
REMARK                         _______ _______ _______ _____ _____    ______ ____
ROOT
ATOM      1  N   UNL     1     -12.121  -4.969 -19.794  0.00  0.00    -0.354 N 
ATOM      2  N   UNL     1     -13.009  -3.293 -18.466  0.00  0.00    -0.372 N 
ATOM      3  N   UNL     1     -12.229  -2.756 -20.556  0.00  0.00    -0.372 N 
ATOM      4  C   UNL     1     -12.446  -3.682 -19.616  0.00  0.00    +0.166 C 
ATOM      5  H   UNL     1     -12.283  -5.617 -19.032  0.00  0.00    +0.163 HD
ATOM      6  H   UNL     1     -13.269  -2.329 -18.304  0.00  0.00    +0.159 HD
ATOM      7  H   UNL     1     -13.213  -3.951 -17.723  0.00  0.00    +0.159 HD
ATOM      8  H   UNL     1     -11.802  -2.983 -21.444  0.00  0.00    +0.159 HD
ATOM      9  H   UNL     1     -12.472  -1.784 -20.408  0.00  0.00    +0.159 HD
ENDROOT
BRANCH   1  10
ATOM     10  C   UNL     1     -11.552  -5.505 -21.030  0.00  0.00    +0.151 C 
BRANCH  10  11
ATOM     11  C   UNL     1     -12.523  -6.483 -21.633  0.00  0.00    -0.028 A 
ATOM     12  C   UNL     1     -12.306  -7.864 -21.518  0.00  0.00    +0.005 A 
ATOM     13  C   UNL     1     -13.664  -6.036 -22.315  0.00  0.00    +0.005 A 
ATOM     14  C   UNL     1     -13.222  -8.773 -22.052  0.00  0.00    +0.000 A 
ATOM     15  C   UNL     1     -14.577  -6.946 -22.847  0.00  0.00    +0.000 A 
ATOM     16  C   UNL     1     -14.357  -8.315 -22.713  0.00  0.00    +0.000 A 
ENDBRANCH  10  11
ENDBRANCH   1  10
TORSDOF 2
ENDMDL
MODEL 4
REMARK VINA RESULT:    -4.729     13.980     15.777
REMARK INTER + INTRA:          -5.430
REMARK INTER:                  -5.294
REMARK INTRA:                  -0.135
REMARK UNBOUND:                -0.148
REMARK  Name = 1550473
REMARK  2 active torsions:
REMARK  status: ('A' for Active; 'I' for Inactive)
REMARK    1  A    between atoms: N_1  and  C_4
REMARK    2  A    between atoms: C_4  and  C_5
REMARK                            x       y       z     vdW  Elec       q    Type
REMARK                         _______ _______ _______ _____ _____    ______ ____
ROOT
ATOM      1  N   UNL     1     -14.952  -8.205 -22.976  0.00  0.00    -0.354 N 
ATOM      2  N   UNL     1     -16.589  -8.586 -24.569  0.00  0.00    -0.372 N 
ATOM      3  N   UNL     1     -14.693  -9.878 -24.596  0.00  0.00    -0.372 N 
ATOM      4  C   UNL     1     -15.399  -8.889 -24.038  0.00  0.00    +0.166 C 
ATOM      5  H   UNL     1     -15.521  -7.446 -22.618  0.00  0.00    +0.163 HD
ATOM      6  H   UNL     1     -16.954  -9.087 -25.368  0.00  0.00    +0.159 HD
ATOM      7  H   UNL     1     -17.176  -7.858 -24.181  0.00  0.00    +0.159 HD
ATOM      8  H   UNL     1     -13.785 -10.152 -24.246  0.00  0.00    +0.159 HD
ATOM      9  H   UNL     1     -15.036 -10.384 -25.403  0.00  0.00    +0.159 HD
ENDROOT
BRANCH   1  10
ATOM     10  C   UNL     1     -13.694  -8.491 -22.289  0.00  0.00    +0.151 C 
BRANCH  10  11
ATOM     11  C   UNL     1     -13.031  -7.194 -21.917  0.00  0.00    -0.028 A 
ATOM     12  C   UNL     1     -13.728  -5.981 -22.024  0.00  0.00    +0.005 A 
ATOM     13  C   UNL     1     -11.707  -7.170 -21.452  0.00  0.00    +0.005 A 
ATOM     14  C   UNL     1     -13.123  -4.779 -21.650  0.00  0.00    +0.000 A 
ATOM     15  C   UNL     1     -11.106  -5.968 -21.080  0.00  0.00    +0.000 A 
ATOM     16  C   UNL     1     -11.815  -4.773 -21.178  0.00  0.00    +0.000 A 
ENDBRANCH  10  11
ENDBRANCH   1  10
TORSDOF 2
ENDMDL
MODEL 5
REMARK VINA RESULT:    -4.694      1.900      2.263
REMARK INTER + INTRA:          -5.391
REMARK INTER:                  -5.266
REMARK INTRA:                  -0.125
REMARK UNBOUND:                -0.148
REMARK  Name = 1550473
REMARK  2 active torsions:
REMARK  status: ('A' for Active; 'I' for Inactive)
REMARK    1  A    between atoms: N_1  and  C_4
REMARK    2  A    between atoms: C_4  and  C_5
REMARK                            x       y       z     vdW  Elec       q    Type
REMARK                         _______ _______ _______ _____ _____    ______ ____
ROOT
ATOM      1  N   UNL     1       0.215   1.374 -16.417  0.00  0.00    -0.354 N 
ATOM      2  N   UNL     1       1.640   0.954 -14.640  0.00  0.00    -0.372 N 
ATOM      3  N   UNL     1      -0.075   2.451 -14.356  0.00  0.00    -0.372 N 
ATOM      4  C   UNL     1       0.582   1.598 -15.148  0.00  0.00    +0.166 C 
ATOM      5  H   UNL     1       0.774   0.738 -16.975  0.00  0.00    +0.163 HD
ATOM      6  H   UNL     1       1.938   1.099 -13.685  0.00  0.00    +0.159 HD
ATOM      7  H   UNL     1       2.168   0.284 -15.185  0.00  0.00    +0.159 HD
ATOM      8  H   UNL     1      -0.878   2.973 -14.681  0.00  0.00    +0.159 HD
ATOM      9  H   UNL     1       0.215   2.619 -13.401  0.00  0.00    +0.159 HD
ENDROOT
BRANCH   1  10
ATOM     10  C   UNL     1      -0.953   1.984 -17.050  0.00  0.00    +0.151 C 
BRANCH  10  11
ATOM     11  C   UNL     1      -1.984   0.920 -17.305  0.00  0.00    -0.028 A 
ATOM     12  C   UNL     1      -2.458   0.684 -18.604  0.00  0.00    +0.005 A 
ATOM     13  C   UNL     1      -2.488   0.139 -16.253  0.00  0.00    +0.005 A 
ATOM     14  C   UNL     1      -3.394  -0.324 -18.846  0.00  0.00    +0.000 A 
ATOM     15  C   UNL     1      -3.423  -0.866 -16.499  0.00  0.00    +0.000 A 
ATOM     16  C   UNL     1      -3.874  -1.099 -17.796  0.00  0.00    +0.000 A 
ENDBRANCH  10  11
ENDBRANCH   1  10
TORSDOF 2
ENDMDL
MODEL 6
REMARK VINA RESULT:    -4.589     10.722     12.410
REMARK INTER + INTRA:          -5.274
REMARK INTER:                  -5.151
REMARK INTRA:                  -0.123
REMARK UNBOUND:                -0.148
REMARK  Name = 1550473
REMARK  2 active torsions:
REMARK  status: ('A' for Active; 'I' for Inactive)
REMARK    1  A    between atoms: N_1  and  C_4
REMARK    2  A    between atoms: C_4  and  C_5
REMARK                            x       y       z     vdW  Elec       q    Type
REMARK                         _______ _______ _______ _____ _____    ______ ____
ROOT
ATOM      1  N   UNL     1     -11.901  -2.963 -19.434  0.00  0.00    -0.354 N 
ATOM      2  N   UNL     1     -10.795  -1.626 -17.900  0.00  0.00    -0.372 N 
ATOM      3  N   UNL     1     -12.089  -0.628 -19.511  0.00  0.00    -0.372 N 
ATOM      4  C   UNL     1     -11.603  -1.746 -18.960  0.00  0.00    +0.166 C 
ATOM      5  H   UNL     1     -11.476  -3.769 -18.990  0.00  0.00    +0.163 HD
ATOM      6  H   UNL     1     -10.555  -0.721 -17.518  0.00  0.00    +0.159 HD
ATOM      7  H   UNL     1     -10.408  -2.436 -17.430  0.00  0.00    +0.159 HD
ATOM      8  H   UNL     1     -12.699  -0.650 -20.317  0.00  0.00    +0.159 HD
ATOM      9  H   UNL     1     -11.851   0.287 -19.150  0.00  0.00    +0.159 HD
ENDROOT
BRANCH   1  10
ATOM     10  C   UNL     1     -12.814  -3.205 -20.550  0.00  0.00    +0.151 C 
BRANCH  10  11
ATOM     11  C   UNL     1     -12.683  -4.638 -20.989  0.00  0.00    -0.028 A 
ATOM     12  C   UNL     1     -11.530  -5.374 -20.683  0.00  0.00    +0.005 A 
ATOM     13  C   UNL     1     -13.713  -5.266 -21.707  0.00  0.00    +0.005 A 
ATOM     14  C   UNL     1     -11.421  -6.713 -21.064  0.00  0.00    +0.000 A 
ATOM     15  C   UNL     1     -13.600  -6.603 -22.087  0.00  0.00    +0.000 A 
ATOM     16  C   UNL     1     -12.455  -7.327 -21.763  0.00  0.00    +0.000 A 
ENDBRANCH  10  11
ENDBRANCH   1  10
TORSDOF 2
ENDMDL
MODEL 7
REMARK VINA RESULT:    -4.453      1.606      2.238
REMARK INTER + INTRA:          -5.122
REMARK INTER:                  -4.960
REMARK INTRA:                  -0.162
REMARK UNBOUND:                -0.148
REMARK  Name = 1550473
REMARK  2 active torsions:
REMARK  status: ('A' for Active; 'I' for Inactive)
REMARK    1  A    between atoms: N_1  and  C_4
REMARK    2  A    between atoms: C_4  and  C_5
REMARK                            x       y       z     vdW  Elec       q    Type
REMARK                         _______ _______ _______ _____ _____    ______ ____
ROOT
ATOM      1  N   UNL     1       1.127   0.397 -18.519  0.00  0.00    -0.354 N 
ATOM      2  N   UNL     1       3.109  -0.781 -18.735  0.00  0.00    -0.372 N 
ATOM      3  N   UNL     1       2.473  -0.053 -16.654  0.00  0.00    -0.372 N 
ATOM      4  C   UNL     1       2.223  -0.137 -17.965  0.00  0.00    +0.166 C 
ATOM      5  H   UNL     1       1.011   0.325 -19.524  0.00  0.00    +0.163 HD
ATOM      6  H   UNL     1       3.944  -1.198 -18.345  0.00  0.00    +0.159 HD
ATOM      7  H   UNL     1       2.968  -0.891 -19.732  0.00  0.00    +0.159 HD
ATOM      8  H   UNL     1       1.847   0.425 -16.020  0.00  0.00    +0.159 HD
ATOM      9  H   UNL     1       3.309  -0.453 -16.247  0.00  0.00    +0.159 HD
ENDROOT
BRANCH   1  10
ATOM     10  C   UNL     1       0.074   1.072 -17.762  0.00  0.00    +0.151 C 
BRANCH  10  11
ATOM     11  C   UNL     1      -1.150   0.199 -17.739  0.00  0.00    -0.028 A 
ATOM     12  C   UNL     1      -2.247   0.489 -18.564  0.00  0.00    +0.005 A 
ATOM     13  C   UNL     1      -1.218  -0.922 -16.897  0.00  0.00    +0.005 A 
ATOM     14  C   UNL     1      -3.372  -0.338 -18.565  0.00  0.00    +0.000 A 
ATOM     15  C   UNL     1      -2.345  -1.745 -16.900  0.00  0.00    +0.000 A 
ATOM     16  C   UNL     1      -3.420  -1.454 -17.736  0.00  0.00    +0.000 A 
ENDBRANCH  10  11
ENDBRANCH   1  10
TORSDOF 2
ENDMDL
MODEL 8
REMARK VINA RESULT:    -4.436     29.407     31.406
REMARK INTER + INTRA:          -5.103
REMARK INTER:                  -4.950
REMARK INTRA:                  -0.152
REMARK UNBOUND:                -0.148
REMARK  Name = 1550473
REMARK  2 active torsions:
REMARK  status: ('A' for Active; 'I' for Inactive)
REMARK    1  A    between atoms: N_1  and  C_4
REMARK    2  A    between atoms: C_4  and  C_5
REMARK                            x       y       z     vdW  Elec       q    Type
REMARK                         _______ _______ _______ _____ _____    ______ ____
ROOT
ATOM      1  N   UNL     1      14.369   6.316   7.104  0.00  0.00    -0.354 N 
ATOM      2  N   UNL     1      12.112   5.831   6.924  0.00  0.00    -0.372 N 
ATOM      3  N   UNL     1      13.144   5.568   8.956  0.00  0.00    -0.372 N 
ATOM      4  C   UNL     1      13.224   5.907   7.665  0.00  0.00    +0.166 C 
ATOM      5  H   UNL     1      14.371   6.530   6.113  0.00  0.00    +0.163 HD
ATOM      6  H   UNL     1      11.232   5.530   7.321  0.00  0.00    +0.159 HD
ATOM      7  H   UNL     1      12.106   6.090   5.945  0.00  0.00    +0.159 HD
ATOM      8  H   UNL     1      13.948   5.598   9.569  0.00  0.00    +0.159 HD
ATOM      9  H   UNL     1      12.275   5.253   9.369  0.00  0.00    +0.159 HD
ENDROOT
BRANCH   1  10
ATOM     10  C   UNL     1      15.624   6.485   7.836  0.00  0.00    +0.151 C 
BRANCH  10  11
ATOM     11  C   UNL     1      15.974   7.947   7.879  0.00  0.00    -0.028 A 
ATOM     12  C   UNL     1      16.156   8.670   6.691  0.00  0.00    +0.005 A 
ATOM     13  C   UNL     1      16.120   8.615   9.104  0.00  0.00    +0.005 A 
ATOM     14  C   UNL     1      16.452  10.035   6.730  0.00  0.00    +0.000 A 
ATOM     15  C   UNL     1      16.416   9.978   9.139  0.00  0.00    +0.000 A 
ATOM     16  C   UNL     1      16.580  10.688   7.952  0.00  0.00    +0.000 A 
ENDBRANCH  10  11
ENDBRANCH   1  10
TORSDOF 2
ENDMDL
MODEL 9
REMARK VINA RESULT:    -4.342     45.908     47.070
REMARK INTER + INTRA:          -4.998
REMARK INTER:                  -4.877
REMARK INTRA:                  -0.120
REMARK UNBOUND:                -0.148
REMARK  Name = 1550473
REMARK  2 active torsions:
REMARK  status: ('A' for Active; 'I' for Inactive)
REMARK    1  A    between atoms: N_1  and  C_4
REMARK    2  A    between atoms: C_4  and  C_5
REMARK                            x       y       z     vdW  Elec       q    Type
REMARK                         _______ _______ _______ _____ _____    ______ ____
ROOT
ATOM      1  N   UNL     1       7.695   9.385  28.427  0.00  0.00    -0.354 N 
ATOM      2  N   UNL     1       7.747  11.650  28.907  0.00  0.00    -0.372 N 
ATOM      3  N   UNL     1       9.496  10.331  29.589  0.00  0.00    -0.372 N 
ATOM      4  C   UNL     1       8.315  10.440  28.973  0.00  0.00    +0.166 C 
ATOM      5  H   UNL     1       6.786   9.528  28.001  0.00  0.00    +0.163 HD
ATOM      6  H   UNL     1       8.193  12.465  29.306  0.00  0.00    +0.159 HD
ATOM      7  H   UNL     1       6.861  11.799  28.439  0.00  0.00    +0.159 HD
ATOM      8  H   UNL     1       9.974   9.445  29.678  0.00  0.00    +0.159 HD
ATOM      9  H   UNL     1       9.953  11.133  30.006  0.00  0.00    +0.159 HD
ENDROOT
BRANCH   1  10
ATOM     10  C   UNL     1       8.252   8.034  28.398  0.00  0.00    +0.151 C 
BRANCH  10  11
ATOM     11  C   UNL     1       7.190   7.075  27.936  0.00  0.00    -0.028 A 
ATOM     12  C   UNL     1       5.833   7.357  28.151  0.00  0.00    +0.005 A 
ATOM     13  C   UNL     1       7.535   5.884  27.277  0.00  0.00    +0.005 A 
ATOM     14  C   UNL     1       4.846   6.480  27.695  0.00  0.00    +0.000 A 
ATOM     15  C   UNL     1       6.545   5.012  26.824  0.00  0.00    +0.000 A 
ATOM     16  C   UNL     1       5.201   5.311  27.031  0.00  0.00    +0.000 A 
ENDBRANCH  10  11
ENDBRANCH   1  10
TORSDOF 2
ENDMDL
