MODEL 1
REMARK VINA RESULT:    -7.006      0.000      0.000
REMARK INTER + INTRA:          -7.961
REMARK INTER:                  -7.826
REMARK INTRA:                  -0.135
REMARK UNBOUND:                -0.135
REMARK  Name = 1550473
REMARK  2 active torsions:
REMARK  status: ('A' for Active; 'I' for Inactive)
REMARK    1  A    between atoms: N_1  and  C_4
REMARK    2  A    between atoms: C_4  and  C_5
REMARK                            x       y       z     vdW  Elec       q    Type
REMARK                         _______ _______ _______ _____ _____    ______ ____
ROOT
ATOM      1  N   UNL     1       9.230   3.915   3.478  0.00  0.00    -0.354 N 
ATOM      2  N   UNL     1       8.241   3.775   5.567  0.00  0.00    -0.372 N 
ATOM      3  N   UNL     1       9.119   5.783   4.888  0.00  0.00    -0.372 N 
ATOM      4  C   UNL     1       8.871   4.495   4.631  0.00  0.00    +0.166 C 
ATOM      5  H   UNL     1       9.040   2.927   3.356  0.00  0.00    +0.163 HD
ATOM      6  H   UNL     1       7.954   4.186   6.446  0.00  0.00    +0.159 HD
ATOM      7  H   UNL     1       8.011   2.799   5.424  0.00  0.00    +0.159 HD
ATOM      8  H   UNL     1       9.596   6.379   4.226  0.00  0.00    +0.159 HD
ATOM      9  H   UNL     1       8.850   6.210   5.766  0.00  0.00    +0.159 HD
ENDROOT
BRANCH   1  10
ATOM     10  C   UNL     1       9.873   4.623   2.372  0.00  0.00    +0.151 C 
BRANCH  10  11
ATOM     11  C   UNL     1       9.108   4.353   1.106  0.00  0.00    -0.028 A 
ATOM     12  C   UNL     1       8.481   3.115   0.903  0.00  0.00    +0.005 A 
ATOM     13  C   UNL     1       9.003   5.332   0.106  0.00  0.00    +0.005 A 
ATOM     14  C   UNL     1       7.746   2.874  -0.260  0.00  0.00    +0.000 A 
ATOM     15  C   UNL     1       8.269   5.087  -1.054  0.00  0.00    +0.000 A 
ATOM     16  C   UNL     1       7.638   3.859  -1.236  0.00  0.00    +0.000 A 
ENDBRANCH  10  11
ENDBRANCH   1  10
TORSDOF 2
ENDMDL
MODEL 2
REMARK VINA RESULT:    -6.995      1.491      2.258
REMARK INTER + INTRA:          -7.947
REMARK INTER:                  -7.770
REMARK INTRA:                  -0.178
REMARK UNBOUND:                -0.135
REMARK  Name = 1550473
REMARK  2 active torsions:
REMARK  status: ('A' for Active; 'I' for Inactive)
REMARK    1  A    between atoms: N_1  and  C_4
REMARK    2  A    between atoms: C_4  and  C_5
REMARK                            x       y       z     vdW  Elec       q    Type
REMARK                         _______ _______ _______ _____ _____    ______ ____
ROOT
ATOM      1  N   UNL     1       9.908   5.277   2.930  0.00  0.00    -0.354 N 
ATOM      2  N   UNL     1       9.088   6.863   4.405  0.00  0.00    -0.372 N 
ATOM      3  N   UNL     1      10.221   7.566   2.537  0.00  0.00    -0.372 N 
ATOM      4  C   UNL     1       9.746   6.560   3.279  0.00  0.00    +0.166 C 
ATOM      5  H   UNL     1       9.550   4.560   3.551  0.00  0.00    +0.163 HD
ATOM      6  H   UNL     1       8.947   7.823   4.692  0.00  0.00    +0.159 HD
ATOM      7  H   UNL     1       8.692   6.146   5.000  0.00  0.00    +0.159 HD
ATOM      8  H   UNL     1      10.731   7.404   1.679  0.00  0.00    +0.159 HD
ATOM      9  H   UNL     1      10.100   8.532   2.814  0.00  0.00    +0.159 HD
ENDROOT
BRANCH   1  10
ATOM     10  C   UNL     1      10.561   4.842   1.697  0.00  0.00    +0.151 C 
BRANCH  10  11
ATOM     11  C   UNL     1       9.511   4.538   0.665  0.00  0.00    -0.028 A 
ATOM     12  C   UNL     1       9.172   5.490  -0.308  0.00  0.00    +0.005 A 
ATOM     13  C   UNL     1       8.853   3.298   0.651  0.00  0.00    +0.005 A 
ATOM     14  C   UNL     1       8.218   5.198  -1.286  0.00  0.00    +0.000 A 
ATOM     15  C   UNL     1       7.900   3.010  -0.326  0.00  0.00    +0.000 A 
ATOM     16  C   UNL     1       7.585   3.959  -1.295  0.00  0.00    +0.000 A 
ENDBRANCH  10  11
ENDBRANCH   1  10
TORSDOF 2
ENDMDL
MODEL 3
REMARK VINA RESULT:    -6.836      1.398      2.143
REMARK INTER + INTRA:          -7.770
REMARK INTER:                  -7.652
REMARK INTRA:                  -0.118
REMARK UNBOUND:                -0.135
REMARK  Name = 1550473
REMARK  2 active torsions:
REMARK  status: ('A' for Active; 'I' for Inactive)
REMARK    1  A    between atoms: N_1  and  C_4
REMARK    2  A    between atoms: C_4  and  C_5
REMARK                            x       y       z     vdW  Elec       q    Type
REMARK                         _______ _______ _______ _____ _____    ______ ____
ROOT
ATOM      1  N   UNL     1       9.935   4.508   3.440  0.00  0.00    -0.354 N 
ATOM      2  N   UNL     1       9.795   3.402   5.470  0.00  0.00    -0.372 N 
ATOM      3  N   UNL     1      11.867   3.911   4.625  0.00  0.00    -0.372 N 
ATOM      4  C   UNL     1      10.536   3.948   4.498  0.00  0.00    +0.166 C 
ATOM      5  H   UNL     1       8.923   4.476   3.389  0.00  0.00    +0.163 HD
ATOM      6  H   UNL     1      10.220   2.976   6.283  0.00  0.00    +0.159 HD
ATOM      7  H   UNL     1       8.783   3.413   5.439  0.00  0.00    +0.159 HD
ATOM      8  H   UNL     1      12.483   4.300   3.923  0.00  0.00    +0.159 HD
ATOM      9  H   UNL     1      12.311   3.478   5.425  0.00  0.00    +0.159 HD
ENDROOT
BRANCH   1  10
ATOM     10  C   UNL     1      10.649   5.176   2.353  0.00  0.00    +0.151 C 
BRANCH  10  11
ATOM     11  C   UNL     1       9.792   5.156   1.117  0.00  0.00    -0.028 A 
ATOM     12  C   UNL     1       9.624   6.316   0.348  0.00  0.00    +0.005 A 
ATOM     13  C   UNL     1       9.151   3.977   0.707  0.00  0.00    +0.005 A 
ATOM     14  C   UNL     1       8.853   6.290  -0.816  0.00  0.00    +0.000 A 
ATOM     15  C   UNL     1       8.381   3.955  -0.456  0.00  0.00    +0.000 A 
ATOM     16  C   UNL     1       8.235   5.111  -1.219  0.00  0.00    +0.000 A 
ENDBRANCH  10  11
ENDBRANCH   1  10
TORSDOF 2
ENDMDL
MODEL 4
REMARK VINA RESULT:    -6.809      3.439      4.805
REMARK INTER + INTRA:          -7.740
REMARK INTER:                  -7.622
REMARK INTRA:                  -0.118
REMARK UNBOUND:                -0.135
REMARK  Name = 1550473
REMARK  2 active torsions:
REMARK  status: ('A' for Active; 'I' for Inactive)
REMARK    1  A    between atoms: N_1  and  C_4
REMARK    2  A    between atoms: C_4  and  C_5
REMARK                            x       y       z     vdW  Elec       q    Type
REMARK                         _______ _______ _______ _____ _____    ______ ____
ROOT
ATOM      1  N   UNL     1       8.391   0.440   0.527  0.00  0.00    -0.354 N 
ATOM      2  N   UNL     1       8.736  -1.625  -0.462  0.00  0.00    -0.372 N 
ATOM      3  N   UNL     1       6.585  -0.929  -0.068  0.00  0.00    -0.372 N 
ATOM      4  C   UNL     1       7.899  -0.691   0.006  0.00  0.00    +0.166 C 
ATOM      5  H   UNL     1       9.398   0.547   0.582  0.00  0.00    +0.163 HD
ATOM      6  H   UNL     1       8.394  -2.488  -0.864  0.00  0.00    +0.159 HD
ATOM      7  H   UNL     1       9.740  -1.496  -0.448  0.00  0.00    +0.159 HD
ATOM      8  H   UNL     1       5.901  -0.267   0.273  0.00  0.00    +0.159 HD
ATOM      9  H   UNL     1       6.224  -1.791  -0.456  0.00  0.00    +0.159 HD
ENDROOT
BRANCH   1  10
ATOM     10  C   UNL     1       7.565   1.543   1.015  0.00  0.00    +0.151 C 
BRANCH  10  11
ATOM     11  C   UNL     1       8.098   2.837   0.464  0.00  0.00    -0.028 A 
ATOM     12  C   UNL     1       7.545   3.398  -0.697  0.00  0.00    +0.005 A 
ATOM     13  C   UNL     1       9.151   3.510   1.101  0.00  0.00    +0.005 A 
ATOM     14  C   UNL     1       8.019   4.615  -1.192  0.00  0.00    +0.000 A 
ATOM     15  C   UNL     1       9.623   4.725   0.603  0.00  0.00    +0.000 A 
ATOM     16  C   UNL     1       9.055   5.278  -0.542  0.00  0.00    +0.000 A 
ENDBRANCH  10  11
ENDBRANCH   1  10
TORSDOF 2
ENDMDL
MODEL 5
REMARK VINA RESULT:    -6.753      6.140      7.548
REMARK INTER + INTRA:          -7.677
REMARK INTER:                  -7.560
REMARK INTRA:                  -0.117
REMARK UNBOUND:                -0.135
REMARK  Name = 1550473
REMARK  2 active torsions:
REMARK  status: ('A' for Active; 'I' for Inactive)
REMARK    1  A    between atoms: N_1  and  C_4
REMARK    2  A    between atoms: C_4  and  C_5
REMARK                            x       y       z     vdW  Elec       q    Type
REMARK                         _______ _______ _______ _____ _____    ______ ____
ROOT
ATOM      1  N   UNL     1       6.044  -0.068   0.792  0.00  0.00    -0.354 N 
ATOM      2  N   UNL     1       6.725   2.021   1.525  0.00  0.00    -0.372 N 
ATOM      3  N   UNL     1       8.266   0.324   1.428  0.00  0.00    -0.372 N 
ATOM      4  C   UNL     1       7.010   0.744   1.244  0.00  0.00    +0.166 C 
ATOM      5  H   UNL     1       5.106   0.304   0.703  0.00  0.00    +0.163 HD
ATOM      6  H   UNL     1       7.433   2.658   1.864  0.00  0.00    +0.159 HD
ATOM      7  H   UNL     1       5.796   2.402   1.391  0.00  0.00    +0.159 HD
ATOM      8  H   UNL     1       8.544  -0.630   1.240  0.00  0.00    +0.159 HD
ATOM      9  H   UNL     1       8.986   0.943   1.778  0.00  0.00    +0.159 HD
ENDROOT
BRANCH   1  10
ATOM     10  C   UNL     1       6.262  -1.461   0.405  0.00  0.00    +0.151 C 
BRANCH  10  11
ATOM     11  C   UNL     1       5.072  -2.279   0.827  0.00  0.00    -0.028 A 
ATOM     12  C   UNL     1       5.248  -3.533   1.428  0.00  0.00    +0.005 A 
ATOM     13  C   UNL     1       3.767  -1.802   0.633  0.00  0.00    +0.005 A 
ATOM     14  C   UNL     1       4.145  -4.280   1.847  0.00  0.00    +0.000 A 
ATOM     15  C   UNL     1       2.668  -2.551   1.052  0.00  0.00    +0.000 A 
ATOM     16  C   UNL     1       2.857  -3.789   1.661  0.00  0.00    +0.000 A 
ENDBRANCH  10  11
ENDBRANCH   1  10
TORSDOF 2
ENDMDL
MODEL 6
REMARK VINA RESULT:    -6.423      3.131      3.962
REMARK INTER + INTRA:          -7.309
REMARK INTER:                  -7.189
REMARK INTRA:                  -0.120
REMARK UNBOUND:                -0.135
REMARK  Name = 1550473
REMARK  2 active torsions:
REMARK  status: ('A' for Active; 'I' for Inactive)
REMARK    1  A    between atoms: N_1  and  C_4
REMARK    2  A    between atoms: C_4  and  C_5
REMARK                            x       y       z     vdW  Elec       q    Type
REMARK                         _______ _______ _______ _____ _____    ______ ____
ROOT
ATOM      1  N   UNL     1       7.441   2.120   0.572  0.00  0.00    -0.354 N 
ATOM      2  N   UNL     1       6.041   0.311   0.935  0.00  0.00    -0.372 N 
ATOM      3  N   UNL     1       8.287   0.073   1.338  0.00  0.00    -0.372 N 
ATOM      4  C   UNL     1       7.268   0.845   0.947  0.00  0.00    +0.166 C 
ATOM      5  H   UNL     1       6.632   2.643   0.258  0.00  0.00    +0.163 HD
ATOM      6  H   UNL     1       5.879  -0.647   1.216  0.00  0.00    +0.159 HD
ATOM      7  H   UNL     1       5.227   0.850   0.664  0.00  0.00    +0.159 HD
ATOM      8  H   UNL     1       9.239   0.415   1.363  0.00  0.00    +0.159 HD
ATOM      9  H   UNL     1       8.147  -0.892   1.611  0.00  0.00    +0.159 HD
ENDROOT
BRANCH   1  10
ATOM     10  C   UNL     1       8.728   2.813   0.600  0.00  0.00    +0.151 C 
BRANCH  10  11
ATOM     11  C   UNL     1       8.611   4.097  -0.173  0.00  0.00    -0.028 A 
ATOM     12  C   UNL     1       9.434   5.191   0.134  0.00  0.00    +0.005 A 
ATOM     13  C   UNL     1       7.682   4.226  -1.218  0.00  0.00    +0.005 A 
ATOM     14  C   UNL     1       9.346   6.374  -0.604  0.00  0.00    +0.000 A 
ATOM     15  C   UNL     1       7.597   5.409  -1.951  0.00  0.00    +0.000 A 
ATOM     16  C   UNL     1       8.431   6.482  -1.646  0.00  0.00    +0.000 A 
ENDBRANCH  10  11
ENDBRANCH   1  10
TORSDOF 2
ENDMDL
MODEL 7
REMARK VINA RESULT:    -5.880      9.048     10.350
REMARK INTER + INTRA:          -6.702
REMARK INTER:                  -6.603
REMARK INTRA:                  -0.099
REMARK UNBOUND:                -0.135
REMARK  Name = 1550473
REMARK  2 active torsions:
REMARK  status: ('A' for Active; 'I' for Inactive)
REMARK    1  A    between atoms: N_1  and  C_4
REMARK    2  A    between atoms: C_4  and  C_5
REMARK                            x       y       z     vdW  Elec       q    Type
REMARK                         _______ _______ _______ _____ _____    ______ ____
ROOT
ATOM      1  N   UNL     1       1.840  -4.790   1.676  0.00  0.00    -0.354 N 
ATOM      2  N   UNL     1       1.372  -6.547   0.242  0.00  0.00    -0.372 N 
ATOM      3  N   UNL     1       1.196  -4.398  -0.543  0.00  0.00    -0.372 N 
ATOM      4  C   UNL     1       1.472  -5.231   0.466  0.00  0.00    +0.166 C 
ATOM      5  H   UNL     1       2.005  -5.472   2.408  0.00  0.00    +0.163 HD
ATOM      6  H   UNL     1       1.100  -6.910  -0.662  0.00  0.00    +0.159 HD
ATOM      7  H   UNL     1       1.583  -7.228   0.961  0.00  0.00    +0.159 HD
ATOM      8  H   UNL     1       1.247  -3.393  -0.437  0.00  0.00    +0.159 HD
ATOM      9  H   UNL     1       0.911  -4.741  -1.451  0.00  0.00    +0.159 HD
ENDROOT
BRANCH   1  10
ATOM     10  C   UNL     1       2.030  -3.379   2.009  0.00  0.00    +0.151 C 
BRANCH  10  11
ATOM     11  C   UNL     1       3.406  -2.954   1.576  0.00  0.00    -0.028 A 
ATOM     12  C   UNL     1       4.521  -3.756   1.858  0.00  0.00    +0.005 A 
ATOM     13  C   UNL     1       3.600  -1.752   0.878  0.00  0.00    +0.005 A 
ATOM     14  C   UNL     1       5.795  -3.376   1.429  0.00  0.00    +0.000 A 
ATOM     15  C   UNL     1       4.874  -1.376   0.452  0.00  0.00    +0.000 A 
ATOM     16  C   UNL     1       5.971  -2.189   0.726  0.00  0.00    +0.000 A 
ENDBRANCH  10  11
ENDBRANCH   1  10
TORSDOF 2
ENDMDL
MODEL 8
REMARK VINA RESULT:    -5.861     10.669     12.057
REMARK INTER + INTRA:          -6.682
REMARK INTER:                  -6.567
REMARK INTRA:                  -0.114
REMARK UNBOUND:                -0.135
REMARK  Name = 1550473
REMARK  2 active torsions:
REMARK  status: ('A' for Active; 'I' for Inactive)
REMARK    1  A    between atoms: N_1  and  C_4
REMARK    2  A    between atoms: C_4  and  C_5
REMARK                            x       y       z     vdW  Elec       q    Type
REMARK                         _______ _______ _______ _____ _____    ______ ____
ROOT
ATOM      1  N   UNL     1       1.115  -5.589  -0.050  0.00  0.00    -0.354 N 
ATOM      2  N   UNL     1      -0.256  -7.304  -0.786  0.00  0.00    -0.372 N 
ATOM      3  N   UNL     1      -0.612  -5.182  -1.581  0.00  0.00    -0.372 N 
ATOM      4  C   UNL     1       0.090  -6.012  -0.802  0.00  0.00    +0.166 C 
ATOM      5  H   UNL     1       1.587  -6.262   0.542  0.00  0.00    +0.163 HD
ATOM      6  H   UNL     1      -1.022  -7.654  -1.345  0.00  0.00    +0.159 HD
ATOM      7  H   UNL     1       0.247  -7.984  -0.228  0.00  0.00    +0.159 HD
ATOM      8  H   UNL     1      -0.405  -4.193  -1.634  0.00  0.00    +0.159 HD
ATOM      9  H   UNL     1      -1.390  -5.510  -2.140  0.00  0.00    +0.159 HD
ENDROOT
BRANCH   1  10
ATOM     10  C   UNL     1       1.606  -4.212  -0.037  0.00  0.00    +0.151 C 
BRANCH  10  11
ATOM     11  C   UNL     1       2.721  -4.098   0.965  0.00  0.00    -0.028 A 
ATOM     12  C   UNL     1       2.681  -4.829   2.162  0.00  0.00    +0.005 A 
ATOM     13  C   UNL     1       3.824  -3.265   0.722  0.00  0.00    +0.005 A 
ATOM     14  C   UNL     1       3.731  -4.746   3.079  0.00  0.00    +0.000 A 
ATOM     15  C   UNL     1       4.870  -3.184   1.641  0.00  0.00    +0.000 A 
ATOM     16  C   UNL     1       4.825  -3.927   2.818  0.00  0.00    +0.000 A 
ENDBRANCH  10  11
ENDBRANCH   1  10
TORSDOF 2
ENDMDL
MODEL 9
REMARK VINA RESULT:    -5.591     14.786     15.439
REMARK INTER + INTRA:          -6.380
REMARK INTER:                  -6.238
REMARK INTRA:                  -0.142
REMARK UNBOUND:                -0.135
REMARK  Name = 1550473
REMARK  2 active torsions:
REMARK  status: ('A' for Active; 'I' for Inactive)
REMARK    1  A    between atoms: N_1  and  C_4
REMARK    2  A    between atoms: C_4  and  C_5
REMARK                            x       y       z     vdW  Elec       q    Type
REMARK                         _______ _______ _______ _____ _____    ______ ____
ROOT
ATOM      1  N   UNL     1      -1.423  -4.488  -4.909  0.00  0.00    -0.354 N 
ATOM      2  N   UNL     1      -1.045  -5.452  -2.837  0.00  0.00    -0.372 N 
ATOM      3  N   UNL     1      -2.223  -6.634  -4.412  0.00  0.00    -0.372 N 
ATOM      4  C   UNL     1      -1.568  -5.521  -4.067  0.00  0.00    +0.166 C 
ATOM      5  H   UNL     1      -0.942  -3.660  -4.577  0.00  0.00    +0.163 HD
ATOM      6  H   UNL     1      -1.134  -6.217  -2.181  0.00  0.00    +0.159 HD
ATOM      7  H   UNL     1      -0.524  -4.642  -2.524  0.00  0.00    +0.159 HD
ATOM      8  H   UNL     1      -2.646  -6.747  -5.323  0.00  0.00    +0.159 HD
ATOM      9  H   UNL     1      -2.333  -7.406  -3.765  0.00  0.00    +0.159 HD
ENDROOT
BRANCH   1  10
ATOM     10  C   UNL     1      -1.908  -4.484  -6.288  0.00  0.00    +0.151 C 
BRANCH  10  11
ATOM     11  C   UNL     1      -0.776  -4.112  -7.205  0.00  0.00    -0.028 A 
ATOM     12  C   UNL     1      -0.937  -3.095  -8.158  0.00  0.00    +0.005 A 
ATOM     13  C   UNL     1       0.461  -4.769  -7.123  0.00  0.00    +0.005 A 
ATOM     14  C   UNL     1       0.124  -2.729  -8.990  0.00  0.00    +0.000 A 
ATOM     15  C   UNL     1       1.517  -4.401  -7.956  0.00  0.00    +0.000 A 
ATOM     16  C   UNL     1       1.349  -3.380  -8.888  0.00  0.00    +0.000 A 
ENDBRANCH  10  11
ENDBRANCH   1  10
TORSDOF 2
ENDMDL
