MODEL 1
REMARK VINA RESULT:    -5.092      0.000      0.000
REMARK INTER + INTRA:          -5.823
REMARK INTER:                  -5.688
REMARK INTRA:                  -0.135
REMARK UNBOUND:                -0.135
REMARK  Name = 1550473
REMARK  2 active torsions:
REMARK  status: ('A' for Active; 'I' for Inactive)
REMARK    1  A    between atoms: N_1  and  C_4
REMARK    2  A    between atoms: C_4  and  C_5
REMARK                            x       y       z     vdW  Elec       q    Type
REMARK                         _______ _______ _______ _____ _____    ______ ____
ROOT
ATOM      1  N   UNL     1      -8.926   1.060 -20.229  0.00  0.00    -0.354 N 
ATOM      2  N   UNL     1     -10.006   2.997 -20.896  0.00  0.00    -0.372 N 
ATOM      3  N   UNL     1     -10.152   2.345 -18.701  0.00  0.00    -0.372 N 
ATOM      4  C   UNL     1      -9.688   2.121 -19.935  0.00  0.00    +0.166 C 
ATOM      5  H   UNL     1      -8.631   0.930 -21.190  0.00  0.00    +0.163 HD
ATOM      6  H   UNL     1     -10.577   3.809 -20.703  0.00  0.00    +0.159 HD
ATOM      7  H   UNL     1      -9.672   2.890 -21.846  0.00  0.00    +0.159 HD
ATOM      8  H   UNL     1      -9.954   1.719 -17.932  0.00  0.00    +0.159 HD
ATOM      9  H   UNL     1     -10.735   3.146 -18.491  0.00  0.00    +0.159 HD
ENDROOT
BRANCH   1  10
ATOM     10  C   UNL     1      -8.479   0.076 -19.244  0.00  0.00    +0.151 C 
BRANCH  10  11
ATOM     11  C   UNL     1      -8.457  -1.284 -19.884  0.00  0.00    -0.028 A 
ATOM     12  C   UNL     1      -8.859  -1.451 -21.217  0.00  0.00    +0.005 A 
ATOM     13  C   UNL     1      -8.031  -2.411 -19.164  0.00  0.00    +0.005 A 
ATOM     14  C   UNL     1      -8.811  -2.709 -21.821  0.00  0.00    +0.000 A 
ATOM     15  C   UNL     1      -7.985  -3.666 -19.770  0.00  0.00    +0.000 A 
ATOM     16  C   UNL     1      -8.373  -3.815 -21.099  0.00  0.00    +0.000 A 
ENDBRANCH  10  11
ENDBRANCH   1  10
TORSDOF 2
ENDMDL
MODEL 2
REMARK VINA RESULT:    -4.788      1.334      1.936
REMARK INTER + INTRA:          -5.483
REMARK INTER:                  -5.358
REMARK INTRA:                  -0.125
REMARK UNBOUND:                -0.135
REMARK  Name = 1550473
REMARK  2 active torsions:
REMARK  status: ('A' for Active; 'I' for Inactive)
REMARK    1  A    between atoms: N_1  and  C_4
REMARK    2  A    between atoms: C_4  and  C_5
REMARK                            x       y       z     vdW  Elec       q    Type
REMARK                         _______ _______ _______ _____ _____    ______ ____
ROOT
ATOM      1  N   UNL     1      -8.241   0.839 -19.212  0.00  0.00    -0.354 N 
ATOM      2  N   UNL     1      -8.109   3.017 -18.436  0.00  0.00    -0.372 N 
ATOM      3  N   UNL     1     -10.152   2.189 -19.075  0.00  0.00    -0.372 N 
ATOM      4  C   UNL     1      -8.838   2.001 -18.913  0.00  0.00    +0.166 C 
ATOM      5  H   UNL     1      -7.236   0.770 -19.095  0.00  0.00    +0.163 HD
ATOM      6  H   UNL     1      -8.532   3.905 -18.199  0.00  0.00    +0.159 HD
ATOM      7  H   UNL     1      -7.113   2.931 -18.277  0.00  0.00    +0.159 HD
ATOM      8  H   UNL     1     -10.756   1.463 -19.436  0.00  0.00    +0.159 HD
ATOM      9  H   UNL     1     -10.592   3.074 -18.854  0.00  0.00    +0.159 HD
ENDROOT
BRANCH   1  10
ATOM     10  C   UNL     1      -8.951  -0.347 -19.687  0.00  0.00    +0.151 C 
BRANCH  10  11
ATOM     11  C   UNL     1      -8.140  -1.570 -19.358  0.00  0.00    -0.028 A 
ATOM     12  C   UNL     1      -8.218  -2.714 -20.166  0.00  0.00    +0.005 A 
ATOM     13  C   UNL     1      -7.287  -1.589 -18.244  0.00  0.00    +0.005 A 
ATOM     14  C   UNL     1      -7.442  -3.839 -19.879  0.00  0.00    +0.000 A 
ATOM     15  C   UNL     1      -6.514  -2.715 -17.961  0.00  0.00    +0.000 A 
ATOM     16  C   UNL     1      -6.591  -3.839 -18.780  0.00  0.00    +0.000 A 
ENDBRANCH  10  11
ENDBRANCH   1  10
TORSDOF 2
ENDMDL
MODEL 3
REMARK VINA RESULT:    -4.717     24.346     25.736
REMARK INTER + INTRA:          -5.404
REMARK INTER:                  -5.288
REMARK INTRA:                  -0.116
REMARK UNBOUND:                -0.135
REMARK  Name = 1550473
REMARK  2 active torsions:
REMARK  status: ('A' for Active; 'I' for Inactive)
REMARK    1  A    between atoms: N_1  and  C_4
REMARK    2  A    between atoms: C_4  and  C_5
REMARK                            x       y       z     vdW  Elec       q    Type
REMARK                         _______ _______ _______ _____ _____    ______ ____
ROOT
ATOM      1  N   UNL     1       2.699   7.299   0.206  0.00  0.00    -0.354 N 
ATOM      2  N   UNL     1       1.089   5.692  -0.228  0.00  0.00    -0.372 N 
ATOM      3  N   UNL     1       0.520   7.908  -0.404  0.00  0.00    -0.372 N 
ATOM      4  C   UNL     1       1.445   6.979  -0.139  0.00  0.00    +0.166 C 
ATOM      5  H   UNL     1       3.345   6.548   0.423  0.00  0.00    +0.163 HD
ATOM      6  H   UNL     1       0.151   5.420  -0.490  0.00  0.00    +0.159 HD
ATOM      7  H   UNL     1       1.749   4.943  -0.055  0.00  0.00    +0.159 HD
ATOM      8  H   UNL     1       0.723   8.897  -0.349  0.00  0.00    +0.159 HD
ATOM      9  H   UNL     1      -0.428   7.656  -0.656  0.00  0.00    +0.159 HD
ENDROOT
BRANCH   1  10
ATOM     10  C   UNL     1       3.203   8.669   0.279  0.00  0.00    +0.151 C 
BRANCH  10  11
ATOM     11  C   UNL     1       4.690   8.658   0.053  0.00  0.00    -0.028 A 
ATOM     12  C   UNL     1       5.556   9.243   0.988  0.00  0.00    +0.005 A 
ATOM     13  C   UNL     1       5.239   8.060  -1.091  0.00  0.00    +0.005 A 
ATOM     14  C   UNL     1       6.939   9.207   0.794  0.00  0.00    +0.000 A 
ATOM     15  C   UNL     1       6.620   8.026  -1.282  0.00  0.00    +0.000 A 
ATOM     16  C   UNL     1       7.470   8.598  -0.338  0.00  0.00    +0.000 A 
ENDBRANCH  10  11
ENDBRANCH   1  10
TORSDOF 2
ENDMDL
MODEL 4
REMARK VINA RESULT:    -4.679     11.864     13.352
REMARK INTER + INTRA:          -5.361
REMARK INTER:                  -5.210
REMARK INTRA:                  -0.151
REMARK UNBOUND:                -0.135
REMARK  Name = 1550473
REMARK  2 active torsions:
REMARK  status: ('A' for Active; 'I' for Inactive)
REMARK    1  A    between atoms: N_1  and  C_4
REMARK    2  A    between atoms: C_4  and  C_5
REMARK                            x       y       z     vdW  Elec       q    Type
REMARK                         _______ _______ _______ _____ _____    ______ ____
ROOT
ATOM      1  N   UNL     1      -1.790 -12.405 -22.482  0.00  0.00    -0.354 N 
ATOM      2  N   UNL     1      -1.365 -14.576 -21.795  0.00  0.00    -0.372 N 
ATOM      3  N   UNL     1      -2.186 -13.071 -20.270  0.00  0.00    -0.372 N 
ATOM      4  C   UNL     1      -1.784 -13.335 -21.518  0.00  0.00    +0.166 C 
ATOM      5  H   UNL     1      -1.444 -12.661 -23.399  0.00  0.00    +0.163 HD
ATOM      6  H   UNL     1      -1.352 -15.300 -21.089  0.00  0.00    +0.159 HD
ATOM      7  H   UNL     1      -1.063 -14.841 -22.725  0.00  0.00    +0.159 HD
ATOM      8  H   UNL     1      -2.508 -12.153 -19.994  0.00  0.00    +0.159 HD
ATOM      9  H   UNL     1      -2.170 -13.779 -19.547  0.00  0.00    +0.159 HD
ENDROOT
BRANCH   1  10
ATOM     10  C   UNL     1      -2.277 -11.040 -22.297  0.00  0.00    +0.151 C 
BRANCH  10  11
ATOM     11  C   UNL     1      -3.606 -10.895 -22.986  0.00  0.00    -0.028 A 
ATOM     12  C   UNL     1      -3.954 -11.743 -24.047  0.00  0.00    +0.005 A 
ATOM     13  C   UNL     1      -4.524  -9.915 -22.578  0.00  0.00    +0.005 A 
ATOM     14  C   UNL     1      -5.200 -11.629 -24.668  0.00  0.00    +0.000 A 
ATOM     15  C   UNL     1      -5.768  -9.804 -23.200  0.00  0.00    +0.000 A 
ATOM     16  C   UNL     1      -6.106 -10.662 -24.244  0.00  0.00    +0.000 A 
ENDBRANCH  10  11
ENDBRANCH   1  10
TORSDOF 2
ENDMDL
MODEL 5
REMARK VINA RESULT:    -4.581     18.940     20.261
REMARK INTER + INTRA:          -5.252
REMARK INTER:                  -5.130
REMARK INTRA:                  -0.122
REMARK UNBOUND:                -0.135
REMARK  Name = 1550473
REMARK  2 active torsions:
REMARK  status: ('A' for Active; 'I' for Inactive)
REMARK    1  A    between atoms: N_1  and  C_4
REMARK    2  A    between atoms: C_4  and  C_5
REMARK                            x       y       z     vdW  Elec       q    Type
REMARK                         _______ _______ _______ _____ _____    ______ ____
ROOT
ATOM      1  N   UNL     1       1.004   3.658  -5.444  0.00  0.00    -0.354 N 
ATOM      2  N   UNL     1       0.679   3.682  -7.737  0.00  0.00    -0.372 N 
ATOM      3  N   UNL     1      -1.086   3.144  -6.372  0.00  0.00    -0.372 N 
ATOM      4  C   UNL     1       0.199   3.493  -6.502  0.00  0.00    +0.166 C 
ATOM      5  H   UNL     1       1.975   3.894  -5.610  0.00  0.00    +0.163 HD
ATOM      6  H   UNL     1       0.094   3.568  -8.554  0.00  0.00    +0.159 HD
ATOM      7  H   UNL     1       1.639   3.962  -7.898  0.00  0.00    +0.159 HD
ATOM      8  H   UNL     1      -1.508   2.981  -5.468  0.00  0.00    +0.159 HD
ATOM      9  H   UNL     1      -1.684   3.014  -7.179  0.00  0.00    +0.159 HD
ENDROOT
BRANCH   1  10
ATOM     10  C   UNL     1       0.565   3.530  -4.055  0.00  0.00    +0.151 C 
BRANCH  10  11
ATOM     11  C   UNL     1       1.618   4.112  -3.152  0.00  0.00    -0.028 A 
ATOM     12  C   UNL     1       1.731   3.683  -1.821  0.00  0.00    +0.005 A 
ATOM     13  C   UNL     1       2.509   5.089  -3.623  0.00  0.00    +0.005 A 
ATOM     14  C   UNL     1       2.727   4.202  -0.991  0.00  0.00    +0.000 A 
ATOM     15  C   UNL     1       3.502   5.605  -2.790  0.00  0.00    +0.000 A 
ATOM     16  C   UNL     1       3.612   5.159  -1.475  0.00  0.00    +0.000 A 
ENDBRANCH  10  11
ENDBRANCH   1  10
TORSDOF 2
ENDMDL
MODEL 6
REMARK VINA RESULT:    -4.577     12.339     13.577
REMARK INTER + INTRA:          -5.247
REMARK INTER:                  -5.111
REMARK INTRA:                  -0.135
REMARK UNBOUND:                -0.135
REMARK  Name = 1550473
REMARK  2 active torsions:
REMARK  status: ('A' for Active; 'I' for Inactive)
REMARK    1  A    between atoms: N_1  and  C_4
REMARK    2  A    between atoms: C_4  and  C_5
REMARK                            x       y       z     vdW  Elec       q    Type
REMARK                         _______ _______ _______ _____ _____    ______ ____
ROOT
ATOM      1  N   UNL     1      -0.580   1.697 -11.561  0.00  0.00    -0.354 N 
ATOM      2  N   UNL     1       0.458  -0.357 -11.825  0.00  0.00    -0.372 N 
ATOM      3  N   UNL     1       1.626   1.358 -10.845  0.00  0.00    -0.372 N 
ATOM      4  C   UNL     1       0.497   0.915 -11.408  0.00  0.00    +0.166 C 
ATOM      5  H   UNL     1      -1.394   1.309 -12.023  0.00  0.00    +0.163 HD
ATOM      6  H   UNL     1       1.254  -0.972 -11.720  0.00  0.00    +0.159 HD
ATOM      7  H   UNL     1      -0.373  -0.755 -12.245  0.00  0.00    +0.159 HD
ATOM      8  H   UNL     1       1.722   2.309 -10.515  0.00  0.00    +0.159 HD
ATOM      9  H   UNL     1       2.437   0.761 -10.741  0.00  0.00    +0.159 HD
ENDROOT
BRANCH   1  10
ATOM     10  C   UNL     1      -0.659   3.079 -11.093  0.00  0.00    +0.151 C 
BRANCH  10  11
ATOM     11  C   UNL     1      -1.820   3.211 -10.146  0.00  0.00    -0.028 A 
ATOM     12  C   UNL     1      -3.135   3.254 -10.632  0.00  0.00    +0.005 A 
ATOM     13  C   UNL     1      -1.612   3.286  -8.760  0.00  0.00    +0.005 A 
ATOM     14  C   UNL     1      -4.215   3.346  -9.751  0.00  0.00    +0.000 A 
ATOM     15  C   UNL     1      -2.693   3.378  -7.883  0.00  0.00    +0.000 A 
ATOM     16  C   UNL     1      -3.994   3.406  -8.379  0.00  0.00    +0.000 A 
ENDBRANCH  10  11
ENDBRANCH   1  10
TORSDOF 2
ENDMDL
MODEL 7
REMARK VINA RESULT:    -4.294     22.339     23.567
REMARK INTER + INTRA:          -4.931
REMARK INTER:                  -4.785
REMARK INTRA:                  -0.146
REMARK UNBOUND:                -0.135
REMARK  Name = 1550473
REMARK  2 active torsions:
REMARK  status: ('A' for Active; 'I' for Inactive)
REMARK    1  A    between atoms: N_1  and  C_4
REMARK    2  A    between atoms: C_4  and  C_5
REMARK                            x       y       z     vdW  Elec       q    Type
REMARK                         _______ _______ _______ _____ _____    ______ ____
ROOT
ATOM      1  N   UNL     1       1.651   8.572   0.064  0.00  0.00    -0.354 N 
ATOM      2  N   UNL     1       1.008  10.687  -0.627  0.00  0.00    -0.372 N 
ATOM      3  N   UNL     1       3.235  10.137  -0.665  0.00  0.00    -0.372 N 
ATOM      4  C   UNL     1       1.972   9.785  -0.405  0.00  0.00    +0.166 C 
ATOM      5  H   UNL     1       0.677   8.378   0.269  0.00  0.00    +0.163 HD
ATOM      6  H   UNL     1       1.219  11.609  -0.984  0.00  0.00    +0.159 HD
ATOM      7  H   UNL     1       0.031  10.474  -0.464  0.00  0.00    +0.159 HD
ATOM      8  H   UNL     1       4.009   9.504  -0.513  0.00  0.00    +0.159 HD
ATOM      9  H   UNL     1       3.468  11.060  -1.011  0.00  0.00    +0.159 HD
ENDROOT
BRANCH   1  10
ATOM     10  C   UNL     1       2.618   7.500   0.289  0.00  0.00    +0.151 C 
BRANCH  10  11
ATOM     11  C   UNL     1       2.185   6.279  -0.474  0.00  0.00    -0.028 A 
ATOM     12  C   UNL     1       3.027   5.161  -0.568  0.00  0.00    +0.005 A 
ATOM     13  C   UNL     1       0.929   6.230  -1.099  0.00  0.00    +0.005 A 
ATOM     14  C   UNL     1       2.613   4.015  -1.251  0.00  0.00    +0.000 A 
ATOM     15  C   UNL     1       0.519   5.084  -1.780  0.00  0.00    +0.000 A 
ATOM     16  C   UNL     1       1.360   3.976  -1.854  0.00  0.00    +0.000 A 
ENDBRANCH  10  11
ENDBRANCH   1  10
TORSDOF 2
ENDMDL
MODEL 8
REMARK VINA RESULT:    -4.260     13.571     14.677
REMARK INTER + INTRA:          -4.893
REMARK INTER:                  -4.750
REMARK INTRA:                  -0.143
REMARK UNBOUND:                -0.135
REMARK  Name = 1550473
REMARK  2 active torsions:
REMARK  status: ('A' for Active; 'I' for Inactive)
REMARK    1  A    between atoms: N_1  and  C_4
REMARK    2  A    between atoms: C_4  and  C_5
REMARK                            x       y       z     vdW  Elec       q    Type
REMARK                         _______ _______ _______ _____ _____    ______ ____
ROOT
ATOM      1  N   UNL     1      -0.102 -12.443 -21.019  0.00  0.00    -0.354 N 
ATOM      2  N   UNL     1      -1.483 -14.276 -20.708  0.00  0.00    -0.372 N 
ATOM      3  N   UNL     1      -2.424 -12.261 -21.276  0.00  0.00    -0.372 N 
ATOM      4  C   UNL     1      -1.329 -12.979 -21.004  0.00  0.00    +0.166 C 
ATOM      5  H   UNL     1       0.685 -13.033 -20.774  0.00  0.00    +0.163 HD
ATOM      6  H   UNL     1      -2.396 -14.709 -20.692  0.00  0.00    +0.159 HD
ATOM      7  H   UNL     1      -0.691 -14.874 -20.509  0.00  0.00    +0.159 HD
ATOM      8  H   UNL     1      -2.376 -11.277 -21.501  0.00  0.00    +0.159 HD
ATOM      9  H   UNL     1      -3.348 -12.674 -21.253  0.00  0.00    +0.159 HD
ENDROOT
BRANCH   1  10
ATOM     10  C   UNL     1       0.179 -11.054 -21.381  0.00  0.00    +0.151 C 
BRANCH  10  11
ATOM     11  C   UNL     1       0.866 -10.376 -20.228  0.00  0.00    -0.028 A 
ATOM     12  C   UNL     1       1.206 -11.100 -19.076  0.00  0.00    +0.005 A 
ATOM     13  C   UNL     1       1.185  -9.011 -20.284  0.00  0.00    +0.005 A 
ATOM     14  C   UNL     1       1.871 -10.477 -18.017  0.00  0.00    +0.000 A 
ATOM     15  C   UNL     1       1.849  -8.392 -19.224  0.00  0.00    +0.000 A 
ATOM     16  C   UNL     1       2.194  -9.127 -18.092  0.00  0.00    +0.000 A 
ENDBRANCH  10  11
ENDBRANCH   1  10
TORSDOF 2
ENDMDL
MODEL 9
REMARK VINA RESULT:    -4.181     19.047     20.157
REMARK INTER + INTRA:          -4.805
REMARK INTER:                  -4.675
REMARK INTRA:                  -0.130
REMARK UNBOUND:                -0.135
REMARK  Name = 1550473
REMARK  2 active torsions:
REMARK  status: ('A' for Active; 'I' for Inactive)
REMARK    1  A    between atoms: N_1  and  C_4
REMARK    2  A    between atoms: C_4  and  C_5
REMARK                            x       y       z     vdW  Elec       q    Type
REMARK                         _______ _______ _______ _____ _____    ______ ____
ROOT
ATOM      1  N   UNL     1      -6.802 -17.308 -31.341  0.00  0.00    -0.354 N 
ATOM      2  N   UNL     1      -7.716 -15.609 -32.624  0.00  0.00    -0.372 N 
ATOM      3  N   UNL     1      -8.815 -17.619 -32.500  0.00  0.00    -0.372 N 
ATOM      4  C   UNL     1      -7.773 -16.859 -32.147  0.00  0.00    +0.166 C 
ATOM      5  H   UNL     1      -6.024 -16.692 -31.136  0.00  0.00    +0.163 HD
ATOM      6  H   UNL     1      -8.436 -15.242 -33.232  0.00  0.00    +0.159 HD
ATOM      7  H   UNL     1      -6.960 -14.981 -32.381  0.00  0.00    +0.159 HD
ATOM      8  H   UNL     1      -8.915 -18.573 -32.179  0.00  0.00    +0.159 HD
ATOM      9  H   UNL     1      -9.540 -17.273 -33.116  0.00  0.00    +0.159 HD
ENDROOT
BRANCH   1  10
ATOM     10  C   UNL     1      -6.798 -18.633 -30.725  0.00  0.00    +0.151 C 
BRANCH  10  11
ATOM     11  C   UNL     1      -6.269 -18.522 -29.322  0.00  0.00    -0.028 A 
ATOM     12  C   UNL     1      -6.545 -19.519 -28.376  0.00  0.00    +0.005 A 
ATOM     13  C   UNL     1      -5.487 -17.423 -28.934  0.00  0.00    +0.005 A 
ATOM     14  C   UNL     1      -6.029 -19.431 -27.081  0.00  0.00    +0.000 A 
ATOM     15  C   UNL     1      -4.974 -17.338 -27.640  0.00  0.00    +0.000 A 
ATOM     16  C   UNL     1      -5.243 -18.343 -26.714  0.00  0.00    +0.000 A 
ENDBRANCH  10  11
ENDBRANCH   1  10
TORSDOF 2
ENDMDL
