MODEL 1
REMARK VINA RESULT:    -5.287      0.000      0.000
REMARK INTER + INTRA:          -6.039
REMARK INTER:                  -5.905
REMARK INTRA:                  -0.134
REMARK UNBOUND:                -0.134
REMARK  Name = 1550473
REMARK  2 active torsions:
REMARK  status: ('A' for Active; 'I' for Inactive)
REMARK    1  A    between atoms: N_1  and  C_4
REMARK    2  A    between atoms: C_4  and  C_5
REMARK                            x       y       z     vdW  Elec       q    Type
REMARK                         _______ _______ _______ _____ _____    ______ ____
ROOT
ATOM      1  N   UNL     1      23.079  13.207  13.486  0.00  0.00    -0.354 N 
ATOM      2  N   UNL     1      23.036  15.182  14.694  0.00  0.00    -0.372 N 
ATOM      3  N   UNL     1      25.063  14.316  14.057  0.00  0.00    -0.372 N 
ATOM      4  C   UNL     1      23.729  14.222  14.071  0.00  0.00    +0.166 C 
ATOM      5  H   UNL     1      22.068  13.177  13.558  0.00  0.00    +0.163 HD
ATOM      6  H   UNL     1      23.499  15.962  15.142  0.00  0.00    +0.159 HD
ATOM      7  H   UNL     1      22.024  15.174  14.725  0.00  0.00    +0.159 HD
ATOM      8  H   UNL     1      25.644  13.620  13.609  0.00  0.00    +0.159 HD
ATOM      9  H   UNL     1      25.545  15.083  14.510  0.00  0.00    +0.159 HD
ENDROOT
BRANCH   1  10
ATOM     10  C   UNL     1      23.737  12.138  12.736  0.00  0.00    +0.151 C 
BRANCH  10  11
ATOM     11  C   UNL     1      23.127  12.054  11.364  0.00  0.00    -0.028 A 
ATOM     12  C   UNL     1      22.011  11.236  11.131  0.00  0.00    +0.005 A 
ATOM     13  C   UNL     1      23.656  12.793  10.295  0.00  0.00    +0.005 A 
ATOM     14  C   UNL     1      21.425  11.180   9.864  0.00  0.00    +0.000 A 
ATOM     15  C   UNL     1      23.068  12.733   9.031  0.00  0.00    +0.000 A 
ATOM     16  C   UNL     1      21.952  11.929   8.817  0.00  0.00    +0.000 A 
ENDBRANCH  10  11
ENDBRANCH   1  10
TORSDOF 2
ENDMDL
MODEL 2
REMARK VINA RESULT:    -5.009     12.149     13.911
REMARK INTER + INTRA:          -5.728
REMARK INTER:                  -5.600
REMARK INTRA:                  -0.128
REMARK UNBOUND:                -0.134
REMARK  Name = 1550473
REMARK  2 active torsions:
REMARK  status: ('A' for Active; 'I' for Inactive)
REMARK    1  A    between atoms: N_1  and  C_4
REMARK    2  A    between atoms: C_4  and  C_5
REMARK                            x       y       z     vdW  Elec       q    Type
REMARK                         _______ _______ _______ _____ _____    ______ ____
ROOT
ATOM      1  N   UNL     1      16.472  14.016   1.476  0.00  0.00    -0.354 N 
ATOM      2  N   UNL     1      17.870  13.678   3.292  0.00  0.00    -0.372 N 
ATOM      3  N   UNL     1      15.875  12.548   3.202  0.00  0.00    -0.372 N 
ATOM      4  C   UNL     1      16.728  13.415   2.646  0.00  0.00    +0.166 C 
ATOM      5  H   UNL     1      17.145  14.686   1.122  0.00  0.00    +0.163 HD
ATOM      6  H   UNL     1      18.092  13.237   4.174  0.00  0.00    +0.159 HD
ATOM      7  H   UNL     1      18.562  14.313   2.913  0.00  0.00    +0.159 HD
ATOM      8  H   UNL     1      14.993  12.311   2.769  0.00  0.00    +0.159 HD
ATOM      9  H   UNL     1      16.074  12.105   4.091  0.00  0.00    +0.159 HD
ENDROOT
BRANCH   1  10
ATOM     10  C   UNL     1      15.282  13.758   0.667  0.00  0.00    +0.151 C 
BRANCH  10  11
ATOM     11  C   UNL     1      15.671  13.738  -0.786  0.00  0.00    -0.028 A 
ATOM     12  C   UNL     1      14.893  13.041  -1.721  0.00  0.00    +0.005 A 
ATOM     13  C   UNL     1      16.814  14.418  -1.233  0.00  0.00    +0.005 A 
ATOM     14  C   UNL     1      15.237  13.047  -3.075  0.00  0.00    +0.000 A 
ATOM     15  C   UNL     1      17.155  14.421  -2.586  0.00  0.00    +0.000 A 
ATOM     16  C   UNL     1      16.365  13.737  -3.507  0.00  0.00    +0.000 A 
ENDBRANCH  10  11
ENDBRANCH   1  10
TORSDOF 2
ENDMDL
MODEL 3
REMARK VINA RESULT:    -4.803     10.128     11.071
REMARK INTER + INTRA:          -5.499
REMARK INTER:                  -5.399
REMARK INTRA:                  -0.100
REMARK UNBOUND:                -0.134
REMARK  Name = 1550473
REMARK  2 active torsions:
REMARK  status: ('A' for Active; 'I' for Inactive)
REMARK    1  A    between atoms: N_1  and  C_4
REMARK    2  A    between atoms: C_4  and  C_5
REMARK                            x       y       z     vdW  Elec       q    Type
REMARK                         _______ _______ _______ _____ _____    ______ ____
ROOT
ATOM      1  N   UNL     1      20.114  16.122   2.096  0.00  0.00    -0.354 N 
ATOM      2  N   UNL     1      21.247  18.080   1.597  0.00  0.00    -0.372 N 
ATOM      3  N   UNL     1      22.414  16.322   2.499  0.00  0.00    -0.372 N 
ATOM      4  C   UNL     1      21.253  16.827   2.069  0.00  0.00    +0.166 C 
ATOM      5  H   UNL     1      19.262  16.573   1.784  0.00  0.00    +0.163 HD
ATOM      6  H   UNL     1      22.091  18.635   1.561  0.00  0.00    +0.159 HD
ATOM      7  H   UNL     1      20.402  18.512   1.243  0.00  0.00    +0.159 HD
ATOM      8  H   UNL     1      22.485  15.385   2.871  0.00  0.00    +0.159 HD
ATOM      9  H   UNL     1      23.268  16.866   2.481  0.00  0.00    +0.159 HD
ENDROOT
BRANCH   1  10
ATOM     10  C   UNL     1      20.023  14.732   2.539  0.00  0.00    +0.151 C 
BRANCH  10  11
ATOM     11  C   UNL     1      18.661  14.195   2.196  0.00  0.00    -0.028 A 
ATOM     12  C   UNL     1      17.753  13.857   3.209  0.00  0.00    +0.005 A 
ATOM     13  C   UNL     1      18.271  14.027   0.858  0.00  0.00    +0.005 A 
ATOM     14  C   UNL     1      16.477  13.386   2.890  0.00  0.00    +0.000 A 
ATOM     15  C   UNL     1      16.997  13.556   0.544  0.00  0.00    +0.000 A 
ATOM     16  C   UNL     1      16.099  13.238   1.560  0.00  0.00    +0.000 A 
ENDBRANCH  10  11
ENDBRANCH   1  10
TORSDOF 2
ENDMDL
MODEL 4
REMARK VINA RESULT:    -4.730     35.526     37.452
REMARK INTER + INTRA:          -5.417
REMARK INTER:                  -5.321
REMARK INTRA:                  -0.097
REMARK UNBOUND:                -0.134
REMARK  Name = 1550473
REMARK  2 active torsions:
REMARK  status: ('A' for Active; 'I' for Inactive)
REMARK    1  A    between atoms: N_1  and  C_4
REMARK    2  A    between atoms: C_4  and  C_5
REMARK                            x       y       z     vdW  Elec       q    Type
REMARK                         _______ _______ _______ _____ _____    ______ ____
ROOT
ATOM      1  N   UNL     1      -0.400  -4.777 -13.046  0.00  0.00    -0.354 N 
ATOM      2  N   UNL     1      -1.996  -6.371 -12.521  0.00  0.00    -0.372 N 
ATOM      3  N   UNL     1      -1.995  -5.454 -14.624  0.00  0.00    -0.372 N 
ATOM      4  C   UNL     1      -1.454  -5.523 -13.403  0.00  0.00    +0.166 C 
ATOM      5  H   UNL     1      -0.056  -4.854 -12.095  0.00  0.00    +0.163 HD
ATOM      6  H   UNL     1      -2.789  -6.950 -12.763  0.00  0.00    +0.159 HD
ATOM      7  H   UNL     1      -1.621  -6.480 -11.586  0.00  0.00    +0.159 HD
ATOM      8  H   UNL     1      -1.636  -4.829 -15.334  0.00  0.00    +0.159 HD
ATOM      9  H   UNL     1      -2.796  -6.016 -14.881  0.00  0.00    +0.159 HD
ENDROOT
BRANCH   1  10
ATOM     10  C   UNL     1       0.297  -3.862 -13.948  0.00  0.00    +0.151 C 
BRANCH  10  11
ATOM     11  C   UNL     1       1.230  -2.997 -13.145  0.00  0.00    -0.028 A 
ATOM     12  C   UNL     1       1.021  -1.613 -13.060  0.00  0.00    +0.005 A 
ATOM     13  C   UNL     1       2.321  -3.557 -12.462  0.00  0.00    +0.005 A 
ATOM     14  C   UNL     1       1.869  -0.813 -12.291  0.00  0.00    +0.000 A 
ATOM     15  C   UNL     1       3.166  -2.755 -11.695  0.00  0.00    +0.000 A 
ATOM     16  C   UNL     1       2.938  -1.384 -11.608  0.00  0.00    +0.000 A 
ENDBRANCH  10  11
ENDBRANCH   1  10
TORSDOF 2
ENDMDL
MODEL 5
REMARK VINA RESULT:    -4.593     44.302     45.352
REMARK INTER + INTRA:          -5.264
REMARK INTER:                  -5.172
REMARK INTRA:                  -0.092
REMARK UNBOUND:                -0.134
REMARK  Name = 1550473
REMARK  2 active torsions:
REMARK  status: ('A' for Active; 'I' for Inactive)
REMARK    1  A    between atoms: N_1  and  C_4
REMARK    2  A    between atoms: C_4  and  C_5
REMARK                            x       y       z     vdW  Elec       q    Type
REMARK                         _______ _______ _______ _____ _____    ______ ____
ROOT
ATOM      1  N   UNL     1      -7.590   3.070 -20.595  0.00  0.00    -0.354 N 
ATOM      2  N   UNL     1      -9.072   1.293 -20.480  0.00  0.00    -0.372 N 
ATOM      3  N   UNL     1      -8.027   1.991 -18.561  0.00  0.00    -0.372 N 
ATOM      4  C   UNL     1      -8.219   2.129 -19.877  0.00  0.00    +0.166 C 
ATOM      5  H   UNL     1      -7.756   3.103 -21.594  0.00  0.00    +0.163 HD
ATOM      6  H   UNL     1      -9.564   0.576 -19.964  0.00  0.00    +0.159 HD
ATOM      7  H   UNL     1      -9.271   1.359 -21.471  0.00  0.00    +0.159 HD
ATOM      8  H   UNL     1      -7.391   2.586 -18.047  0.00  0.00    +0.159 HD
ATOM      9  H   UNL     1      -8.501   1.272 -18.029  0.00  0.00    +0.159 HD
ENDROOT
BRANCH   1  10
ATOM     10  C   UNL     1      -6.683   4.064 -20.024  0.00  0.00    +0.151 C 
BRANCH  10  11
ATOM     11  C   UNL     1      -7.293   5.430 -20.176  0.00  0.00    -0.028 A 
ATOM     12  C   UNL     1      -8.682   5.579 -20.306  0.00  0.00    +0.005 A 
ATOM     13  C   UNL     1      -6.488   6.580 -20.186  0.00  0.00    +0.005 A 
ATOM     14  C   UNL     1      -9.251   6.850 -20.418  0.00  0.00    +0.000 A 
ATOM     15  C   UNL     1      -7.061   7.846 -20.298  0.00  0.00    +0.000 A 
ATOM     16  C   UNL     1      -8.442   7.981 -20.411  0.00  0.00    +0.000 A 
ENDBRANCH  10  11
ENDBRANCH   1  10
TORSDOF 2
ENDMDL
MODEL 6
REMARK VINA RESULT:    -4.546     42.447     43.962
REMARK INTER + INTRA:          -5.212
REMARK INTER:                  -5.079
REMARK INTRA:                  -0.132
REMARK UNBOUND:                -0.134
REMARK  Name = 1550473
REMARK  2 active torsions:
REMARK  status: ('A' for Active; 'I' for Inactive)
REMARK    1  A    between atoms: N_1  and  C_4
REMARK    2  A    between atoms: C_4  and  C_5
REMARK                            x       y       z     vdW  Elec       q    Type
REMARK                         _______ _______ _______ _____ _____    ______ ____
ROOT
ATOM      1  N   UNL     1      -4.110   2.446 -20.564  0.00  0.00    -0.354 N 
ATOM      2  N   UNL     1      -2.210   1.140 -20.341  0.00  0.00    -0.372 N 
ATOM      3  N   UNL     1      -1.993   3.425 -20.329  0.00  0.00    -0.372 N 
ATOM      4  C   UNL     1      -2.782   2.348 -20.413  0.00  0.00    +0.166 C 
ATOM      5  H   UNL     1      -4.649   1.593 -20.652  0.00  0.00    +0.163 HD
ATOM      6  H   UNL     1      -1.211   1.035 -20.223  0.00  0.00    +0.159 HD
ATOM      7  H   UNL     1      -2.757   0.289 -20.383  0.00  0.00    +0.159 HD
ATOM      8  H   UNL     1      -2.362   4.365 -20.382  0.00  0.00    +0.159 HD
ATOM      9  H   UNL     1      -0.990   3.339 -20.222  0.00  0.00    +0.159 HD
ENDROOT
BRANCH   1  10
ATOM     10  C   UNL     1      -4.837   3.714 -20.600  0.00  0.00    +0.151 C 
BRANCH  10  11
ATOM     11  C   UNL     1      -6.199   3.516 -19.993  0.00  0.00    -0.028 A 
ATOM     12  C   UNL     1      -7.134   4.561 -19.988  0.00  0.00    +0.005 A 
ATOM     13  C   UNL     1      -6.561   2.284 -19.427  0.00  0.00    +0.005 A 
ATOM     14  C   UNL     1      -8.410   4.368 -19.451  0.00  0.00    +0.000 A 
ATOM     15  C   UNL     1      -7.835   2.096 -18.891  0.00  0.00    +0.000 A 
ATOM     16  C   UNL     1      -8.760   3.138 -18.906  0.00  0.00    +0.000 A 
ENDBRANCH  10  11
ENDBRANCH   1  10
TORSDOF 2
ENDMDL
MODEL 7
REMARK VINA RESULT:    -4.535     11.512     13.243
REMARK INTER + INTRA:          -5.199
REMARK INTER:                  -5.026
REMARK INTRA:                  -0.173
REMARK UNBOUND:                -0.134
REMARK  Name = 1550473
REMARK  2 active torsions:
REMARK  status: ('A' for Active; 'I' for Inactive)
REMARK    1  A    between atoms: N_1  and  C_4
REMARK    2  A    between atoms: C_4  and  C_5
REMARK                            x       y       z     vdW  Elec       q    Type
REMARK                         _______ _______ _______ _____ _____    ______ ____
ROOT
ATOM      1  N   UNL     1      20.244   2.173   5.730  0.00  0.00    -0.354 N 
ATOM      2  N   UNL     1      21.257   2.010   7.807  0.00  0.00    -0.372 N 
ATOM      3  N   UNL     1      20.524   4.062   7.088  0.00  0.00    -0.372 N 
ATOM      4  C   UNL     1      20.668   2.752   6.861  0.00  0.00    +0.166 C 
ATOM      5  H   UNL     1      20.411   1.181   5.607  0.00  0.00    +0.163 HD
ATOM      6  H   UNL     1      21.583   2.419   8.672  0.00  0.00    +0.159 HD
ATOM      7  H   UNL     1      21.380   1.011   7.700  0.00  0.00    +0.159 HD
ATOM      8  H   UNL     1      20.093   4.679   6.412  0.00  0.00    +0.159 HD
ATOM      9  H   UNL     1      20.855   4.492   7.943  0.00  0.00    +0.159 HD
ENDROOT
BRANCH   1  10
ATOM     10  C   UNL     1      19.543   2.882   4.661  0.00  0.00    +0.151 C 
BRANCH  10  11
ATOM     11  C   UNL     1      18.092   2.489   4.682  0.00  0.00    -0.028 A 
ATOM     12  C   UNL     1      17.185   3.158   5.517  0.00  0.00    +0.005 A 
ATOM     13  C   UNL     1      17.616   1.453   3.864  0.00  0.00    +0.005 A 
ATOM     14  C   UNL     1      15.831   2.814   5.514  0.00  0.00    +0.000 A 
ATOM     15  C   UNL     1      16.263   1.112   3.865  0.00  0.00    +0.000 A 
ATOM     16  C   UNL     1      15.371   1.794   4.688  0.00  0.00    +0.000 A 
ENDBRANCH  10  11
ENDBRANCH   1  10
TORSDOF 2
ENDMDL
MODEL 8
REMARK VINA RESULT:    -4.441     28.278     29.376
REMARK INTER + INTRA:          -5.095
REMARK INTER:                  -4.956
REMARK INTRA:                  -0.139
REMARK UNBOUND:                -0.134
REMARK  Name = 1550473
REMARK  2 active torsions:
REMARK  status: ('A' for Active; 'I' for Inactive)
REMARK    1  A    between atoms: N_1  and  C_4
REMARK    2  A    between atoms: C_4  and  C_5
REMARK                            x       y       z     vdW  Elec       q    Type
REMARK                         _______ _______ _______ _____ _____    ______ ____
ROOT
ATOM      1  N   UNL     1      -5.899  17.072   3.625  0.00  0.00    -0.354 N 
ATOM      2  N   UNL     1      -7.303  18.914   3.596  0.00  0.00    -0.372 N 
ATOM      3  N   UNL     1      -5.035  19.248   3.500  0.00  0.00    -0.372 N 
ATOM      4  C   UNL     1      -6.067  18.400   3.574  0.00  0.00    +0.166 C 
ATOM      5  H   UNL     1      -6.721  16.486   3.710  0.00  0.00    +0.163 HD
ATOM      6  H   UNL     1      -7.462  19.911   3.555  0.00  0.00    +0.159 HD
ATOM      7  H   UNL     1      -8.125  18.323   3.635  0.00  0.00    +0.159 HD
ATOM      8  H   UNL     1      -4.077  18.924   3.486  0.00  0.00    +0.159 HD
ATOM      9  H   UNL     1      -5.173  20.250   3.470  0.00  0.00    +0.159 HD
ENDROOT
BRANCH   1  10
ATOM     10  C   UNL     1      -4.597  16.410   3.553  0.00  0.00    +0.151 C 
BRANCH  10  11
ATOM     11  C   UNL     1      -4.463  15.463   4.713  0.00  0.00    -0.028 A 
ATOM     12  C   UNL     1      -5.017  15.784   5.962  0.00  0.00    +0.005 A 
ATOM     13  C   UNL     1      -3.789  14.241   4.570  0.00  0.00    +0.005 A 
ATOM     14  C   UNL     1      -4.918  14.891   7.032  0.00  0.00    +0.000 A 
ATOM     15  C   UNL     1      -3.692  13.353   5.641  0.00  0.00    +0.000 A 
ATOM     16  C   UNL     1      -4.259  13.677   6.871  0.00  0.00    +0.000 A 
ENDBRANCH  10  11
ENDBRANCH   1  10
TORSDOF 2
ENDMDL
MODEL 9
REMARK VINA RESULT:    -4.315     23.087     24.631
REMARK INTER + INTRA:          -4.953
REMARK INTER:                  -4.781
REMARK INTRA:                  -0.172
REMARK UNBOUND:                -0.134
REMARK  Name = 1550473
REMARK  2 active torsions:
REMARK  status: ('A' for Active; 'I' for Inactive)
REMARK    1  A    between atoms: N_1  and  C_4
REMARK    2  A    between atoms: C_4  and  C_5
REMARK                            x       y       z     vdW  Elec       q    Type
REMARK                         _______ _______ _______ _____ _____    ______ ____
ROOT
ATOM      1  N   UNL     1      12.515  -8.803  12.052  0.00  0.00    -0.354 N 
ATOM      2  N   UNL     1      14.492  -8.106  11.067  0.00  0.00    -0.372 N 
ATOM      3  N   UNL     1      13.306  -6.617  12.347  0.00  0.00    -0.372 N 
ATOM      4  C   UNL     1      13.424  -7.844  11.829  0.00  0.00    +0.166 C 
ATOM      5  H   UNL     1      12.647  -9.704  11.606  0.00  0.00    +0.163 HD
ATOM      6  H   UNL     1      15.196  -7.404  10.884  0.00  0.00    +0.159 HD
ATOM      7  H   UNL     1      14.645  -9.021  10.660  0.00  0.00    +0.159 HD
ATOM      8  H   UNL     1      12.520  -6.354  12.926  0.00  0.00    +0.159 HD
ATOM      9  H   UNL     1      13.994  -5.897  12.166  0.00  0.00    +0.159 HD
ENDROOT
BRANCH   1  10
ATOM     10  C   UNL     1      11.344  -8.637  12.911  0.00  0.00    +0.151 C 
BRANCH  10  11
ATOM     11  C   UNL     1      10.106  -8.628  12.057  0.00  0.00    -0.028 A 
ATOM     12  C   UNL     1       9.600  -7.423  11.549  0.00  0.00    +0.005 A 
ATOM     13  C   UNL     1       9.438  -9.823  11.749  0.00  0.00    +0.005 A 
ATOM     14  C   UNL     1       8.468  -7.418  10.731  0.00  0.00    +0.000 A 
ATOM     15  C   UNL     1       8.306  -9.813  10.933  0.00  0.00    +0.000 A 
ATOM     16  C   UNL     1       7.823  -8.611  10.422  0.00  0.00    +0.000 A 
ENDBRANCH  10  11
ENDBRANCH   1  10
TORSDOF 2
ENDMDL
