MODEL 1
REMARK VINA RESULT:    -6.357      0.000      0.000
REMARK INTER + INTRA:          -7.234
REMARK INTER:                  -7.101
REMARK INTRA:                  -0.134
REMARK UNBOUND:                -0.134
REMARK  Name = 1550473
REMARK  2 active torsions:
REMARK  status: ('A' for Active; 'I' for Inactive)
REMARK    1  A    between atoms: N_1  and  C_4
REMARK    2  A    between atoms: C_4  and  C_5
REMARK                            x       y       z     vdW  Elec       q    Type
REMARK                         _______ _______ _______ _____ _____    ______ ____
ROOT
ATOM      1  N   UNL     1       7.974   4.626  10.991  0.00  0.00    -0.354 N 
ATOM      2  N   UNL     1       7.658   6.788  10.221  0.00  0.00    -0.372 N 
ATOM      3  N   UNL     1       9.794   5.959  10.357  0.00  0.00    -0.372 N 
ATOM      4  C   UNL     1       8.480   5.777  10.528  0.00  0.00    +0.166 C 
ATOM      5  H   UNL     1       6.972   4.562  11.127  0.00  0.00    +0.163 HD
ATOM      6  H   UNL     1       8.011   7.666   9.866  0.00  0.00    +0.159 HD
ATOM      7  H   UNL     1       6.654   6.704  10.314  0.00  0.00    +0.159 HD
ATOM      8  H   UNL     1      10.468   5.238  10.575  0.00  0.00    +0.159 HD
ATOM      9  H   UNL     1      10.167   6.835  10.014  0.00  0.00    +0.159 HD
ENDROOT
BRANCH   1  10
ATOM     10  C   UNL     1       8.778   3.446  11.304  0.00  0.00    +0.151 C 
BRANCH  10  11
ATOM     11  C   UNL     1       8.010   2.212  10.920  0.00  0.00    -0.028 A 
ATOM     12  C   UNL     1       8.592   0.943  11.046  0.00  0.00    +0.005 A 
ATOM     13  C   UNL     1       6.696   2.305  10.434  0.00  0.00    +0.005 A 
ATOM     14  C   UNL     1       7.868  -0.206  10.718  0.00  0.00    +0.000 A 
ATOM     15  C   UNL     1       5.977   1.156  10.106  0.00  0.00    +0.000 A 
ATOM     16  C   UNL     1       6.563  -0.099  10.250  0.00  0.00    +0.000 A 
ENDBRANCH  10  11
ENDBRANCH   1  10
TORSDOF 2
ENDMDL
MODEL 2
REMARK VINA RESULT:    -6.211      0.571      1.560
REMARK INTER + INTRA:          -7.071
REMARK INTER:                  -6.948
REMARK INTRA:                  -0.123
REMARK UNBOUND:                -0.134
REMARK  Name = 1550473
REMARK  2 active torsions:
REMARK  status: ('A' for Active; 'I' for Inactive)
REMARK    1  A    between atoms: N_1  and  C_4
REMARK    2  A    between atoms: C_4  and  C_5
REMARK                            x       y       z     vdW  Elec       q    Type
REMARK                         _______ _______ _______ _____ _____    ______ ____
ROOT
ATOM      1  N   UNL     1       7.798   4.352  10.503  0.00  0.00    -0.354 N 
ATOM      2  N   UNL     1       7.636   6.634  10.142  0.00  0.00    -0.372 N 
ATOM      3  N   UNL     1       9.576   5.787  11.028  0.00  0.00    -0.372 N 
ATOM      4  C   UNL     1       8.340   5.576  10.561  0.00  0.00    +0.166 C 
ATOM      5  H   UNL     1       6.846   4.263  10.167  0.00  0.00    +0.163 HD
ATOM      6  H   UNL     1       8.020   7.569  10.171  0.00  0.00    +0.159 HD
ATOM      7  H   UNL     1       6.702   6.537   9.764  0.00  0.00    +0.159 HD
ATOM      8  H   UNL     1      10.157   5.031  11.365  0.00  0.00    +0.159 HD
ATOM      9  H   UNL     1       9.973   6.717  11.076  0.00  0.00    +0.159 HD
ENDROOT
BRANCH   1  10
ATOM     10  C   UNL     1       8.500   3.128  10.884  0.00  0.00    +0.151 C 
BRANCH  10  11
ATOM     11  C   UNL     1       7.589   1.952  10.668  0.00  0.00    -0.028 A 
ATOM     12  C   UNL     1       6.256   2.146  10.278  0.00  0.00    +0.005 A 
ATOM     13  C   UNL     1       8.054   0.640  10.846  0.00  0.00    +0.005 A 
ATOM     14  C   UNL     1       5.417   1.053  10.047  0.00  0.00    +0.000 A 
ATOM     15  C   UNL     1       7.213  -0.449  10.616  0.00  0.00    +0.000 A 
ATOM     16  C   UNL     1       5.896  -0.243  10.214  0.00  0.00    +0.000 A 
ENDBRANCH  10  11
ENDBRANCH   1  10
TORSDOF 2
ENDMDL
MODEL 3
REMARK VINA RESULT:    -6.109      0.801      1.941
REMARK INTER + INTRA:          -6.957
REMARK INTER:                  -6.833
REMARK INTRA:                  -0.124
REMARK UNBOUND:                -0.134
REMARK  Name = 1550473
REMARK  2 active torsions:
REMARK  status: ('A' for Active; 'I' for Inactive)
REMARK    1  A    between atoms: N_1  and  C_4
REMARK    2  A    between atoms: C_4  and  C_5
REMARK                            x       y       z     vdW  Elec       q    Type
REMARK                         _______ _______ _______ _____ _____    ______ ____
ROOT
ATOM      1  N   UNL     1       8.884   4.491  11.026  0.00  0.00    -0.354 N 
ATOM      2  N   UNL     1      10.094   6.402  10.527  0.00  0.00    -0.372 N 
ATOM      3  N   UNL     1       7.822   6.413  10.208  0.00  0.00    -0.372 N 
ATOM      4  C   UNL     1       8.923   5.757  10.589  0.00  0.00    +0.166 C 
ATOM      5  H   UNL     1       9.758   4.040  11.272  0.00  0.00    +0.163 HD
ATOM      6  H   UNL     1      10.154   7.359  10.204  0.00  0.00    +0.159 HD
ATOM      7  H   UNL     1      10.960   5.964  10.816  0.00  0.00    +0.159 HD
ATOM      8  H   UNL     1       6.908   5.981  10.226  0.00  0.00    +0.159 HD
ATOM      9  H   UNL     1       7.863   7.367   9.872  0.00  0.00    +0.159 HD
ENDROOT
BRANCH   1  10
ATOM     10  C   UNL     1       7.654   3.718  11.184  0.00  0.00    +0.151 C 
BRANCH  10  11
ATOM     11  C   UNL     1       7.949   2.267  10.917  0.00  0.00    -0.028 A 
ATOM     12  C   UNL     1       6.934   1.404  10.479  0.00  0.00    +0.005 A 
ATOM     13  C   UNL     1       9.242   1.752  11.095  0.00  0.00    +0.005 A 
ATOM     14  C   UNL     1       7.214   0.063  10.202  0.00  0.00    +0.000 A 
ATOM     15  C   UNL     1       9.517   0.413  10.819  0.00  0.00    +0.000 A 
ATOM     16  C   UNL     1       8.503  -0.431  10.370  0.00  0.00    +0.000 A 
ENDBRANCH  10  11
ENDBRANCH   1  10
TORSDOF 2
ENDMDL
MODEL 4
REMARK VINA RESULT:    -5.740      1.217      2.227
REMARK INTER + INTRA:          -6.545
REMARK INTER:                  -6.440
REMARK INTRA:                  -0.104
REMARK UNBOUND:                -0.134
REMARK  Name = 1550473
REMARK  2 active torsions:
REMARK  status: ('A' for Active; 'I' for Inactive)
REMARK    1  A    between atoms: N_1  and  C_4
REMARK    2  A    between atoms: C_4  and  C_5
REMARK                            x       y       z     vdW  Elec       q    Type
REMARK                         _______ _______ _______ _____ _____    ______ ____
ROOT
ATOM      1  N   UNL     1       9.950   4.126  10.477  0.00  0.00    -0.354 N 
ATOM      2  N   UNL     1      11.864   5.256   9.825  0.00  0.00    -0.372 N 
ATOM      3  N   UNL     1      10.067   6.464  10.583  0.00  0.00    -0.372 N 
ATOM      4  C   UNL     1      10.613   5.277  10.300  0.00  0.00    +0.166 C 
ATOM      5  H   UNL     1      10.409   3.261  10.215  0.00  0.00    +0.163 HD
ATOM      6  H   UNL     1      12.390   6.108   9.684  0.00  0.00    +0.159 HD
ATOM      7  H   UNL     1      12.337   4.387   9.607  0.00  0.00    +0.159 HD
ATOM      8  H   UNL     1       9.124   6.548  10.939  0.00  0.00    +0.159 HD
ATOM      9  H   UNL     1      10.573   7.328  10.438  0.00  0.00    +0.159 HD
ENDROOT
BRANCH   1  10
ATOM     10  C   UNL     1       8.604   4.036  11.039  0.00  0.00    +0.151 C 
BRANCH  10  11
ATOM     11  C   UNL     1       8.081   2.639  10.841  0.00  0.00    -0.028 A 
ATOM     12  C   UNL     1       6.814   2.426  10.279  0.00  0.00    +0.005 A 
ATOM     13  C   UNL     1       8.851   1.525  11.209  0.00  0.00    +0.005 A 
ATOM     14  C   UNL     1       6.341   1.129  10.067  0.00  0.00    +0.000 A 
ATOM     15  C   UNL     1       8.374   0.231  10.996  0.00  0.00    +0.000 A 
ATOM     16  C   UNL     1       7.121   0.034  10.423  0.00  0.00    +0.000 A 
ENDBRANCH  10  11
ENDBRANCH   1  10
TORSDOF 2
ENDMDL
MODEL 5
REMARK VINA RESULT:    -5.676      2.146      2.907
REMARK INTER + INTRA:          -6.474
REMARK INTER:                  -6.291
REMARK INTRA:                  -0.182
REMARK UNBOUND:                -0.134
REMARK  Name = 1550473
REMARK  2 active torsions:
REMARK  status: ('A' for Active; 'I' for Inactive)
REMARK    1  A    between atoms: N_1  and  C_4
REMARK    2  A    between atoms: C_4  and  C_5
REMARK                            x       y       z     vdW  Elec       q    Type
REMARK                         _______ _______ _______ _____ _____    ______ ____
ROOT
ATOM      1  N   UNL     1      11.042   4.846   9.172  0.00  0.00    -0.354 N 
ATOM      2  N   UNL     1      12.352   6.352  10.347  0.00  0.00    -0.372 N 
ATOM      3  N   UNL     1      10.072   6.441  10.588  0.00  0.00    -0.372 N 
ATOM      4  C   UNL     1      11.144   5.871  10.029  0.00  0.00    +0.166 C 
ATOM      5  H   UNL     1      11.891   4.478   8.759  0.00  0.00    +0.163 HD
ATOM      6  H   UNL     1      12.461   7.122  10.994  0.00  0.00    +0.159 HD
ATOM      7  H   UNL     1      13.202   5.951   9.968  0.00  0.00    +0.159 HD
ATOM      8  H   UNL     1       9.132   6.129  10.385  0.00  0.00    +0.159 HD
ATOM      9  H   UNL     1      10.160   7.221  11.228  0.00  0.00    +0.159 HD
ENDROOT
BRANCH   1  10
ATOM     10  C   UNL     1       9.778   4.214   8.800  0.00  0.00    +0.151 C 
BRANCH  10  11
ATOM     11  C   UNL     1       9.625   2.932   9.571  0.00  0.00    -0.028 A 
ATOM     12  C   UNL     1      10.263   1.760   9.137  0.00  0.00    +0.005 A 
ATOM     13  C   UNL     1       8.848   2.883  10.738  0.00  0.00    +0.005 A 
ATOM     14  C   UNL     1      10.146   0.576   9.869  0.00  0.00    +0.000 A 
ATOM     15  C   UNL     1       8.732   1.698  11.465  0.00  0.00    +0.000 A 
ATOM     16  C   UNL     1       9.383   0.546  11.032  0.00  0.00    +0.000 A 
ENDBRANCH  10  11
ENDBRANCH   1  10
TORSDOF 2
ENDMDL
MODEL 6
REMARK VINA RESULT:    -5.491      1.507      1.748
REMARK INTER + INTRA:          -6.266
REMARK INTER:                  -6.143
REMARK INTRA:                  -0.123
REMARK UNBOUND:                -0.134
REMARK  Name = 1550473
REMARK  2 active torsions:
REMARK  status: ('A' for Active; 'I' for Inactive)
REMARK    1  A    between atoms: N_1  and  C_4
REMARK    2  A    between atoms: C_4  and  C_5
REMARK                            x       y       z     vdW  Elec       q    Type
REMARK                         _______ _______ _______ _____ _____    ______ ____
ROOT
ATOM      1  N   UNL     1       9.591   4.312  10.301  0.00  0.00    -0.354 N 
ATOM      2  N   UNL     1      10.841   5.573   8.814  0.00  0.00    -0.372 N 
ATOM      3  N   UNL     1      11.932   4.194  10.289  0.00  0.00    -0.372 N 
ATOM      4  C   UNL     1      10.782   4.683   9.813  0.00  0.00    +0.166 C 
ATOM      5  H   UNL     1       8.758   4.743   9.917  0.00  0.00    +0.163 HD
ATOM      6  H   UNL     1      11.725   5.869   8.422  0.00  0.00    +0.159 HD
ATOM      7  H   UNL     1      10.005   5.967   8.401  0.00  0.00    +0.159 HD
ATOM      8  H   UNL     1      11.955   3.524  11.046  0.00  0.00    +0.159 HD
ATOM      9  H   UNL     1      12.827   4.487   9.918  0.00  0.00    +0.159 HD
ENDROOT
BRANCH   1  10
ATOM     10  C   UNL     1       9.414   3.311  11.351  0.00  0.00    +0.151 C 
BRANCH  10  11
ATOM     11  C   UNL     1       8.353   2.335  10.926  0.00  0.00    -0.028 A 
ATOM     12  C   UNL     1       8.544   0.956  11.095  0.00  0.00    +0.005 A 
ATOM     13  C   UNL     1       7.150   2.783  10.357  0.00  0.00    +0.005 A 
ATOM     14  C   UNL     1       7.546   0.050  10.727  0.00  0.00    +0.000 A 
ATOM     15  C   UNL     1       6.156   1.876   9.991  0.00  0.00    +0.000 A 
ATOM     16  C   UNL     1       6.353   0.510  10.178  0.00  0.00    +0.000 A 
ENDBRANCH  10  11
ENDBRANCH   1  10
TORSDOF 2
ENDMDL
MODEL 7
REMARK VINA RESULT:    -5.214      3.962      5.587
REMARK INTER + INTRA:          -5.957
REMARK INTER:                  -5.822
REMARK INTRA:                  -0.135
REMARK UNBOUND:                -0.134
REMARK  Name = 1550473
REMARK  2 active torsions:
REMARK  status: ('A' for Active; 'I' for Inactive)
REMARK    1  A    between atoms: N_1  and  C_4
REMARK    2  A    between atoms: C_4  and  C_5
REMARK                            x       y       z     vdW  Elec       q    Type
REMARK                         _______ _______ _______ _____ _____    ______ ____
ROOT
ATOM      1  N   UNL     1       4.067   0.293   9.422  0.00  0.00    -0.354 N 
ATOM      2  N   UNL     1       2.042   0.768   8.403  0.00  0.00    -0.372 N 
ATOM      3  N   UNL     1       3.426  -0.793   7.447  0.00  0.00    -0.372 N 
ATOM      4  C   UNL     1       3.193   0.084   8.429  0.00  0.00    +0.166 C 
ATOM      5  H   UNL     1       3.845   0.994  10.120  0.00  0.00    +0.163 HD
ATOM      6  H   UNL     1       1.362   0.629   7.668  0.00  0.00    +0.159 HD
ATOM      7  H   UNL     1       1.802   1.434   9.127  0.00  0.00    +0.159 HD
ATOM      8  H   UNL     1       4.278  -1.336   7.406  0.00  0.00    +0.159 HD
ATOM      9  H   UNL     1       2.763  -0.938   6.697  0.00  0.00    +0.159 HD
ENDROOT
BRANCH   1  10
ATOM     10  C   UNL     1       5.324  -0.438   9.572  0.00  0.00    +0.151 C 
BRANCH  10  11
ATOM     11  C   UNL     1       6.369   0.490  10.129  0.00  0.00    -0.028 A 
ATOM     12  C   UNL     1       6.130   1.870  10.200  0.00  0.00    +0.005 A 
ATOM     13  C   UNL     1       7.597  -0.005  10.592  0.00  0.00    +0.005 A 
ATOM     14  C   UNL     1       7.087   2.729  10.745  0.00  0.00    +0.000 A 
ATOM     15  C   UNL     1       8.551   0.856  11.135  0.00  0.00    +0.000 A 
ATOM     16  C   UNL     1       8.295   2.222  11.213  0.00  0.00    +0.000 A 
ENDBRANCH  10  11
ENDBRANCH   1  10
TORSDOF 2
ENDMDL
MODEL 8
REMARK VINA RESULT:    -5.125     28.089     29.389
REMARK INTER + INTRA:          -5.858
REMARK INTER:                  -5.707
REMARK INTRA:                  -0.151
REMARK UNBOUND:                -0.134
REMARK  Name = 1550473
REMARK  2 active torsions:
REMARK  status: ('A' for Active; 'I' for Inactive)
REMARK    1  A    between atoms: N_1  and  C_4
REMARK    2  A    between atoms: C_4  and  C_5
REMARK                            x       y       z     vdW  Elec       q    Type
REMARK                         _______ _______ _______ _____ _____    ______ ____
ROOT
ATOM      1  N   UNL     1       6.245 -16.290 -10.284  0.00  0.00    -0.354 N 
ATOM      2  N   UNL     1       4.394 -15.709 -11.550  0.00  0.00    -0.372 N 
ATOM      3  N   UNL     1       4.079 -16.463  -9.406  0.00  0.00    -0.372 N 
ATOM      4  C   UNL     1       4.917 -16.159 -10.402  0.00  0.00    +0.166 C 
ATOM      5  H   UNL     1       6.824 -16.071 -11.086  0.00  0.00    +0.163 HD
ATOM      6  H   UNL     1       3.396 -15.596 -11.668  0.00  0.00    +0.159 HD
ATOM      7  H   UNL     1       4.978 -15.447 -12.335  0.00  0.00    +0.159 HD
ATOM      8  H   UNL     1       4.409 -16.814  -8.517  0.00  0.00    +0.159 HD
ATOM      9  H   UNL     1       3.076 -16.369  -9.509  0.00  0.00    +0.159 HD
ENDROOT
BRANCH   1  10
ATOM     10  C   UNL     1       6.917 -16.720  -9.059  0.00  0.00    +0.151 C 
BRANCH  10  11
ATOM     11  C   UNL     1       7.439 -18.118  -9.251  0.00  0.00    -0.028 A 
ATOM     12  C   UNL     1       7.706 -18.936  -8.143  0.00  0.00    +0.005 A 
ATOM     13  C   UNL     1       7.664 -18.631 -10.537  0.00  0.00    +0.005 A 
ATOM     14  C   UNL     1       8.162 -20.244  -8.321  0.00  0.00    +0.000 A 
ATOM     15  C   UNL     1       8.120 -19.938 -10.711  0.00  0.00    +0.000 A 
ATOM     16  C   UNL     1       8.367 -20.745  -9.602  0.00  0.00    +0.000 A 
ENDBRANCH  10  11
ENDBRANCH   1  10
TORSDOF 2
ENDMDL
MODEL 9
REMARK VINA RESULT:    -5.059      1.554      2.391
REMARK INTER + INTRA:          -5.785
REMARK INTER:                  -5.674
REMARK INTRA:                  -0.111
REMARK UNBOUND:                -0.134
REMARK  Name = 1550473
REMARK  2 active torsions:
REMARK  status: ('A' for Active; 'I' for Inactive)
REMARK    1  A    between atoms: N_1  and  C_4
REMARK    2  A    between atoms: C_4  and  C_5
REMARK                            x       y       z     vdW  Elec       q    Type
REMARK                         _______ _______ _______ _____ _____    ______ ____
ROOT
ATOM      1  N   UNL     1       7.828   2.563  10.676  0.00  0.00    -0.354 N 
ATOM      2  N   UNL     1       8.459   4.670  11.399  0.00  0.00    -0.372 N 
ATOM      3  N   UNL     1      10.087   3.114  10.962  0.00  0.00    -0.372 N 
ATOM      4  C   UNL     1       8.790   3.434  11.008  0.00  0.00    +0.166 C 
ATOM      5  H   UNL     1       6.862   2.857  10.760  0.00  0.00    +0.163 HD
ATOM      6  H   UNL     1       9.163   5.351  11.652  0.00  0.00    +0.159 HD
ATOM      7  H   UNL     1       7.495   4.977  11.439  0.00  0.00    +0.159 HD
ATOM      8  H   UNL     1      10.403   2.195  10.681  0.00  0.00    +0.159 HD
ATOM      9  H   UNL     1      10.806   3.777  11.223  0.00  0.00    +0.159 HD
ENDROOT
BRANCH   1  10
ATOM     10  C   UNL     1       8.084   1.210  10.185  0.00  0.00    +0.151 C 
BRANCH  10  11
ATOM     11  C   UNL     1       6.813   0.409  10.267  0.00  0.00    -0.028 A 
ATOM     12  C   UNL     1       6.844  -0.936  10.665  0.00  0.00    +0.005 A 
ATOM     13  C   UNL     1       5.575   0.991   9.955  0.00  0.00    +0.005 A 
ATOM     14  C   UNL     1       5.661  -1.671  10.770  0.00  0.00    +0.000 A 
ATOM     15  C   UNL     1       4.397   0.253  10.060  0.00  0.00    +0.000 A 
ATOM     16  C   UNL     1       4.439  -1.077  10.470  0.00  0.00    +0.000 A 
ENDBRANCH  10  11
ENDBRANCH   1  10
TORSDOF 2
ENDMDL
