MODEL 1
REMARK VINA RESULT:    -6.147      0.000      0.000
REMARK INTER + INTRA:          -6.984
REMARK INTER:                  -6.866
REMARK INTRA:                  -0.118
REMARK UNBOUND:                -0.118
REMARK  Name = 1550473
REMARK  2 active torsions:
REMARK  status: ('A' for Active; 'I' for Inactive)
REMARK    1  A    between atoms: N_1  and  C_4
REMARK    2  A    between atoms: C_4  and  C_5
REMARK                            x       y       z     vdW  Elec       q    Type
REMARK                         _______ _______ _______ _____ _____    ______ ____
ROOT
ATOM      1  N   UNL     1       1.131  -7.535  -5.161  0.00  0.00    -0.354 N 
ATOM      2  N   UNL     1       0.075  -6.034  -3.748  0.00  0.00    -0.372 N 
ATOM      3  N   UNL     1      -1.065  -6.829  -5.573  0.00  0.00    -0.372 N 
ATOM      4  C   UNL     1       0.052  -6.810  -4.839  0.00  0.00    +0.166 C 
ATOM      5  H   UNL     1       1.957  -7.453  -4.580  0.00  0.00    +0.163 HD
ATOM      6  H   UNL     1      -0.725  -5.478  -3.478  0.00  0.00    +0.159 HD
ATOM      7  H   UNL     1       0.886  -5.989  -3.143  0.00  0.00    +0.159 HD
ATOM      8  H   UNL     1      -1.145  -7.389  -6.412  0.00  0.00    +0.159 HD
ATOM      9  H   UNL     1      -1.873  -6.271  -5.326  0.00  0.00    +0.159 HD
ENDROOT
BRANCH   1  10
ATOM     10  C   UNL     1       1.190  -8.453  -6.298  0.00  0.00    +0.151 C 
BRANCH  10  11
ATOM     11  C   UNL     1       2.629  -8.685  -6.667  0.00  0.00    -0.028 A 
ATOM     12  C   UNL     1       3.636  -8.604  -5.694  0.00  0.00    +0.005 A 
ATOM     13  C   UNL     1       2.991  -8.992  -7.988  0.00  0.00    +0.005 A 
ATOM     14  C   UNL     1       4.969  -8.849  -6.031  0.00  0.00    +0.000 A 
ATOM     15  C   UNL     1       4.324  -9.235  -8.320  0.00  0.00    +0.000 A 
ATOM     16  C   UNL     1       5.312  -9.166  -7.341  0.00  0.00    +0.000 A 
ENDBRANCH  10  11
ENDBRANCH   1  10
TORSDOF 2
ENDMDL
MODEL 2
REMARK VINA RESULT:    -6.084      0.247      1.472
REMARK INTER + INTRA:          -6.913
REMARK INTER:                  -6.797
REMARK INTRA:                  -0.116
REMARK UNBOUND:                -0.118
REMARK  Name = 1550473
REMARK  2 active torsions:
REMARK  status: ('A' for Active; 'I' for Inactive)
REMARK    1  A    between atoms: N_1  and  C_4
REMARK    2  A    between atoms: C_4  and  C_5
REMARK                            x       y       z     vdW  Elec       q    Type
REMARK                         _______ _______ _______ _____ _____    ______ ____
ROOT
ATOM      1  N   UNL     1       1.063  -7.537  -4.932  0.00  0.00    -0.354 N 
ATOM      2  N   UNL     1       0.025  -5.867  -3.708  0.00  0.00    -0.372 N 
ATOM      3  N   UNL     1      -1.080  -6.780  -5.500  0.00  0.00    -0.372 N 
ATOM      4  C   UNL     1       0.008  -6.739  -4.724  0.00  0.00    +0.166 C 
ATOM      5  H   UNL     1       1.870  -7.436  -4.326  0.00  0.00    +0.163 HD
ATOM      6  H   UNL     1      -0.759  -5.255  -3.524  0.00  0.00    +0.159 HD
ATOM      7  H   UNL     1       0.813  -5.801  -3.076  0.00  0.00    +0.159 HD
ATOM      8  H   UNL     1      -1.154  -7.411  -6.286  0.00  0.00    +0.159 HD
ATOM      9  H   UNL     1      -1.870  -6.167  -5.339  0.00  0.00    +0.159 HD
ENDROOT
BRANCH   1  10
ATOM     10  C   UNL     1       1.123  -8.558  -5.977  0.00  0.00    +0.151 C 
BRANCH  10  11
ATOM     11  C   UNL     1       2.540  -8.673  -6.470  0.00  0.00    -0.028 A 
ATOM     12  C   UNL     1       2.806  -8.845  -7.836  0.00  0.00    +0.005 A 
ATOM     13  C   UNL     1       3.619  -8.607  -5.576  0.00  0.00    +0.005 A 
ATOM     14  C   UNL     1       4.122  -8.922  -8.298  0.00  0.00    +0.000 A 
ATOM     15  C   UNL     1       4.932  -8.686  -6.041  0.00  0.00    +0.000 A 
ATOM     16  C   UNL     1       5.183  -8.841  -7.402  0.00  0.00    +0.000 A 
ENDBRANCH  10  11
ENDBRANCH   1  10
TORSDOF 2
ENDMDL
MODEL 3
REMARK VINA RESULT:    -5.624      1.653      2.447
REMARK INTER + INTRA:          -6.400
REMARK INTER:                  -6.248
REMARK INTRA:                  -0.152
REMARK UNBOUND:                -0.118
REMARK  Name = 1550473
REMARK  2 active torsions:
REMARK  status: ('A' for Active; 'I' for Inactive)
REMARK    1  A    between atoms: N_1  and  C_4
REMARK    2  A    between atoms: C_4  and  C_5
REMARK                            x       y       z     vdW  Elec       q    Type
REMARK                         _______ _______ _______ _____ _____    ______ ____
ROOT
ATOM      1  N   UNL     1       1.165  -7.486  -4.940  0.00  0.00    -0.354 N 
ATOM      2  N   UNL     1      -0.046  -5.815  -3.889  0.00  0.00    -0.372 N 
ATOM      3  N   UNL     1      -1.040  -7.011  -5.576  0.00  0.00    -0.372 N 
ATOM      4  C   UNL     1       0.033  -6.782  -4.811  0.00  0.00    +0.166 C 
ATOM      5  H   UNL     1       1.953  -7.243  -4.350  0.00  0.00    +0.163 HD
ATOM      6  H   UNL     1      -0.889  -5.270  -3.766  0.00  0.00    +0.159 HD
ATOM      7  H   UNL     1       0.727  -5.605  -3.269  0.00  0.00    +0.159 HD
ATOM      8  H   UNL     1      -1.043  -7.723  -6.294  0.00  0.00    +0.159 HD
ATOM      9  H   UNL     1      -1.888  -6.468  -5.476  0.00  0.00    +0.159 HD
ENDROOT
BRANCH   1  10
ATOM     10  C   UNL     1       1.336  -8.595  -5.876  0.00  0.00    +0.151 C 
BRANCH  10  11
ATOM     11  C   UNL     1       1.859  -8.061  -7.181  0.00  0.00    -0.028 A 
ATOM     12  C   UNL     1       1.124  -8.228  -8.364  0.00  0.00    +0.005 A 
ATOM     13  C   UNL     1       3.086  -7.383  -7.240  0.00  0.00    +0.005 A 
ATOM     14  C   UNL     1       1.595  -7.705  -9.571  0.00  0.00    +0.000 A 
ATOM     15  C   UNL     1       3.553  -6.864  -8.448  0.00  0.00    +0.000 A 
ATOM     16  C   UNL     1       2.806  -7.023  -9.612  0.00  0.00    +0.000 A 
ENDBRANCH  10  11
ENDBRANCH   1  10
TORSDOF 2
ENDMDL
MODEL 4
REMARK VINA RESULT:    -5.529      3.131      4.825
REMARK INTER + INTRA:          -6.293
REMARK INTER:                  -6.163
REMARK INTRA:                  -0.130
REMARK UNBOUND:                -0.118
REMARK  Name = 1550473
REMARK  2 active torsions:
REMARK  status: ('A' for Active; 'I' for Inactive)
REMARK    1  A    between atoms: N_1  and  C_4
REMARK    2  A    between atoms: C_4  and  C_5
REMARK                            x       y       z     vdW  Elec       q    Type
REMARK                         _______ _______ _______ _____ _____    ______ ____
ROOT
ATOM      1  N   UNL     1       2.150  -8.389  -7.105  0.00  0.00    -0.354 N 
ATOM      2  N   UNL     1       3.221  -8.386  -5.051  0.00  0.00    -0.372 N 
ATOM      3  N   UNL     1       3.038  -6.414  -6.210  0.00  0.00    -0.372 N 
ATOM      4  C   UNL     1       2.796  -7.727  -6.136  0.00  0.00    +0.166 C 
ATOM      5  H   UNL     1       2.025  -9.390  -7.003  0.00  0.00    +0.163 HD
ATOM      6  H   UNL     1       3.708  -7.912  -4.302  0.00  0.00    +0.159 HD
ATOM      7  H   UNL     1       3.054  -9.377  -4.931  0.00  0.00    +0.159 HD
ATOM      8  H   UNL     1       2.749  -5.860  -7.005  0.00  0.00    +0.159 HD
ATOM      9  H   UNL     1       3.535  -5.924  -5.476  0.00  0.00    +0.159 HD
ENDROOT
BRANCH   1  10
ATOM     10  C   UNL     1       1.600  -7.755  -8.302  0.00  0.00    +0.151 C 
BRANCH  10  11
ATOM     11  C   UNL     1       0.396  -8.532  -8.760  0.00  0.00    -0.028 A 
ATOM     12  C   UNL     1      -0.086  -8.390 -10.069  0.00  0.00    +0.005 A 
ATOM     13  C   UNL     1      -0.263  -9.415  -7.891  0.00  0.00    +0.005 A 
ATOM     14  C   UNL     1      -1.186  -9.134 -10.504  0.00  0.00    +0.000 A 
ATOM     15  C   UNL     1      -1.361 -10.154  -8.328  0.00  0.00    +0.000 A 
ATOM     16  C   UNL     1      -1.821 -10.016  -9.636  0.00  0.00    +0.000 A 
ENDBRANCH  10  11
ENDBRANCH   1  10
TORSDOF 2
ENDMDL
MODEL 5
REMARK VINA RESULT:    -5.386     14.320     15.573
REMARK INTER + INTRA:          -6.133
REMARK INTER:                  -6.000
REMARK INTRA:                  -0.134
REMARK UNBOUND:                -0.118
REMARK  Name = 1550473
REMARK  2 active torsions:
REMARK  status: ('A' for Active; 'I' for Inactive)
REMARK    1  A    between atoms: N_1  and  C_4
REMARK    2  A    between atoms: C_4  and  C_5
REMARK                            x       y       z     vdW  Elec       q    Type
REMARK                         _______ _______ _______ _____ _____    ______ ____
ROOT
ATOM      1  N   UNL     1     -10.352  -7.602   3.075  0.00  0.00    -0.354 N 
ATOM      2  N   UNL     1     -10.402  -5.714   1.734  0.00  0.00    -0.372 N 
ATOM      3  N   UNL     1     -10.339  -5.455   4.013  0.00  0.00    -0.372 N 
ATOM      4  C   UNL     1     -10.365  -6.268   2.952  0.00  0.00    +0.166 C 
ATOM      5  H   UNL     1     -10.404  -8.163   2.233  0.00  0.00    +0.163 HD
ATOM      6  H   UNL     1     -10.409  -4.711   1.610  0.00  0.00    +0.159 HD
ATOM      7  H   UNL     1     -10.407  -6.277   0.893  0.00  0.00    +0.159 HD
ATOM      8  H   UNL     1     -10.316  -5.810   4.960  0.00  0.00    +0.159 HD
ATOM      9  H   UNL     1     -10.357  -4.448   3.910  0.00  0.00    +0.159 HD
ENDROOT
BRANCH   1  10
ATOM     10  C   UNL     1     -10.258  -8.305   4.353  0.00  0.00    +0.151 C 
BRANCH  10  11
ATOM     11  C   UNL     1      -9.466  -9.569   4.162  0.00  0.00    -0.028 A 
ATOM     12  C   UNL     1      -8.772  -9.800   2.965  0.00  0.00    +0.005 A 
ATOM     13  C   UNL     1      -9.401 -10.537   5.175  0.00  0.00    +0.005 A 
ATOM     14  C   UNL     1      -8.012 -10.960   2.798  0.00  0.00    +0.000 A 
ATOM     15  C   UNL     1      -8.642 -11.694   5.004  0.00  0.00    +0.000 A 
ATOM     16  C   UNL     1      -7.946 -11.904   3.817  0.00  0.00    +0.000 A 
ENDBRANCH  10  11
ENDBRANCH   1  10
TORSDOF 2
ENDMDL
MODEL 6
REMARK VINA RESULT:    -5.311      2.786      4.392
REMARK INTER + INTRA:          -6.050
REMARK INTER:                  -5.915
REMARK INTRA:                  -0.135
REMARK UNBOUND:                -0.118
REMARK  Name = 1550473
REMARK  2 active torsions:
REMARK  status: ('A' for Active; 'I' for Inactive)
REMARK    1  A    between atoms: N_1  and  C_4
REMARK    2  A    between atoms: C_4  and  C_5
REMARK                            x       y       z     vdW  Elec       q    Type
REMARK                         _______ _______ _______ _____ _____    ______ ____
ROOT
ATOM      1  N   UNL     1       3.122  -6.870  -7.341  0.00  0.00    -0.354 N 
ATOM      2  N   UNL     1       4.375  -5.337  -6.140  0.00  0.00    -0.372 N 
ATOM      3  N   UNL     1       5.350  -7.317  -6.767  0.00  0.00    -0.372 N 
ATOM      4  C   UNL     1       4.276  -6.520  -6.758  0.00  0.00    +0.166 C 
ATOM      5  H   UNL     1       2.336  -6.234  -7.273  0.00  0.00    +0.163 HD
ATOM      6  H   UNL     1       5.234  -5.044  -5.694  0.00  0.00    +0.159 HD
ATOM      7  H   UNL     1       3.601  -4.684  -6.113  0.00  0.00    +0.159 HD
ATOM      8  H   UNL     1       5.338  -8.225  -7.211  0.00  0.00    +0.159 HD
ATOM      9  H   UNL     1       6.215  -7.047  -6.316  0.00  0.00    +0.159 HD
ENDROOT
BRANCH   1  10
ATOM     10  C   UNL     1       2.926  -8.113  -8.086  0.00  0.00    +0.151 C 
BRANCH  10  11
ATOM     11  C   UNL     1       1.552  -8.649  -7.794  0.00  0.00    -0.028 A 
ATOM     12  C   UNL     1       0.957  -8.441  -6.541  0.00  0.00    +0.005 A 
ATOM     13  C   UNL     1       0.836  -9.360  -8.769  0.00  0.00    +0.005 A 
ATOM     14  C   UNL     1      -0.331  -8.912  -6.280  0.00  0.00    +0.000 A 
ATOM     15  C   UNL     1      -0.451  -9.830  -8.504  0.00  0.00    +0.000 A 
ATOM     16  C   UNL     1      -1.035  -9.604  -7.260  0.00  0.00    +0.000 A 
ENDBRANCH  10  11
ENDBRANCH   1  10
TORSDOF 2
ENDMDL
MODEL 7
REMARK VINA RESULT:    -5.203     16.053     17.558
REMARK INTER + INTRA:          -5.929
REMARK INTER:                  -5.806
REMARK INTRA:                  -0.123
REMARK UNBOUND:                -0.118
REMARK  Name = 1550473
REMARK  2 active torsions:
REMARK  status: ('A' for Active; 'I' for Inactive)
REMARK    1  A    between atoms: N_1  and  C_4
REMARK    2  A    between atoms: C_4  and  C_5
REMARK                            x       y       z     vdW  Elec       q    Type
REMARK                         _______ _______ _______ _____ _____    ______ ____
ROOT
ATOM      1  N   UNL     1     -12.815  -2.369   3.069  0.00  0.00    -0.354 N 
ATOM      2  N   UNL     1     -14.163  -0.740   4.016  0.00  0.00    -0.372 N 
ATOM      3  N   UNL     1     -13.334  -0.403   1.903  0.00  0.00    -0.372 N 
ATOM      4  C   UNL     1     -13.428  -1.180   2.987  0.00  0.00    +0.166 C 
ATOM      5  H   UNL     1     -12.901  -2.896   3.930  0.00  0.00    +0.163 HD
ATOM      6  H   UNL     1     -14.639   0.151   3.982  0.00  0.00    +0.159 HD
ATOM      7  H   UNL     1     -14.284  -1.290   4.858  0.00  0.00    +0.159 HD
ATOM      8  H   UNL     1     -12.790  -0.675   1.095  0.00  0.00    +0.159 HD
ATOM      9  H   UNL     1     -13.794   0.497   1.854  0.00  0.00    +0.159 HD
ENDROOT
BRANCH   1  10
ATOM     10  C   UNL     1     -12.036  -2.963   1.984  0.00  0.00    +0.151 C 
BRANCH  10  11
ATOM     11  C   UNL     1     -11.464  -4.273   2.451  0.00  0.00    -0.028 A 
ATOM     12  C   UNL     1     -10.652  -5.038   1.602  0.00  0.00    +0.005 A 
ATOM     13  C   UNL     1     -11.725  -4.751   3.745  0.00  0.00    +0.005 A 
ATOM     14  C   UNL     1     -10.095  -6.240   2.046  0.00  0.00    +0.000 A 
ATOM     15  C   UNL     1     -11.168  -5.952   4.184  0.00  0.00    +0.000 A 
ATOM     16  C   UNL     1     -10.351  -6.695   3.335  0.00  0.00    +0.000 A 
ENDBRANCH  10  11
ENDBRANCH   1  10
TORSDOF 2
ENDMDL
MODEL 8
REMARK VINA RESULT:    -5.184      2.949      3.799
REMARK INTER + INTRA:          -5.908
REMARK INTER:                  -5.785
REMARK INTRA:                  -0.123
REMARK UNBOUND:                -0.118
REMARK  Name = 1550473
REMARK  2 active torsions:
REMARK  status: ('A' for Active; 'I' for Inactive)
REMARK    1  A    between atoms: N_1  and  C_4
REMARK    2  A    between atoms: C_4  and  C_5
REMARK                            x       y       z     vdW  Elec       q    Type
REMARK                         _______ _______ _______ _____ _____    ______ ____
ROOT
ATOM      1  N   UNL     1       1.078  -7.840  -9.285  0.00  0.00    -0.354 N 
ATOM      2  N   UNL     1       0.359  -7.350 -11.431  0.00  0.00    -0.372 N 
ATOM      3  N   UNL     1      -1.032  -8.528 -10.037  0.00  0.00    -0.372 N 
ATOM      4  C   UNL     1       0.138  -7.911 -10.236  0.00  0.00    +0.166 C 
ATOM      5  H   UNL     1       1.956  -7.384  -9.509  0.00  0.00    +0.163 HD
ATOM      6  H   UNL     1      -0.334  -7.385 -12.167  0.00  0.00    +0.159 HD
ATOM      7  H   UNL     1       1.218  -6.856 -11.637  0.00  0.00    +0.159 HD
ATOM      8  H   UNL     1      -1.258  -8.976  -9.159  0.00  0.00    +0.159 HD
ATOM      9  H   UNL     1      -1.733  -8.583 -10.765  0.00  0.00    +0.159 HD
ENDROOT
BRANCH   1  10
ATOM     10  C   UNL     1       0.916  -8.370  -7.933  0.00  0.00    +0.151 C 
BRANCH  10  11
ATOM     11  C   UNL     1       2.274  -8.597  -7.327  0.00  0.00    -0.028 A 
ATOM     12  C   UNL     1       3.356  -8.982  -8.131  0.00  0.00    +0.005 A 
ATOM     13  C   UNL     1       2.485  -8.422  -5.951  0.00  0.00    +0.005 A 
ATOM     14  C   UNL     1       4.624  -9.164  -7.574  0.00  0.00    +0.000 A 
ATOM     15  C   UNL     1       3.753  -8.605  -5.398  0.00  0.00    +0.000 A 
ATOM     16  C   UNL     1       4.823  -8.974  -6.211  0.00  0.00    +0.000 A 
ENDBRANCH  10  11
ENDBRANCH   1  10
TORSDOF 2
ENDMDL
MODEL 9
REMARK VINA RESULT:    -4.917      3.513      4.434
REMARK INTER + INTRA:          -5.610
REMARK INTER:                  -5.460
REMARK INTRA:                  -0.150
REMARK UNBOUND:                -0.118
REMARK  Name = 1550473
REMARK  2 active torsions:
REMARK  status: ('A' for Active; 'I' for Inactive)
REMARK    1  A    between atoms: N_1  and  C_4
REMARK    2  A    between atoms: C_4  and  C_5
REMARK                            x       y       z     vdW  Elec       q    Type
REMARK                         _______ _______ _______ _____ _____    ______ ____
ROOT
ATOM      1  N   UNL     1       2.056  -9.189 -10.308  0.00  0.00    -0.354 N 
ATOM      2  N   UNL     1       2.408  -8.260 -12.400  0.00  0.00    -0.372 N 
ATOM      3  N   UNL     1       0.819  -7.334 -11.029  0.00  0.00    -0.372 N 
ATOM      4  C   UNL     1       1.757  -8.265 -11.231  0.00  0.00    +0.166 C 
ATOM      5  H   UNL     1       2.756  -9.887 -10.535  0.00  0.00    +0.163 HD
ATOM      6  H   UNL     1       2.206  -7.573 -13.115  0.00  0.00    +0.159 HD
ATOM      7  H   UNL     1       3.139  -8.930 -12.606  0.00  0.00    +0.159 HD
ATOM      8  H   UNL     1       0.287  -7.287 -10.170  0.00  0.00    +0.159 HD
ATOM      9  H   UNL     1       0.594  -6.645 -11.736  0.00  0.00    +0.159 HD
ENDROOT
BRANCH   1  10
ATOM     10  C   UNL     1       1.443  -9.249  -8.983  0.00  0.00    +0.151 C 
BRANCH  10  11
ATOM     11  C   UNL     1       2.506  -9.037  -7.940  0.00  0.00    -0.028 A 
ATOM     12  C   UNL     1       2.165  -8.586  -6.657  0.00  0.00    +0.005 A 
ATOM     13  C   UNL     1       3.856  -9.291  -8.228  0.00  0.00    +0.005 A 
ATOM     14  C   UNL     1       3.148  -8.418  -5.679  0.00  0.00    +0.000 A 
ATOM     15  C   UNL     1       4.835  -9.121  -7.249  0.00  0.00    +0.000 A 
ATOM     16  C   UNL     1       4.480  -8.687  -5.974  0.00  0.00    +0.000 A 
ENDBRANCH  10  11
ENDBRANCH   1  10
TORSDOF 2
ENDMDL
