MODEL 1
REMARK VINA RESULT:    -5.795      0.000      0.000
REMARK INTER + INTRA:          -6.569
REMARK INTER:                  -6.473
REMARK INTRA:                  -0.096
REMARK UNBOUND:                -0.096
REMARK  Name = 1550473
REMARK  2 active torsions:
REMARK  status: ('A' for Active; 'I' for Inactive)
REMARK    1  A    between atoms: N_1  and  C_4
REMARK    2  A    between atoms: C_4  and  C_5
REMARK                            x       y       z     vdW  Elec       q    Type
REMARK                         _______ _______ _______ _____ _____    ______ ____
ROOT
ATOM      1  N   UNL     1      13.165   1.978  -6.087  0.00  0.00    -0.354 N 
ATOM      2  N   UNL     1      13.913   0.278  -4.703  0.00  0.00    -0.372 N 
ATOM      3  N   UNL     1      12.815  -0.272  -6.642  0.00  0.00    -0.372 N 
ATOM      4  C   UNL     1      13.291   0.671  -5.821  0.00  0.00    +0.166 C 
ATOM      5  H   UNL     1      13.521   2.643  -5.410  0.00  0.00    +0.163 HD
ATOM      6  H   UNL     1      14.026  -0.702  -4.478  0.00  0.00    +0.159 HD
ATOM      7  H   UNL     1      14.308   0.944  -4.051  0.00  0.00    +0.159 HD
ATOM      8  H   UNL     1      12.331  -0.041  -7.499  0.00  0.00    +0.159 HD
ATOM      9  H   UNL     1      12.909  -1.257  -6.428  0.00  0.00    +0.159 HD
ENDROOT
BRANCH   1  10
ATOM     10  C   UNL     1      12.553   2.510  -7.303  0.00  0.00    +0.151 C 
BRANCH  10  11
ATOM     11  C   UNL     1      13.061   3.906  -7.538  0.00  0.00    -0.028 A 
ATOM     12  C   UNL     1      13.879   4.189  -8.642  0.00  0.00    +0.005 A 
ATOM     13  C   UNL     1      12.723   4.950  -6.664  0.00  0.00    +0.005 A 
ATOM     14  C   UNL     1      14.326   5.491  -8.877  0.00  0.00    +0.000 A 
ATOM     15  C   UNL     1      13.172   6.249  -6.903  0.00  0.00    +0.000 A 
ATOM     16  C   UNL     1      13.972   6.519  -8.011  0.00  0.00    +0.000 A 
ENDBRANCH  10  11
ENDBRANCH   1  10
TORSDOF 2
ENDMDL
MODEL 2
REMARK VINA RESULT:    -5.743     22.767     23.723
REMARK INTER + INTRA:          -6.511
REMARK INTER:                  -6.414
REMARK INTRA:                  -0.097
REMARK UNBOUND:                -0.096
REMARK  Name = 1550473
REMARK  2 active torsions:
REMARK  status: ('A' for Active; 'I' for Inactive)
REMARK    1  A    between atoms: N_1  and  C_4
REMARK    2  A    between atoms: C_4  and  C_5
REMARK                            x       y       z     vdW  Elec       q    Type
REMARK                         _______ _______ _______ _____ _____    ______ ____
ROOT
ATOM      1  N   UNL     1      -9.328  -5.276  -7.297  0.00  0.00    -0.354 N 
ATOM      2  N   UNL     1     -10.200  -5.857  -5.231  0.00  0.00    -0.372 N 
ATOM      3  N   UNL     1      -9.070  -7.444  -6.444  0.00  0.00    -0.372 N 
ATOM      4  C   UNL     1      -9.526  -6.191  -6.338  0.00  0.00    +0.166 C 
ATOM      5  H   UNL     1      -9.725  -4.352  -7.169  0.00  0.00    +0.163 HD
ATOM      6  H   UNL     1     -10.362  -6.525  -4.489  0.00  0.00    +0.159 HD
ATOM      7  H   UNL     1     -10.556  -4.920  -5.086  0.00  0.00    +0.159 HD
ATOM      8  H   UNL     1      -8.560  -7.761  -7.258  0.00  0.00    +0.159 HD
ATOM      9  H   UNL     1      -9.233  -8.130  -5.718  0.00  0.00    +0.159 HD
ENDROOT
BRANCH   1  10
ATOM     10  C   UNL     1      -8.562  -5.522  -8.517  0.00  0.00    +0.151 C 
BRANCH  10  11
ATOM     11  C   UNL     1      -8.583  -4.283  -9.369  0.00  0.00    -0.028 A 
ATOM     12  C   UNL     1      -9.229  -4.286 -10.613  0.00  0.00    +0.005 A 
ATOM     13  C   UNL     1      -7.963  -3.101  -8.934  0.00  0.00    +0.005 A 
ATOM     14  C   UNL     1      -9.275  -3.126 -11.391  0.00  0.00    +0.000 A 
ATOM     15  C   UNL     1      -8.010  -1.946  -9.714  0.00  0.00    +0.000 A 
ATOM     16  C   UNL     1      -8.668  -1.959 -10.942  0.00  0.00    +0.000 A 
ENDBRANCH  10  11
ENDBRANCH   1  10
TORSDOF 2
ENDMDL
MODEL 3
REMARK VINA RESULT:    -5.717      3.130      4.993
REMARK INTER + INTRA:          -6.482
REMARK INTER:                  -6.316
REMARK INTRA:                  -0.165
REMARK UNBOUND:                -0.096
REMARK  Name = 1550473
REMARK  2 active torsions:
REMARK  status: ('A' for Active; 'I' for Inactive)
REMARK    1  A    between atoms: N_1  and  C_4
REMARK    2  A    between atoms: C_4  and  C_5
REMARK                            x       y       z     vdW  Elec       q    Type
REMARK                         _______ _______ _______ _____ _____    ______ ____
ROOT
ATOM      1  N   UNL     1      15.074   4.694  -7.475  0.00  0.00    -0.354 N 
ATOM      2  N   UNL     1      16.367   4.887  -9.387  0.00  0.00    -0.372 N 
ATOM      3  N   UNL     1      17.313   4.002  -7.493  0.00  0.00    -0.372 N 
ATOM      4  C   UNL     1      16.245   4.525  -8.104  0.00  0.00    +0.166 C 
ATOM      5  H   UNL     1      14.311   5.124  -7.985  0.00  0.00    +0.163 HD
ATOM      6  H   UNL     1      17.237   4.770  -9.888  0.00  0.00    +0.159 HD
ATOM      7  H   UNL     1      15.589   5.275  -9.907  0.00  0.00    +0.159 HD
ATOM      8  H   UNL     1      17.288   3.714  -6.524  0.00  0.00    +0.159 HD
ATOM      9  H   UNL     1      18.196   3.887  -7.975  0.00  0.00    +0.159 HD
ENDROOT
BRANCH   1  10
ATOM     10  C   UNL     1      14.821   4.283  -6.095  0.00  0.00    +0.151 C 
BRANCH  10  11
ATOM     11  C   UNL     1      14.271   2.883  -6.092  0.00  0.00    -0.028 A 
ATOM     12  C   UNL     1      14.807   1.909  -5.237  0.00  0.00    +0.005 A 
ATOM     13  C   UNL     1      13.209   2.526  -6.938  0.00  0.00    +0.005 A 
ATOM     14  C   UNL     1      14.277   0.617  -5.212  0.00  0.00    +0.000 A 
ATOM     15  C   UNL     1      12.683   1.234  -6.911  0.00  0.00    +0.000 A 
ATOM     16  C   UNL     1      13.216   0.281  -6.046  0.00  0.00    +0.000 A 
ENDBRANCH  10  11
ENDBRANCH   1  10
TORSDOF 2
ENDMDL
MODEL 4
REMARK VINA RESULT:    -5.536      1.456      2.166
REMARK INTER + INTRA:          -6.280
REMARK INTER:                  -6.149
REMARK INTRA:                  -0.131
REMARK UNBOUND:                -0.096
REMARK  Name = 1550473
REMARK  2 active torsions:
REMARK  status: ('A' for Active; 'I' for Inactive)
REMARK    1  A    between atoms: N_1  and  C_4
REMARK    2  A    between atoms: C_4  and  C_5
REMARK                            x       y       z     vdW  Elec       q    Type
REMARK                         _______ _______ _______ _____ _____    ______ ____
ROOT
ATOM      1  N   UNL     1      14.071   1.988  -6.427  0.00  0.00    -0.354 N 
ATOM      2  N   UNL     1      12.812   0.067  -6.729  0.00  0.00    -0.372 N 
ATOM      3  N   UNL     1      13.502   0.620  -4.611  0.00  0.00    -0.372 N 
ATOM      4  C   UNL     1      13.470   0.904  -5.918  0.00  0.00    +0.166 C 
ATOM      5  H   UNL     1      14.036   2.131  -7.430  0.00  0.00    +0.163 HD
ATOM      6  H   UNL     1      12.347  -0.757  -6.373  0.00  0.00    +0.159 HD
ATOM      7  H   UNL     1      12.740   0.237  -7.725  0.00  0.00    +0.159 HD
ATOM      8  H   UNL     1      13.986   1.209  -3.947  0.00  0.00    +0.159 HD
ATOM      9  H   UNL     1      13.052  -0.206  -4.237  0.00  0.00    +0.159 HD
ENDROOT
BRANCH   1  10
ATOM     10  C   UNL     1      14.767   2.991  -5.623  0.00  0.00    +0.151 C 
BRANCH  10  11
ATOM     11  C   UNL     1      14.505   4.353  -6.203  0.00  0.00    -0.028 A 
ATOM     12  C   UNL     1      14.772   5.509  -5.453  0.00  0.00    +0.005 A 
ATOM     13  C   UNL     1      13.995   4.496  -7.502  0.00  0.00    +0.005 A 
ATOM     14  C   UNL     1      14.557   6.775  -6.002  0.00  0.00    +0.000 A 
ATOM     15  C   UNL     1      13.781   5.763  -8.046  0.00  0.00    +0.000 A 
ATOM     16  C   UNL     1      14.064   6.902  -7.297  0.00  0.00    +0.000 A 
ENDBRANCH  10  11
ENDBRANCH   1  10
TORSDOF 2
ENDMDL
MODEL 5
REMARK VINA RESULT:    -5.449      1.646      2.433
REMARK INTER + INTRA:          -6.182
REMARK INTER:                  -6.034
REMARK INTRA:                  -0.148
REMARK UNBOUND:                -0.096
REMARK  Name = 1550473
REMARK  2 active torsions:
REMARK  status: ('A' for Active; 'I' for Inactive)
REMARK    1  A    between atoms: N_1  and  C_4
REMARK    2  A    between atoms: C_4  and  C_5
REMARK                            x       y       z     vdW  Elec       q    Type
REMARK                         _______ _______ _______ _____ _____    ______ ____
ROOT
ATOM      1  N   UNL     1      13.105   2.410  -6.455  0.00  0.00    -0.354 N 
ATOM      2  N   UNL     1      12.788   0.133  -6.728  0.00  0.00    -0.372 N 
ATOM      3  N   UNL     1      11.973   1.565  -8.325  0.00  0.00    -0.372 N 
ATOM      4  C   UNL     1      12.623   1.385  -7.170  0.00  0.00    +0.166 C 
ATOM      5  H   UNL     1      13.561   2.209  -5.572  0.00  0.00    +0.163 HD
ATOM      6  H   UNL     1      12.438  -0.661  -7.248  0.00  0.00    +0.159 HD
ATOM      7  H   UNL     1      13.285  -0.068  -5.869  0.00  0.00    +0.159 HD
ATOM      8  H   UNL     1      11.810   2.486  -8.710  0.00  0.00    +0.159 HD
ATOM      9  H   UNL     1      11.605   0.784  -8.853  0.00  0.00    +0.159 HD
ENDROOT
BRANCH   1  10
ATOM     10  C   UNL     1      13.025   3.809  -6.874  0.00  0.00    +0.151 C 
BRANCH  10  11
ATOM     11  C   UNL     1      14.217   4.133  -7.732  0.00  0.00    -0.028 A 
ATOM     12  C   UNL     1      15.514   4.074  -7.201  0.00  0.00    +0.005 A 
ATOM     13  C   UNL     1      14.056   4.495  -9.078  0.00  0.00    +0.005 A 
ATOM     14  C   UNL     1      16.623   4.345  -8.006  0.00  0.00    +0.000 A 
ATOM     15  C   UNL     1      15.166   4.766  -9.878  0.00  0.00    +0.000 A 
ATOM     16  C   UNL     1      16.449   4.689  -9.342  0.00  0.00    +0.000 A 
ENDBRANCH  10  11
ENDBRANCH   1  10
TORSDOF 2
ENDMDL
MODEL 6
REMARK VINA RESULT:    -5.180     15.702     16.913
REMARK INTER + INTRA:          -5.882
REMARK INTER:                  -5.740
REMARK INTRA:                  -0.142
REMARK UNBOUND:                -0.096
REMARK  Name = 1550473
REMARK  2 active torsions:
REMARK  status: ('A' for Active; 'I' for Inactive)
REMARK    1  A    between atoms: N_1  and  C_4
REMARK    2  A    between atoms: C_4  and  C_5
REMARK                            x       y       z     vdW  Elec       q    Type
REMARK                         _______ _______ _______ _____ _____    ______ ____
ROOT
ATOM      1  N   UNL     1      -2.267  -3.880  -1.079  0.00  0.00    -0.354 N 
ATOM      2  N   UNL     1      -4.428  -4.686  -0.871  0.00  0.00    -0.372 N 
ATOM      3  N   UNL     1      -3.391  -4.808  -2.914  0.00  0.00    -0.372 N 
ATOM      4  C   UNL     1      -3.347  -4.453  -1.625  0.00  0.00    +0.166 C 
ATOM      5  H   UNL     1      -2.308  -3.607  -0.104  0.00  0.00    +0.163 HD
ATOM      6  H   UNL     1      -5.257  -5.120  -1.255  0.00  0.00    +0.159 HD
ATOM      7  H   UNL     1      -4.450  -4.453   0.114  0.00  0.00    +0.159 HD
ATOM      8  H   UNL     1      -2.610  -4.654  -3.538  0.00  0.00    +0.159 HD
ATOM      9  H   UNL     1      -4.215  -5.233  -3.319  0.00  0.00    +0.159 HD
ENDROOT
BRANCH   1  10
ATOM     10  C   UNL     1      -1.020  -3.632  -1.800  0.00  0.00    +0.151 C 
BRANCH  10  11
ATOM     11  C   UNL     1      -0.587  -2.212  -1.559  0.00  0.00    -0.028 A 
ATOM     12  C   UNL     1       0.741  -1.922  -1.211  0.00  0.00    +0.005 A 
ATOM     13  C   UNL     1      -1.497  -1.152  -1.683  0.00  0.00    +0.005 A 
ATOM     14  C   UNL     1       1.151  -0.601  -1.017  0.00  0.00    +0.000 A 
ATOM     15  C   UNL     1      -1.085   0.166  -1.488  0.00  0.00    +0.000 A 
ATOM     16  C   UNL     1       0.240   0.441  -1.157  0.00  0.00    +0.000 A 
ENDBRANCH  10  11
ENDBRANCH   1  10
TORSDOF 2
ENDMDL
MODEL 7
REMARK VINA RESULT:    -5.144     24.173     25.386
REMARK INTER + INTRA:          -5.842
REMARK INTER:                  -5.721
REMARK INTRA:                  -0.121
REMARK UNBOUND:                -0.096
REMARK  Name = 1550473
REMARK  2 active torsions:
REMARK  status: ('A' for Active; 'I' for Inactive)
REMARK    1  A    between atoms: N_1  and  C_4
REMARK    2  A    between atoms: C_4  and  C_5
REMARK                            x       y       z     vdW  Elec       q    Type
REMARK                         _______ _______ _______ _____ _____    ______ ____
ROOT
ATOM      1  N   UNL     1     -11.598  -6.579  -7.661  0.00  0.00    -0.354 N 
ATOM      2  N   UNL     1     -13.897  -6.674  -7.399  0.00  0.00    -0.372 N 
ATOM      3  N   UNL     1     -12.555  -7.445  -5.705  0.00  0.00    -0.372 N 
ATOM      4  C   UNL     1     -12.667  -6.900  -6.921  0.00  0.00    +0.166 C 
ATOM      5  H   UNL     1     -11.750  -6.198  -8.587  0.00  0.00    +0.163 HD
ATOM      6  H   UNL     1     -14.723  -6.903  -6.862  0.00  0.00    +0.159 HD
ATOM      7  H   UNL     1     -14.046  -6.250  -8.306  0.00  0.00    +0.159 HD
ATOM      8  H   UNL     1     -11.655  -7.646  -5.289  0.00  0.00    +0.159 HD
ATOM      9  H   UNL     1     -13.369  -7.691  -5.157  0.00  0.00    +0.159 HD
ENDROOT
BRANCH   1  10
ATOM     10  C   UNL     1     -10.215  -6.735  -7.211  0.00  0.00    +0.151 C 
BRANCH  10  11
ATOM     11  C   UNL     1      -9.469  -5.454  -7.465  0.00  0.00    -0.028 A 
ATOM     12  C   UNL     1      -9.330  -4.498  -6.448  0.00  0.00    +0.005 A 
ATOM     13  C   UNL     1      -8.894  -5.193  -8.718  0.00  0.00    +0.005 A 
ATOM     14  C   UNL     1      -8.612  -3.321  -6.674  0.00  0.00    +0.000 A 
ATOM     15  C   UNL     1      -8.178  -4.017  -8.940  0.00  0.00    +0.000 A 
ATOM     16  C   UNL     1      -8.035  -3.082  -7.917  0.00  0.00    +0.000 A 
ENDBRANCH  10  11
ENDBRANCH   1  10
TORSDOF 2
ENDMDL
MODEL 8
REMARK VINA RESULT:    -5.081     24.820     25.933
REMARK INTER + INTRA:          -5.771
REMARK INTER:                  -5.603
REMARK INTRA:                  -0.168
REMARK UNBOUND:                -0.096
REMARK  Name = 1550473
REMARK  2 active torsions:
REMARK  status: ('A' for Active; 'I' for Inactive)
REMARK    1  A    between atoms: N_1  and  C_4
REMARK    2  A    between atoms: C_4  and  C_5
REMARK                            x       y       z     vdW  Elec       q    Type
REMARK                         _______ _______ _______ _____ _____    ______ ____
ROOT
ATOM      1  N   UNL     1       5.575  14.621  16.607  0.00  0.00    -0.354 N 
ATOM      2  N   UNL     1       6.298  15.538  18.608  0.00  0.00    -0.372 N 
ATOM      3  N   UNL     1       7.114  16.388  16.639  0.00  0.00    -0.372 N 
ATOM      4  C   UNL     1       6.326  15.511  17.270  0.00  0.00    +0.166 C 
ATOM      5  H   UNL     1       5.021  13.964  17.145  0.00  0.00    +0.163 HD
ATOM      6  H   UNL     1       6.851  16.200  19.134  0.00  0.00    +0.159 HD
ATOM      7  H   UNL     1       5.709  14.910  19.141  0.00  0.00    +0.159 HD
ATOM      8  H   UNL     1       7.185  16.415  15.630  0.00  0.00    +0.159 HD
ATOM      9  H   UNL     1       7.684  17.051  17.149  0.00  0.00    +0.159 HD
ENDROOT
BRANCH   1  10
ATOM     10  C   UNL     1       5.492  14.545  15.150  0.00  0.00    +0.151 C 
BRANCH  10  11
ATOM     11  C   UNL     1       6.408  13.456  14.662  0.00  0.00    -0.028 A 
ATOM     12  C   UNL     1       6.438  12.210  15.305  0.00  0.00    +0.005 A 
ATOM     13  C   UNL     1       7.244  13.663  13.554  0.00  0.00    +0.005 A 
ATOM     14  C   UNL     1       7.267  11.189  14.834  0.00  0.00    +0.000 A 
ATOM     15  C   UNL     1       8.070  12.641  13.088  0.00  0.00    +0.000 A 
ATOM     16  C   UNL     1       8.080  11.403  13.726  0.00  0.00    +0.000 A 
ENDBRANCH  10  11
ENDBRANCH   1  10
TORSDOF 2
ENDMDL
MODEL 9
REMARK VINA RESULT:    -4.928      3.195      5.064
REMARK INTER + INTRA:          -5.601
REMARK INTER:                  -5.438
REMARK INTRA:                  -0.163
REMARK UNBOUND:                -0.096
REMARK  Name = 1550473
REMARK  2 active torsions:
REMARK  status: ('A' for Active; 'I' for Inactive)
REMARK    1  A    between atoms: N_1  and  C_4
REMARK    2  A    between atoms: C_4  and  C_5
REMARK                            x       y       z     vdW  Elec       q    Type
REMARK                         _______ _______ _______ _____ _____    ______ ____
ROOT
ATOM      1  N   UNL     1      13.671   5.839  -8.014  0.00  0.00    -0.354 N 
ATOM      2  N   UNL     1      13.932   6.366 -10.254  0.00  0.00    -0.372 N 
ATOM      3  N   UNL     1      15.802   6.016  -8.972  0.00  0.00    -0.372 N 
ATOM      4  C   UNL     1      14.470   6.070  -9.065  0.00  0.00    +0.166 C 
ATOM      5  H   UNL     1      12.669   5.925  -8.142  0.00  0.00    +0.163 HD
ATOM      6  H   UNL     1      14.509   6.543 -11.066  0.00  0.00    +0.159 HD
ATOM      7  H   UNL     1      12.929   6.406 -10.390  0.00  0.00    +0.159 HD
ATOM      8  H   UNL     1      16.271   5.804  -8.101  0.00  0.00    +0.159 HD
ATOM      9  H   UNL     1      16.397   6.201  -9.770  0.00  0.00    +0.159 HD
ENDROOT
BRANCH   1  10
ATOM     10  C   UNL     1      14.154   5.456  -6.689  0.00  0.00    +0.151 C 
BRANCH  10  11
ATOM     11  C   UNL     1      13.939   3.980  -6.494  0.00  0.00    -0.028 A 
ATOM     12  C   UNL     1      12.824   3.343  -7.059  0.00  0.00    +0.005 A 
ATOM     13  C   UNL     1      14.849   3.212  -5.751  0.00  0.00    +0.005 A 
ATOM     14  C   UNL     1      12.639   1.967  -6.904  0.00  0.00    +0.000 A 
ATOM     15  C   UNL     1      14.660   1.839  -5.598  0.00  0.00    +0.000 A 
ATOM     16  C   UNL     1      13.557   1.216  -6.177  0.00  0.00    +0.000 A 
ENDBRANCH  10  11
ENDBRANCH   1  10
TORSDOF 2
ENDMDL
