MODEL 1
REMARK VINA RESULT:    -6.064      0.000      0.000
REMARK INTER + INTRA:          -6.897
REMARK INTER:                  -6.773
REMARK INTRA:                  -0.124
REMARK UNBOUND:                -0.124
REMARK  Name = 1550473
REMARK  2 active torsions:
REMARK  status: ('A' for Active; 'I' for Inactive)
REMARK    1  A    between atoms: N_1  and  C_4
REMARK    2  A    between atoms: C_4  and  C_5
REMARK                            x       y       z     vdW  Elec       q    Type
REMARK                         _______ _______ _______ _____ _____    ______ ____
ROOT
ATOM      1  N   UNL     1       7.235   7.854   1.921  0.00  0.00    -0.354 N 
ATOM      2  N   UNL     1       5.637   9.376   2.626  0.00  0.00    -0.372 N 
ATOM      3  N   UNL     1       7.430  10.133   1.410  0.00  0.00    -0.372 N 
ATOM      4  C   UNL     1       6.780   9.113   1.980  0.00  0.00    +0.166 C 
ATOM      5  H   UNL     1       6.711   7.130   2.400  0.00  0.00    +0.163 HD
ATOM      6  H   UNL     1       5.267  10.315   2.684  0.00  0.00    +0.159 HD
ATOM      7  H   UNL     1       5.092   8.644   3.064  0.00  0.00    +0.159 HD
ATOM      8  H   UNL     1       8.301  10.002   0.913  0.00  0.00    +0.159 HD
ATOM      9  H   UNL     1       7.082  11.082   1.467  0.00  0.00    +0.159 HD
ENDROOT
BRANCH   1  10
ATOM     10  C   UNL     1       8.439   7.453   1.197  0.00  0.00    +0.151 C 
BRANCH  10  11
ATOM     11  C   UNL     1       8.789   6.039   1.571  0.00  0.00    -0.028 A 
ATOM     12  C   UNL     1       9.892   5.400   0.985  0.00  0.00    +0.005 A 
ATOM     13  C   UNL     1       8.025   5.334   2.513  0.00  0.00    +0.005 A 
ATOM     14  C   UNL     1      10.235   4.097   1.354  0.00  0.00    +0.000 A 
ATOM     15  C   UNL     1       8.370   4.033   2.878  0.00  0.00    +0.000 A 
ATOM     16  C   UNL     1       9.477   3.416   2.300  0.00  0.00    +0.000 A 
ENDBRANCH  10  11
ENDBRANCH   1  10
TORSDOF 2
ENDMDL
MODEL 2
REMARK VINA RESULT:    -6.060      0.092      1.457
REMARK INTER + INTRA:          -6.892
REMARK INTER:                  -6.765
REMARK INTRA:                  -0.127
REMARK UNBOUND:                -0.124
REMARK  Name = 1550473
REMARK  2 active torsions:
REMARK  status: ('A' for Active; 'I' for Inactive)
REMARK    1  A    between atoms: N_1  and  C_4
REMARK    2  A    between atoms: C_4  and  C_5
REMARK                            x       y       z     vdW  Elec       q    Type
REMARK                         _______ _______ _______ _____ _____    ______ ____
ROOT
ATOM      1  N   UNL     1       7.155   7.878   1.874  0.00  0.00    -0.354 N 
ATOM      2  N   UNL     1       5.660   9.438   2.709  0.00  0.00    -0.372 N 
ATOM      3  N   UNL     1       7.483  10.172   1.524  0.00  0.00    -0.372 N 
ATOM      4  C   UNL     1       6.778   9.154   2.029  0.00  0.00    +0.166 C 
ATOM      5  H   UNL     1       6.594   7.154   2.307  0.00  0.00    +0.163 HD
ATOM      6  H   UNL     1       5.349  10.391   2.840  0.00  0.00    +0.159 HD
ATOM      7  H   UNL     1       5.076   8.710   3.102  0.00  0.00    +0.159 HD
ATOM      8  H   UNL     1       8.338  10.026   1.006  0.00  0.00    +0.159 HD
ATOM      9  H   UNL     1       7.193  11.134   1.654  0.00  0.00    +0.159 HD
ENDROOT
BRANCH   1  10
ATOM     10  C   UNL     1       8.326   7.460   1.105  0.00  0.00    +0.151 C 
BRANCH  10  11
ATOM     11  C   UNL     1       8.731   6.078   1.540  0.00  0.00    -0.028 A 
ATOM     12  C   UNL     1       7.978   5.384   2.499  0.00  0.00    +0.005 A 
ATOM     13  C   UNL     1       9.863   5.455   0.993  0.00  0.00    +0.005 A 
ATOM     14  C   UNL     1       8.336   4.089   2.881  0.00  0.00    +0.000 A 
ATOM     15  C   UNL     1      10.218   4.163   1.378  0.00  0.00    +0.000 A 
ATOM     16  C   UNL     1       9.453   3.479   2.320  0.00  0.00    +0.000 A 
ENDBRANCH  10  11
ENDBRANCH   1  10
TORSDOF 2
ENDMDL
MODEL 3
REMARK VINA RESULT:    -6.020      3.683      5.104
REMARK INTER + INTRA:          -6.848
REMARK INTER:                  -6.728
REMARK INTRA:                  -0.120
REMARK UNBOUND:                -0.124
REMARK  Name = 1550473
REMARK  2 active torsions:
REMARK  status: ('A' for Active; 'I' for Inactive)
REMARK    1  A    between atoms: N_1  and  C_4
REMARK    2  A    between atoms: C_4  and  C_5
REMARK                            x       y       z     vdW  Elec       q    Type
REMARK                         _______ _______ _______ _____ _____    ______ ____
ROOT
ATOM      1  N   UNL     1       7.040   3.348   4.779  0.00  0.00    -0.354 N 
ATOM      2  N   UNL     1       5.724   3.480   6.680  0.00  0.00    -0.372 N 
ATOM      3  N   UNL     1       6.861   1.534   6.252  0.00  0.00    -0.372 N 
ATOM      4  C   UNL     1       6.551   2.784   5.891  0.00  0.00    +0.166 C 
ATOM      5  H   UNL     1       6.742   4.288   4.545  0.00  0.00    +0.163 HD
ATOM      6  H   UNL     1       5.342   3.082   7.527  0.00  0.00    +0.159 HD
ATOM      7  H   UNL     1       5.464   4.436   6.468  0.00  0.00    +0.159 HD
ATOM      8  H   UNL     1       7.476   0.953   5.697  0.00  0.00    +0.159 HD
ATOM      9  H   UNL     1       6.480   1.114   7.091  0.00  0.00    +0.159 HD
ENDROOT
BRANCH   1  10
ATOM     10  C   UNL     1       7.990   2.694   3.880  0.00  0.00    +0.151 C 
BRANCH  10  11
ATOM     11  C   UNL     1       8.563   3.719   2.941  0.00  0.00    -0.028 A 
ATOM     12  C   UNL     1       9.767   3.472   2.266  0.00  0.00    +0.005 A 
ATOM     13  C   UNL     1       7.904   4.938   2.719  0.00  0.00    +0.005 A 
ATOM     14  C   UNL     1      10.285   4.411   1.371  0.00  0.00    +0.000 A 
ATOM     15  C   UNL     1       8.425   5.874   1.825  0.00  0.00    +0.000 A 
ATOM     16  C   UNL     1       9.614   5.609   1.149  0.00  0.00    +0.000 A 
ENDBRANCH  10  11
ENDBRANCH   1  10
TORSDOF 2
ENDMDL
MODEL 4
REMARK VINA RESULT:    -6.011     21.833     22.841
REMARK INTER + INTRA:          -6.838
REMARK INTER:                  -6.741
REMARK INTRA:                  -0.097
REMARK UNBOUND:                -0.124
REMARK  Name = 1550473
REMARK  2 active torsions:
REMARK  status: ('A' for Active; 'I' for Inactive)
REMARK    1  A    between atoms: N_1  and  C_4
REMARK    2  A    between atoms: C_4  and  C_5
REMARK                            x       y       z     vdW  Elec       q    Type
REMARK                         _______ _______ _______ _____ _____    ______ ____
ROOT
ATOM      1  N   UNL     1      -3.211 -10.693  -5.933  0.00  0.00    -0.354 N 
ATOM      2  N   UNL     1      -4.531  -8.885  -5.337  0.00  0.00    -0.372 N 
ATOM      3  N   UNL     1      -2.505  -9.170  -4.299  0.00  0.00    -0.372 N 
ATOM      4  C   UNL     1      -3.405  -9.594  -5.192  0.00  0.00    +0.166 C 
ATOM      5  H   UNL     1      -3.946 -10.979  -6.571  0.00  0.00    +0.163 HD
ATOM      6  H   UNL     1      -4.703  -8.050  -4.794  0.00  0.00    +0.159 HD
ATOM      7  H   UNL     1      -5.243  -9.147  -6.008  0.00  0.00    +0.159 HD
ATOM      8  H   UNL     1      -1.637  -9.664  -4.137  0.00  0.00    +0.159 HD
ATOM      9  H   UNL     1      -2.664  -8.343  -3.737  0.00  0.00    +0.159 HD
ENDROOT
BRANCH   1  10
ATOM     10  C   UNL     1      -1.997 -11.505  -5.890  0.00  0.00    +0.151 C 
BRANCH  10  11
ATOM     11  C   UNL     1      -1.803 -12.171  -7.224  0.00  0.00    -0.028 A 
ATOM     12  C   UNL     1      -0.873 -11.665  -8.144  0.00  0.00    +0.005 A 
ATOM     13  C   UNL     1      -2.543 -13.311  -7.573  0.00  0.00    +0.005 A 
ATOM     14  C   UNL     1      -0.671 -12.301  -9.371  0.00  0.00    +0.000 A 
ATOM     15  C   UNL     1      -2.339 -13.942  -8.800  0.00  0.00    +0.000 A 
ATOM     16  C   UNL     1      -1.401 -13.438  -9.698  0.00  0.00    +0.000 A 
ENDBRANCH  10  11
ENDBRANCH   1  10
TORSDOF 2
ENDMDL
MODEL 5
REMARK VINA RESULT:    -6.008     18.103     19.002
REMARK INTER + INTRA:          -6.835
REMARK INTER:                  -6.689
REMARK INTRA:                  -0.145
REMARK UNBOUND:                -0.124
REMARK  Name = 1550473
REMARK  2 active torsions:
REMARK  status: ('A' for Active; 'I' for Inactive)
REMARK    1  A    between atoms: N_1  and  C_4
REMARK    2  A    between atoms: C_4  and  C_5
REMARK                            x       y       z     vdW  Elec       q    Type
REMARK                         _______ _______ _______ _____ _____    ______ ____
ROOT
ATOM      1  N   UNL     1      -5.138  -7.036  -4.115  0.00  0.00    -0.354 N 
ATOM      2  N   UNL     1      -5.122  -9.121  -3.108  0.00  0.00    -0.372 N 
ATOM      3  N   UNL     1      -4.695  -8.972  -5.358  0.00  0.00    -0.372 N 
ATOM      4  C   UNL     1      -4.985  -8.364  -4.203  0.00  0.00    +0.166 C 
ATOM      5  H   UNL     1      -5.388  -6.638  -3.216  0.00  0.00    +0.163 HD
ATOM      6  H   UNL     1      -5.008 -10.125  -3.143  0.00  0.00    +0.159 HD
ATOM      7  H   UNL     1      -5.326  -8.717  -2.202  0.00  0.00    +0.159 HD
ATOM      8  H   UNL     1      -4.584  -8.458  -6.221  0.00  0.00    +0.159 HD
ATOM      9  H   UNL     1      -4.589  -9.978  -5.415  0.00  0.00    +0.159 HD
ENDROOT
BRANCH   1  10
ATOM     10  C   UNL     1      -4.957  -6.116  -5.236  0.00  0.00    +0.151 C 
BRANCH  10  11
ATOM     11  C   UNL     1      -3.725  -5.287  -4.998  0.00  0.00    -0.028 A 
ATOM     12  C   UNL     1      -2.455  -5.882  -5.005  0.00  0.00    +0.005 A 
ATOM     13  C   UNL     1      -3.821  -3.905  -4.771  0.00  0.00    +0.005 A 
ATOM     14  C   UNL     1      -1.308  -5.107  -4.813  0.00  0.00    +0.000 A 
ATOM     15  C   UNL     1      -2.674  -3.136  -4.579  0.00  0.00    +0.000 A 
ATOM     16  C   UNL     1      -1.417  -3.737  -4.603  0.00  0.00    +0.000 A 
ENDBRANCH  10  11
ENDBRANCH   1  10
TORSDOF 2
ENDMDL
MODEL 6
REMARK VINA RESULT:    -5.905      1.863      2.623
REMARK INTER + INTRA:          -6.720
REMARK INTER:                  -6.628
REMARK INTRA:                  -0.092
REMARK UNBOUND:                -0.124
REMARK  Name = 1550473
REMARK  2 active torsions:
REMARK  status: ('A' for Active; 'I' for Inactive)
REMARK    1  A    between atoms: N_1  and  C_4
REMARK    2  A    between atoms: C_4  and  C_5
REMARK                            x       y       z     vdW  Elec       q    Type
REMARK                         _______ _______ _______ _____ _____    ______ ____
ROOT
ATOM      1  N   UNL     1       8.940   9.017   0.626  0.00  0.00    -0.354 N 
ATOM      2  N   UNL     1       9.451  11.269   0.802  0.00  0.00    -0.372 N 
ATOM      3  N   UNL     1       8.694  10.457  -1.206  0.00  0.00    -0.372 N 
ATOM      4  C   UNL     1       9.024  10.233   0.070  0.00  0.00    +0.166 C 
ATOM      5  H   UNL     1       9.234   8.907   1.590  0.00  0.00    +0.163 HD
ATOM      6  H   UNL     1       9.522  12.199   0.410  0.00  0.00    +0.159 HD
ATOM      7  H   UNL     1       9.701  11.165   1.778  0.00  0.00    +0.159 HD
ATOM      8  H   UNL     1       8.370   9.716  -1.814  0.00  0.00    +0.159 HD
ATOM      9  H   UNL     1       8.769  11.378  -1.619  0.00  0.00    +0.159 HD
ENDROOT
BRANCH   1  10
ATOM     10  C   UNL     1       8.437   7.833  -0.069  0.00  0.00    +0.151 C 
BRANCH  10  11
ATOM     11  C   UNL     1       8.671   6.622   0.792  0.00  0.00    -0.028 A 
ATOM     12  C   UNL     1       7.817   6.336   1.866  0.00  0.00    +0.005 A 
ATOM     13  C   UNL     1       9.743   5.754   0.534  0.00  0.00    +0.005 A 
ATOM     14  C   UNL     1       8.016   5.195   2.647  0.00  0.00    +0.000 A 
ATOM     15  C   UNL     1       9.940   4.616   1.316  0.00  0.00    +0.000 A 
ATOM     16  C   UNL     1       9.075   4.335   2.371  0.00  0.00    +0.000 A 
ENDBRANCH  10  11
ENDBRANCH   1  10
TORSDOF 2
ENDMDL
MODEL 7
REMARK VINA RESULT:    -5.901      2.490      5.483
REMARK INTER + INTRA:          -6.715
REMARK INTER:                  -6.586
REMARK INTRA:                  -0.129
REMARK UNBOUND:                -0.124
REMARK  Name = 1550473
REMARK  2 active torsions:
REMARK  status: ('A' for Active; 'I' for Inactive)
REMARK    1  A    between atoms: N_1  and  C_4
REMARK    2  A    between atoms: C_4  and  C_5
REMARK                            x       y       z     vdW  Elec       q    Type
REMARK                         _______ _______ _______ _____ _____    ______ ____
ROOT
ATOM      1  N   UNL     1       7.864   7.165   1.617  0.00  0.00    -0.354 N 
ATOM      2  N   UNL     1       7.602   5.276   2.931  0.00  0.00    -0.372 N 
ATOM      3  N   UNL     1       8.956   5.161   1.082  0.00  0.00    -0.372 N 
ATOM      4  C   UNL     1       8.144   5.878   1.866  0.00  0.00    +0.166 C 
ATOM      5  H   UNL     1       7.217   7.644   2.232  0.00  0.00    +0.163 HD
ATOM      6  H   UNL     1       7.797   4.307   3.146  0.00  0.00    +0.159 HD
ATOM      7  H   UNL     1       6.992   5.770   3.570  0.00  0.00    +0.159 HD
ATOM      8  H   UNL     1       9.393   5.556   0.259  0.00  0.00    +0.159 HD
ATOM      9  H   UNL     1       9.155   4.187   1.274  0.00  0.00    +0.159 HD
ENDROOT
BRANCH   1  10
ATOM     10  C   UNL     1       8.445   7.929   0.514  0.00  0.00    +0.151 C 
BRANCH  10  11
ATOM     11  C   UNL     1       8.409   9.393   0.859  0.00  0.00    -0.028 A 
ATOM     12  C   UNL     1       8.016   9.813   2.138  0.00  0.00    +0.005 A 
ATOM     13  C   UNL     1       8.774  10.363  -0.087  0.00  0.00    +0.005 A 
ATOM     14  C   UNL     1       8.011  11.171   2.468  0.00  0.00    +0.000 A 
ATOM     15  C   UNL     1       8.767  11.717   0.246  0.00  0.00    +0.000 A 
ATOM     16  C   UNL     1       8.388  12.121   1.524  0.00  0.00    +0.000 A 
ENDBRANCH  10  11
ENDBRANCH   1  10
TORSDOF 2
ENDMDL
MODEL 8
REMARK VINA RESULT:    -5.610      4.159      5.679
REMARK INTER + INTRA:          -6.391
REMARK INTER:                  -6.276
REMARK INTRA:                  -0.115
REMARK UNBOUND:                -0.124
REMARK  Name = 1550473
REMARK  2 active torsions:
REMARK  status: ('A' for Active; 'I' for Inactive)
REMARK    1  A    between atoms: N_1  and  C_4
REMARK    2  A    between atoms: C_4  and  C_5
REMARK                            x       y       z     vdW  Elec       q    Type
REMARK                         _______ _______ _______ _____ _____    ______ ____
ROOT
ATOM      1  N   UNL     1       7.988   7.171  -2.723  0.00  0.00    -0.354 N 
ATOM      2  N   UNL     1       8.288   5.331  -4.098  0.00  0.00    -0.372 N 
ATOM      3  N   UNL     1       6.204   6.280  -3.954  0.00  0.00    -0.372 N 
ATOM      4  C   UNL     1       7.489   6.273  -3.583  0.00  0.00    +0.166 C 
ATOM      5  H   UNL     1       8.964   7.093  -2.459  0.00  0.00    +0.163 HD
ATOM      6  H   UNL     1       7.941   4.642  -4.751  0.00  0.00    +0.159 HD
ATOM      7  H   UNL     1       9.273   5.284  -3.867  0.00  0.00    +0.159 HD
ATOM      8  H   UNL     1       5.547   6.961  -3.597  0.00  0.00    +0.159 HD
ATOM      9  H   UNL     1       5.835   5.591  -4.598  0.00  0.00    +0.159 HD
ENDROOT
BRANCH   1  10
ATOM     10  C   UNL     1       7.215   8.269  -2.147  0.00  0.00    +0.151 C 
BRANCH  10  11
ATOM     11  C   UNL     1       7.926   8.784  -0.926  0.00  0.00    -0.028 A 
ATOM     12  C   UNL     1       8.092  10.162  -0.727  0.00  0.00    +0.005 A 
ATOM     13  C   UNL     1       8.433   7.898   0.037  0.00  0.00    +0.005 A 
ATOM     14  C   UNL     1       8.726  10.641   0.422  0.00  0.00    +0.000 A 
ATOM     15  C   UNL     1       9.066   8.380   1.182  0.00  0.00    +0.000 A 
ATOM     16  C   UNL     1       9.211   9.752   1.375  0.00  0.00    +0.000 A 
ENDBRANCH  10  11
ENDBRANCH   1  10
TORSDOF 2
ENDMDL
MODEL 9
REMARK VINA RESULT:    -5.557      3.555      5.379
REMARK INTER + INTRA:          -6.331
REMARK INTER:                  -6.155
REMARK INTRA:                  -0.175
REMARK UNBOUND:                -0.124
REMARK  Name = 1550473
REMARK  2 active torsions:
REMARK  status: ('A' for Active; 'I' for Inactive)
REMARK    1  A    between atoms: N_1  and  C_4
REMARK    2  A    between atoms: C_4  and  C_5
REMARK                            x       y       z     vdW  Elec       q    Type
REMARK                         _______ _______ _______ _____ _____    ______ ____
ROOT
ATOM      1  N   UNL     1       5.671   8.286   1.400  0.00  0.00    -0.354 N 
ATOM      2  N   UNL     1       3.358   8.388   1.442  0.00  0.00    -0.372 N 
ATOM      3  N   UNL     1       4.435   8.468  -0.582  0.00  0.00    -0.372 N 
ATOM      4  C   UNL     1       4.503   8.380   0.750  0.00  0.00    +0.166 C 
ATOM      5  H   UNL     1       5.657   8.254   2.413  0.00  0.00    +0.163 HD
ATOM      6  H   UNL     1       2.461   8.455   0.979  0.00  0.00    +0.159 HD
ATOM      7  H   UNL     1       3.344   8.309   2.452  0.00  0.00    +0.159 HD
ATOM      8  H   UNL     1       5.264   8.473  -1.162  0.00  0.00    +0.159 HD
ATOM      9  H   UNL     1       3.548   8.547  -1.064  0.00  0.00    +0.159 HD
ENDROOT
BRANCH   1  10
ATOM     10  C   UNL     1       6.972   8.215   0.738  0.00  0.00    +0.151 C 
BRANCH  10  11
ATOM     11  C   UNL     1       7.582   9.590   0.705  0.00  0.00    -0.028 A 
ATOM     12  C   UNL     1       7.813  10.295   1.895  0.00  0.00    +0.005 A 
ATOM     13  C   UNL     1       7.937  10.190  -0.513  0.00  0.00    +0.005 A 
ATOM     14  C   UNL     1       8.406  11.559   1.867  0.00  0.00    +0.000 A 
ATOM     15  C   UNL     1       8.529  11.452  -0.537  0.00  0.00    +0.000 A 
ATOM     16  C   UNL     1       8.766  12.136   0.653  0.00  0.00    +0.000 A 
ENDBRANCH  10  11
ENDBRANCH   1  10
TORSDOF 2
ENDMDL
