MODEL 1
REMARK VINA RESULT:    -6.145      0.000      0.000
REMARK INTER + INTRA:          -6.995
REMARK INTER:                  -6.864
REMARK INTRA:                  -0.131
REMARK UNBOUND:                -0.131
REMARK  Name = 1550473
REMARK  2 active torsions:
REMARK  status: ('A' for Active; 'I' for Inactive)
REMARK    1  A    between atoms: N_1  and  C_4
REMARK    2  A    between atoms: C_4  and  C_5
REMARK                            x       y       z     vdW  Elec       q    Type
REMARK                         _______ _______ _______ _____ _____    ______ ____
ROOT
ATOM      1  N   UNL     1       8.631  -2.131 -10.118  0.00  0.00    -0.354 N 
ATOM      2  N   UNL     1       8.950  -2.869  -7.946  0.00  0.00    -0.372 N 
ATOM      3  N   UNL     1      10.771  -2.667  -9.328  0.00  0.00    -0.372 N 
ATOM      4  C   UNL     1       9.451  -2.551  -9.146  0.00  0.00    +0.166 C 
ATOM      5  H   UNL     1       7.637  -2.094  -9.926  0.00  0.00    +0.163 HD
ATOM      6  H   UNL     1       9.545  -3.186  -7.192  0.00  0.00    +0.159 HD
ATOM      7  H   UNL     1       7.962  -2.788  -7.743  0.00  0.00    +0.159 HD
ATOM      8  H   UNL     1      11.211  -2.448 -10.212  0.00  0.00    +0.159 HD
ATOM      9  H   UNL     1      11.382  -2.993  -8.589  0.00  0.00    +0.159 HD
ENDROOT
BRANCH   1  10
ATOM     10  C   UNL     1       9.082  -1.709 -11.443  0.00  0.00    +0.151 C 
BRANCH  10  11
ATOM     11  C   UNL     1       8.819  -0.238 -11.606  0.00  0.00    -0.028 A 
ATOM     12  C   UNL     1       8.034   0.231 -12.670  0.00  0.00    +0.005 A 
ATOM     13  C   UNL     1       9.346   0.692 -10.697  0.00  0.00    +0.005 A 
ATOM     14  C   UNL     1       7.764   1.595 -12.805  0.00  0.00    +0.000 A 
ATOM     15  C   UNL     1       9.075   2.053 -10.836  0.00  0.00    +0.000 A 
ATOM     16  C   UNL     1       8.282   2.504 -11.888  0.00  0.00    +0.000 A 
ENDBRANCH  10  11
ENDBRANCH   1  10
TORSDOF 2
ENDMDL
MODEL 2
REMARK VINA RESULT:    -6.096      0.158      1.463
REMARK INTER + INTRA:          -6.940
REMARK INTER:                  -6.795
REMARK INTRA:                  -0.145
REMARK UNBOUND:                -0.131
REMARK  Name = 1550473
REMARK  2 active torsions:
REMARK  status: ('A' for Active; 'I' for Inactive)
REMARK    1  A    between atoms: N_1  and  C_4
REMARK    2  A    between atoms: C_4  and  C_5
REMARK                            x       y       z     vdW  Elec       q    Type
REMARK                         _______ _______ _______ _____ _____    ______ ____
ROOT
ATOM      1  N   UNL     1       8.643  -1.970 -10.109  0.00  0.00    -0.354 N 
ATOM      2  N   UNL     1       8.945  -2.834  -7.981  0.00  0.00    -0.372 N 
ATOM      3  N   UNL     1      10.749  -2.708  -9.393  0.00  0.00    -0.372 N 
ATOM      4  C   UNL     1       9.446  -2.499  -9.176  0.00  0.00    +0.166 C 
ATOM      5  H   UNL     1       7.659  -1.865  -9.893  0.00  0.00    +0.163 HD
ATOM      6  H   UNL     1       9.527  -3.232  -7.257  0.00  0.00    +0.159 HD
ATOM      7  H   UNL     1       7.970  -2.686  -7.752  0.00  0.00    +0.159 HD
ATOM      8  H   UNL     1      11.188  -2.482 -10.276  0.00  0.00    +0.159 HD
ATOM      9  H   UNL     1      11.346  -3.116  -8.684  0.00  0.00    +0.159 HD
ENDROOT
BRANCH   1  10
ATOM     10  C   UNL     1       9.101  -1.521 -11.423  0.00  0.00    +0.151 C 
BRANCH  10  11
ATOM     11  C   UNL     1       8.791  -0.058 -11.577  0.00  0.00    -0.028 A 
ATOM     12  C   UNL     1       9.295   0.877 -10.661  0.00  0.00    +0.005 A 
ATOM     13  C   UNL     1       8.000   0.401 -12.641  0.00  0.00    +0.005 A 
ATOM     14  C   UNL     1       9.033   2.240 -10.821  0.00  0.00    +0.000 A 
ATOM     15  C   UNL     1       7.739   1.763 -12.797  0.00  0.00    +0.000 A 
ATOM     16  C   UNL     1       8.258   2.682 -11.888  0.00  0.00    +0.000 A 
ENDBRANCH  10  11
ENDBRANCH   1  10
TORSDOF 2
ENDMDL
MODEL 3
REMARK VINA RESULT:    -5.594      1.052      1.299
REMARK INTER + INTRA:          -6.378
REMARK INTER:                  -6.278
REMARK INTRA:                  -0.101
REMARK UNBOUND:                -0.131
REMARK  Name = 1550473
REMARK  2 active torsions:
REMARK  status: ('A' for Active; 'I' for Inactive)
REMARK    1  A    between atoms: N_1  and  C_4
REMARK    2  A    between atoms: C_4  and  C_5
REMARK                            x       y       z     vdW  Elec       q    Type
REMARK                         _______ _______ _______ _____ _____    ______ ____
ROOT
ATOM      1  N   UNL     1       9.116  -0.661  -9.832  0.00  0.00    -0.354 N 
ATOM      2  N   UNL     1       8.740  -2.248  -8.188  0.00  0.00    -0.372 N 
ATOM      3  N   UNL     1       9.437  -2.943 -10.261  0.00  0.00    -0.372 N 
ATOM      4  C   UNL     1       9.100  -1.942  -9.440  0.00  0.00    +0.166 C 
ATOM      5  H   UNL     1       8.821   0.048  -9.171  0.00  0.00    +0.163 HD
ATOM      6  H   UNL     1       8.722  -3.205  -7.862  0.00  0.00    +0.159 HD
ATOM      7  H   UNL     1       8.490  -1.533  -7.515  0.00  0.00    +0.159 HD
ATOM      8  H   UNL     1       9.712  -2.779 -11.220  0.00  0.00    +0.159 HD
ATOM      9  H   UNL     1       9.414  -3.908  -9.956  0.00  0.00    +0.159 HD
ENDROOT
BRANCH   1  10
ATOM     10  C   UNL     1       9.544  -0.217 -11.158  0.00  0.00    +0.151 C 
BRANCH  10  11
ATOM     11  C   UNL     1       8.870   1.088 -11.480  0.00  0.00    -0.028 A 
ATOM     12  C   UNL     1       7.996   1.187 -12.572  0.00  0.00    +0.005 A 
ATOM     13  C   UNL     1       9.097   2.228 -10.693  0.00  0.00    +0.005 A 
ATOM     14  C   UNL     1       7.346   2.391 -12.854  0.00  0.00    +0.000 A 
ATOM     15  C   UNL     1       8.448   3.428 -10.979  0.00  0.00    +0.000 A 
ATOM     16  C   UNL     1       7.571   3.509 -12.057  0.00  0.00    +0.000 A 
ENDBRANCH  10  11
ENDBRANCH   1  10
TORSDOF 2
ENDMDL
MODEL 4
REMARK VINA RESULT:    -4.912      9.452     10.727
REMARK INTER + INTRA:          -5.617
REMARK INTER:                  -5.439
REMARK INTRA:                  -0.178
REMARK UNBOUND:                -0.131
REMARK  Name = 1550473
REMARK  2 active torsions:
REMARK  status: ('A' for Active; 'I' for Inactive)
REMARK    1  A    between atoms: N_1  and  C_4
REMARK    2  A    between atoms: C_4  and  C_5
REMARK                            x       y       z     vdW  Elec       q    Type
REMARK                         _______ _______ _______ _____ _____    ______ ____
ROOT
ATOM      1  N   UNL     1      16.231  -0.420  -3.172  0.00  0.00    -0.354 N 
ATOM      2  N   UNL     1      15.389   0.498  -1.220  0.00  0.00    -0.372 N 
ATOM      3  N   UNL     1      14.059   0.455  -3.090  0.00  0.00    -0.372 N 
ATOM      4  C   UNL     1      15.230   0.172  -2.509  0.00  0.00    +0.166 C 
ATOM      5  H   UNL     1      17.104  -0.581  -2.683  0.00  0.00    +0.163 HD
ATOM      6  H   UNL     1      14.650   0.943  -0.693  0.00  0.00    +0.159 HD
ATOM      7  H   UNL     1      16.246   0.296  -0.721  0.00  0.00    +0.159 HD
ATOM      8  H   UNL     1      13.877   0.240  -4.061  0.00  0.00    +0.159 HD
ATOM      9  H   UNL     1      13.311   0.911  -2.581  0.00  0.00    +0.159 HD
ENDROOT
BRANCH   1  10
ATOM     10  C   UNL     1      16.141  -0.864  -4.562  0.00  0.00    +0.151 C 
BRANCH  10  11
ATOM     11  C   UNL     1      16.018  -2.363  -4.592  0.00  0.00    -0.028 A 
ATOM     12  C   UNL     1      17.163  -3.172  -4.571  0.00  0.00    +0.005 A 
ATOM     13  C   UNL     1      14.758  -2.980  -4.636  0.00  0.00    +0.005 A 
ATOM     14  C   UNL     1      17.048  -4.564  -4.568  0.00  0.00    +0.000 A 
ATOM     15  C   UNL     1      14.647  -4.370  -4.634  0.00  0.00    +0.000 A 
ATOM     16  C   UNL     1      15.792  -5.162  -4.598  0.00  0.00    +0.000 A 
ENDBRANCH  10  11
ENDBRANCH   1  10
TORSDOF 2
ENDMDL
MODEL 5
REMARK VINA RESULT:    -4.789      3.553      4.937
REMARK INTER + INTRA:          -5.480
REMARK INTER:                  -5.299
REMARK INTRA:                  -0.181
REMARK UNBOUND:                -0.131
REMARK  Name = 1550473
REMARK  2 active torsions:
REMARK  status: ('A' for Active; 'I' for Inactive)
REMARK    1  A    between atoms: N_1  and  C_4
REMARK    2  A    between atoms: C_4  and  C_5
REMARK                            x       y       z     vdW  Elec       q    Type
REMARK                         _______ _______ _______ _____ _____    ______ ____
ROOT
ATOM      1  N   UNL     1       9.865   3.407 -11.813  0.00  0.00    -0.354 N 
ATOM      2  N   UNL     1      12.035   4.213 -11.733  0.00  0.00    -0.372 N 
ATOM      3  N   UNL     1      11.018   3.569  -9.779  0.00  0.00    -0.372 N 
ATOM      4  C   UNL     1      10.958   3.724 -11.106  0.00  0.00    +0.166 C 
ATOM      5  H   UNL     1       9.872   3.576 -12.812  0.00  0.00    +0.163 HD
ATOM      6  H   UNL     1      12.875   4.458 -11.227  0.00  0.00    +0.159 HD
ATOM      7  H   UNL     1      12.056   4.338 -12.738  0.00  0.00    +0.159 HD
ATOM      8  H   UNL     1      10.237   3.211  -9.246  0.00  0.00    +0.159 HD
ATOM      9  H   UNL     1      11.846   3.820  -9.254  0.00  0.00    +0.159 HD
ENDROOT
BRANCH   1  10
ATOM     10  C   UNL     1       8.659   2.818 -11.233  0.00  0.00    +0.151 C 
BRANCH  10  11
ATOM     11  C   UNL     1       8.650   1.340 -11.514  0.00  0.00    -0.028 A 
ATOM     12  C   UNL     1       9.130   0.432 -10.559  0.00  0.00    +0.005 A 
ATOM     13  C   UNL     1       8.159   0.843 -12.730  0.00  0.00    +0.005 A 
ATOM     14  C   UNL     1       9.094  -0.943 -10.807  0.00  0.00    +0.000 A 
ATOM     15  C   UNL     1       8.126  -0.530 -12.975  0.00  0.00    +0.000 A 
ATOM     16  C   UNL     1       8.591  -1.423 -12.012  0.00  0.00    +0.000 A 
ENDBRANCH  10  11
ENDBRANCH   1  10
TORSDOF 2
ENDMDL
MODEL 6
REMARK VINA RESULT:    -4.704      1.901      2.957
REMARK INTER + INTRA:          -5.384
REMARK INTER:                  -5.247
REMARK INTRA:                  -0.138
REMARK UNBOUND:                -0.131
REMARK  Name = 1550473
REMARK  2 active torsions:
REMARK  status: ('A' for Active; 'I' for Inactive)
REMARK    1  A    between atoms: N_1  and  C_4
REMARK    2  A    between atoms: C_4  and  C_5
REMARK                            x       y       z     vdW  Elec       q    Type
REMARK                         _______ _______ _______ _____ _____    ______ ____
ROOT
ATOM      1  N   UNL     1       9.613  -0.005 -11.361  0.00  0.00    -0.354 N 
ATOM      2  N   UNL     1       8.109  -1.751 -11.593  0.00  0.00    -0.372 N 
ATOM      3  N   UNL     1       8.969  -1.296  -9.515  0.00  0.00    -0.372 N 
ATOM      4  C   UNL     1       8.907  -1.006 -10.819  0.00  0.00    +0.166 C 
ATOM      5  H   UNL     1       9.545   0.145 -12.362  0.00  0.00    +0.163 HD
ATOM      6  H   UNL     1       7.562  -2.511 -11.211  0.00  0.00    +0.159 HD
ATOM      7  H   UNL     1       8.008  -1.570 -12.584  0.00  0.00    +0.159 HD
ATOM      8  H   UNL     1       9.557  -0.776  -8.878  0.00  0.00    +0.159 HD
ATOM      9  H   UNL     1       8.438  -2.061  -9.116  0.00  0.00    +0.159 HD
ENDROOT
BRANCH   1  10
ATOM     10  C   UNL     1      10.470   0.899 -10.597  0.00  0.00    +0.151 C 
BRANCH  10  11
ATOM     11  C   UNL     1      10.065   2.319 -10.882  0.00  0.00    -0.028 A 
ATOM     12  C   UNL     1       8.710   2.683 -10.901  0.00  0.00    +0.005 A 
ATOM     13  C   UNL     1      11.030   3.307 -11.129  0.00  0.00    +0.005 A 
ATOM     14  C   UNL     1       8.334   4.007 -11.136  0.00  0.00    +0.000 A 
ATOM     15  C   UNL     1      10.651   4.628 -11.364  0.00  0.00    +0.000 A 
ATOM     16  C   UNL     1       9.303   4.979 -11.365  0.00  0.00    +0.000 A 
ENDBRANCH  10  11
ENDBRANCH   1  10
TORSDOF 2
ENDMDL
MODEL 7
REMARK VINA RESULT:    -4.384      1.829      2.607
REMARK INTER + INTRA:          -5.027
REMARK INTER:                  -4.879
REMARK INTRA:                  -0.148
REMARK UNBOUND:                -0.131
REMARK  Name = 1550473
REMARK  2 active torsions:
REMARK  status: ('A' for Active; 'I' for Inactive)
REMARK    1  A    between atoms: N_1  and  C_4
REMARK    2  A    between atoms: C_4  and  C_5
REMARK                            x       y       z     vdW  Elec       q    Type
REMARK                         _______ _______ _______ _____ _____    ______ ____
ROOT
ATOM      1  N   UNL     1       9.562  -2.148 -11.632  0.00  0.00    -0.354 N 
ATOM      2  N   UNL     1      11.543  -3.321 -11.379  0.00  0.00    -0.372 N 
ATOM      3  N   UNL     1      10.819  -2.811 -13.495  0.00  0.00    -0.372 N 
ATOM      4  C   UNL     1      10.628  -2.752 -12.173  0.00  0.00    +0.166 C 
ATOM      5  H   UNL     1       9.460  -2.164 -10.624  0.00  0.00    +0.163 HD
ATOM      6  H   UNL     1      12.359  -3.781 -11.758  0.00  0.00    +0.159 HD
ATOM      7  H   UNL     1      11.462  -3.295 -10.369  0.00  0.00    +0.159 HD
ATOM      8  H   UNL     1      10.162  -2.407 -14.150  0.00  0.00    +0.159 HD
ATOM      9  H   UNL     1      11.624  -3.277 -13.895  0.00  0.00    +0.159 HD
ENDROOT
BRANCH   1  10
ATOM     10  C   UNL     1       8.536  -1.452 -12.407  0.00  0.00    +0.151 C 
BRANCH  10  11
ATOM     11  C   UNL     1       8.547   0.006 -12.039  0.00  0.00    -0.028 A 
ATOM     12  C   UNL     1       9.207   0.443 -10.881  0.00  0.00    +0.005 A 
ATOM     13  C   UNL     1       7.904   0.956 -12.847  0.00  0.00    +0.005 A 
ATOM     14  C   UNL     1       9.243   1.801 -10.554  0.00  0.00    +0.000 A 
ATOM     15  C   UNL     1       7.942   2.311 -12.517  0.00  0.00    +0.000 A 
ATOM     16  C   UNL     1       8.613   2.733 -11.372  0.00  0.00    +0.000 A 
ENDBRANCH  10  11
ENDBRANCH   1  10
TORSDOF 2
ENDMDL
MODEL 8
REMARK VINA RESULT:    -4.318     10.852     11.676
REMARK INTER + INTRA:          -4.954
REMARK INTER:                  -4.827
REMARK INTRA:                  -0.126
REMARK UNBOUND:                -0.131
REMARK  Name = 1550473
REMARK  2 active torsions:
REMARK  status: ('A' for Active; 'I' for Inactive)
REMARK    1  A    between atoms: N_1  and  C_4
REMARK    2  A    between atoms: C_4  and  C_5
REMARK                            x       y       z     vdW  Elec       q    Type
REMARK                         _______ _______ _______ _____ _____    ______ ____
ROOT
ATOM      1  N   UNL     1      17.253   1.088  -2.660  0.00  0.00    -0.354 N 
ATOM      2  N   UNL     1      15.441   0.335  -1.429  0.00  0.00    -0.372 N 
ATOM      3  N   UNL     1      15.287   0.375  -3.719  0.00  0.00    -0.372 N 
ATOM      4  C   UNL     1      16.004   0.605  -2.613  0.00  0.00    +0.166 C 
ATOM      5  H   UNL     1      17.732   1.268  -1.785  0.00  0.00    +0.163 HD
ATOM      6  H   UNL     1      14.501  -0.033  -1.363  0.00  0.00    +0.159 HD
ATOM      7  H   UNL     1      15.939   0.473  -0.559  0.00  0.00    +0.159 HD
ATOM      8  H   UNL     1      15.652   0.563  -4.643  0.00  0.00    +0.159 HD
ATOM      9  H   UNL     1      14.341   0.018  -3.672  0.00  0.00    +0.159 HD
ENDROOT
BRANCH   1  10
ATOM     10  C   UNL     1      17.977   1.364  -3.900  0.00  0.00    +0.151 C 
BRANCH  10  11
ATOM     11  C   UNL     1      18.111   2.852  -4.070  0.00  0.00    -0.028 A 
ATOM     12  C   UNL     1      18.619   3.389  -5.262  0.00  0.00    +0.005 A 
ATOM     13  C   UNL     1      17.726   3.730  -3.045  0.00  0.00    +0.005 A 
ATOM     14  C   UNL     1      18.715   4.772  -5.432  0.00  0.00    +0.000 A 
ATOM     15  C   UNL     1      17.825   5.110  -3.219  0.00  0.00    +0.000 A 
ATOM     16  C   UNL     1      18.317   5.631  -4.413  0.00  0.00    +0.000 A 
ENDBRANCH  10  11
ENDBRANCH   1  10
TORSDOF 2
ENDMDL
MODEL 9
REMARK VINA RESULT:    -4.260      9.453     10.117
REMARK INTER + INTRA:          -4.889
REMARK INTER:                  -4.853
REMARK INTRA:                  -0.036
REMARK UNBOUND:                -0.131
REMARK  Name = 1550473
REMARK  2 active torsions:
REMARK  status: ('A' for Active; 'I' for Inactive)
REMARK    1  A    between atoms: N_1  and  C_4
REMARK    2  A    between atoms: C_4  and  C_5
REMARK                            x       y       z     vdW  Elec       q    Type
REMARK                         _______ _______ _______ _____ _____    ______ ____
ROOT
ATOM      1  N   UNL     1      15.772  -0.512  -3.027  0.00  0.00    -0.354 N 
ATOM      2  N   UNL     1      15.072   0.789  -1.243  0.00  0.00    -0.372 N 
ATOM      3  N   UNL     1      13.775   0.709  -3.135  0.00  0.00    -0.372 N 
ATOM      4  C   UNL     1      14.876   0.321  -2.482  0.00  0.00    +0.166 C 
ATOM      5  H   UNL     1      16.601  -0.744  -2.492  0.00  0.00    +0.163 HD
ATOM      6  H   UNL     1      14.411   1.416  -0.805  0.00  0.00    +0.159 HD
ATOM      7  H   UNL     1      15.878   0.518  -0.693  0.00  0.00    +0.159 HD
ATOM      8  H   UNL     1      13.572   0.397  -4.075  0.00  0.00    +0.159 HD
ATOM      9  H   UNL     1      13.108   1.346  -2.717  0.00  0.00    +0.159 HD
ENDROOT
BRANCH   1  10
ATOM     10  C   UNL     1      15.626  -1.120  -4.348  0.00  0.00    +0.151 C 
BRANCH  10  11
ATOM     11  C   UNL     1      16.559  -0.438  -5.310  0.00  0.00    -0.028 A 
ATOM     12  C   UNL     1      17.047   0.849  -5.036  0.00  0.00    +0.005 A 
ATOM     13  C   UNL     1      16.965  -1.074  -6.493  0.00  0.00    +0.005 A 
ATOM     14  C   UNL     1      17.938   1.471  -5.914  0.00  0.00    +0.000 A 
ATOM     15  C   UNL     1      17.853  -0.449  -7.367  0.00  0.00    +0.000 A 
ATOM     16  C   UNL     1      18.342   0.823  -7.076  0.00  0.00    +0.000 A 
ENDBRANCH  10  11
ENDBRANCH   1  10
TORSDOF 2
ENDMDL
