MODEL 1
REMARK VINA RESULT:    -5.513      0.000      0.000
REMARK INTER + INTRA:          -6.295
REMARK INTER:                  -6.158
REMARK INTRA:                  -0.137
REMARK UNBOUND:                -0.137
REMARK  Name = 1550473
REMARK  2 active torsions:
REMARK  status: ('A' for Active; 'I' for Inactive)
REMARK    1  A    between atoms: N_1  and  C_4
REMARK    2  A    between atoms: C_4  and  C_5
REMARK                            x       y       z     vdW  Elec       q    Type
REMARK                         _______ _______ _______ _____ _____    ______ ____
ROOT
ATOM      1  N   UNL     1      -3.118   3.560  -6.376  0.00  0.00    -0.354 N 
ATOM      2  N   UNL     1      -2.233   3.606  -8.516  0.00  0.00    -0.372 N 
ATOM      3  N   UNL     1      -4.432   3.012  -8.237  0.00  0.00    -0.372 N 
ATOM      4  C   UNL     1      -3.269   3.392  -7.696  0.00  0.00    +0.166 C 
ATOM      5  H   UNL     1      -2.203   3.820  -6.026  0.00  0.00    +0.163 HD
ATOM      6  H   UNL     1      -2.319   3.490  -9.517  0.00  0.00    +0.159 HD
ATOM      7  H   UNL     1      -1.332   3.910  -8.167  0.00  0.00    +0.159 HD
ATOM      8  H   UNL     1      -5.251   2.829  -7.672  0.00  0.00    +0.159 HD
ATOM      9  H   UNL     1      -4.534   2.880  -9.235  0.00  0.00    +0.159 HD
ENDROOT
BRANCH   1  10
ATOM     10  C   UNL     1      -4.197   3.404  -5.402  0.00  0.00    +0.151 C 
BRANCH  10  11
ATOM     11  C   UNL     1      -4.075   4.479  -4.357  0.00  0.00    -0.028 A 
ATOM     12  C   UNL     1      -4.921   4.484  -3.239  0.00  0.00    +0.005 A 
ATOM     13  C   UNL     1      -3.111   5.492  -4.477  0.00  0.00    +0.005 A 
ATOM     14  C   UNL     1      -4.788   5.465  -2.253  0.00  0.00    +0.000 A 
ATOM     15  C   UNL     1      -2.982   6.470  -3.491  0.00  0.00    +0.000 A 
ATOM     16  C   UNL     1      -3.819   6.454  -2.378  0.00  0.00    +0.000 A 
ENDBRANCH  10  11
ENDBRANCH   1  10
TORSDOF 2
ENDMDL
MODEL 2
REMARK VINA RESULT:    -5.289      3.710      5.582
REMARK INTER + INTRA:          -6.044
REMARK INTER:                  -5.932
REMARK INTRA:                  -0.113
REMARK UNBOUND:                -0.137
REMARK  Name = 1550473
REMARK  2 active torsions:
REMARK  status: ('A' for Active; 'I' for Inactive)
REMARK    1  A    between atoms: N_1  and  C_4
REMARK    2  A    between atoms: C_4  and  C_5
REMARK                            x       y       z     vdW  Elec       q    Type
REMARK                         _______ _______ _______ _____ _____    ______ ____
ROOT
ATOM      1  N   UNL     1      -5.355   6.968  -2.510  0.00  0.00    -0.354 N 
ATOM      2  N   UNL     1      -6.583   7.102  -0.551  0.00  0.00    -0.372 N 
ATOM      3  N   UNL     1      -4.296   6.977  -0.420  0.00  0.00    -0.372 N 
ATOM      4  C   UNL     1      -5.401   7.014  -1.172  0.00  0.00    +0.166 C 
ATOM      5  H   UNL     1      -6.230   6.970  -3.022  0.00  0.00    +0.163 HD
ATOM      6  H   UNL     1      -6.649   7.142   0.457  0.00  0.00    +0.159 HD
ATOM      7  H   UNL     1      -7.454   7.150  -1.067  0.00  0.00    +0.159 HD
ATOM      8  H   UNL     1      -3.373   6.905  -0.827  0.00  0.00    +0.159 HD
ATOM      9  H   UNL     1      -4.342   7.004   0.591  0.00  0.00    +0.159 HD
ENDROOT
BRANCH   1  10
ATOM     10  C   UNL     1      -4.116   6.927  -3.285  0.00  0.00    +0.151 C 
BRANCH  10  11
ATOM     11  C   UNL     1      -4.003   5.587  -3.959  0.00  0.00    -0.028 A 
ATOM     12  C   UNL     1      -2.936   5.315  -4.828  0.00  0.00    +0.005 A 
ATOM     13  C   UNL     1      -4.957   4.584  -3.729  0.00  0.00    +0.005 A 
ATOM     14  C   UNL     1      -2.815   4.061  -5.432  0.00  0.00    +0.000 A 
ATOM     15  C   UNL     1      -4.832   3.333  -4.334  0.00  0.00    +0.000 A 
ATOM     16  C   UNL     1      -3.760   3.072  -5.183  0.00  0.00    +0.000 A 
ENDBRANCH  10  11
ENDBRANCH   1  10
TORSDOF 2
ENDMDL
MODEL 3
REMARK VINA RESULT:    -4.867     48.372     49.435
REMARK INTER + INTRA:          -5.573
REMARK INTER:                  -5.405
REMARK INTRA:                  -0.167
REMARK UNBOUND:                -0.137
REMARK  Name = 1550473
REMARK  2 active torsions:
REMARK  status: ('A' for Active; 'I' for Inactive)
REMARK    1  A    between atoms: N_1  and  C_4
REMARK    2  A    between atoms: C_4  and  C_5
REMARK                            x       y       z     vdW  Elec       q    Type
REMARK                         _______ _______ _______ _____ _____    ______ ____
ROOT
ATOM      1  N   UNL     1      27.930  26.285  26.323  0.00  0.00    -0.354 N 
ATOM      2  N   UNL     1      28.509  24.044  26.411  0.00  0.00    -0.372 N 
ATOM      3  N   UNL     1      27.011  24.741  24.818  0.00  0.00    -0.372 N 
ATOM      4  C   UNL     1      27.811  25.038  25.848  0.00  0.00    +0.166 C 
ATOM      5  H   UNL     1      28.530  26.439  27.125  0.00  0.00    +0.163 HD
ATOM      6  H   UNL     1      28.442  23.094  26.072  0.00  0.00    +0.159 HD
ATOM      7  H   UNL     1      29.143  24.209  27.183  0.00  0.00    +0.159 HD
ATOM      8  H   UNL     1      26.453  25.445  24.354  0.00  0.00    +0.159 HD
ATOM      9  H   UNL     1      26.922  23.794  24.472  0.00  0.00    +0.159 HD
ENDROOT
BRANCH   1  10
ATOM     10  C   UNL     1      27.255  27.447  25.748  0.00  0.00    +0.151 C 
BRANCH  10  11
ATOM     11  C   UNL     1      26.248  27.969  26.735  0.00  0.00    -0.028 A 
ATOM     12  C   UNL     1      26.516  29.125  27.482  0.00  0.00    +0.005 A 
ATOM     13  C   UNL     1      25.021  27.314  26.924  0.00  0.00    +0.005 A 
ATOM     14  C   UNL     1      25.568  29.627  28.377  0.00  0.00    +0.000 A 
ATOM     15  C   UNL     1      24.078  27.817  27.819  0.00  0.00    +0.000 A 
ATOM     16  C   UNL     1      24.350  28.975  28.543  0.00  0.00    +0.000 A 
ENDBRANCH  10  11
ENDBRANCH   1  10
TORSDOF 2
ENDMDL
MODEL 4
REMARK VINA RESULT:    -4.817     19.485     20.095
REMARK INTER + INTRA:          -5.517
REMARK INTER:                  -5.397
REMARK INTRA:                  -0.120
REMARK UNBOUND:                -0.137
REMARK  Name = 1550473
REMARK  2 active torsions:
REMARK  status: ('A' for Active; 'I' for Inactive)
REMARK    1  A    between atoms: N_1  and  C_4
REMARK    2  A    between atoms: C_4  and  C_5
REMARK                            x       y       z     vdW  Elec       q    Type
REMARK                         _______ _______ _______ _____ _____    ______ ____
ROOT
ATOM      1  N   UNL     1       5.763  -6.587   7.432  0.00  0.00    -0.354 N 
ATOM      2  N   UNL     1       5.054  -4.854   6.068  0.00  0.00    -0.372 N 
ATOM      3  N   UNL     1       4.426  -7.000   5.552  0.00  0.00    -0.372 N 
ATOM      4  C   UNL     1       5.085  -6.160   6.358  0.00  0.00    +0.166 C 
ATOM      5  H   UNL     1       6.267  -5.903   7.985  0.00  0.00    +0.163 HD
ATOM      6  H   UNL     1       4.547  -4.502   5.267  0.00  0.00    +0.159 HD
ATOM      7  H   UNL     1       5.520  -4.168   6.650  0.00  0.00    +0.159 HD
ATOM      8  H   UNL     1       4.415  -7.998   5.712  0.00  0.00    +0.159 HD
ATOM      9  H   UNL     1       3.923  -6.668   4.738  0.00  0.00    +0.159 HD
ENDROOT
BRANCH   1  10
ATOM     10  C   UNL     1       5.815  -7.982   7.865  0.00  0.00    +0.151 C 
BRANCH  10  11
ATOM     11  C   UNL     1       4.777  -8.204   8.930  0.00  0.00    -0.028 A 
ATOM     12  C   UNL     1       4.264  -9.488   9.167  0.00  0.00    +0.005 A 
ATOM     13  C   UNL     1       4.307  -7.136   9.710  0.00  0.00    +0.005 A 
ATOM     14  C   UNL     1       3.322  -9.700  10.176  0.00  0.00    +0.000 A 
ATOM     15  C   UNL     1       3.366  -7.352  10.716  0.00  0.00    +0.000 A 
ATOM     16  C   UNL     1       2.875  -8.635  10.951  0.00  0.00    +0.000 A 
ENDBRANCH  10  11
ENDBRANCH   1  10
TORSDOF 2
ENDMDL
MODEL 5
REMARK VINA RESULT:    -4.694     40.777     41.792
REMARK INTER + INTRA:          -5.380
REMARK INTER:                  -5.246
REMARK INTRA:                  -0.133
REMARK UNBOUND:                -0.137
REMARK  Name = 1550473
REMARK  2 active torsions:
REMARK  status: ('A' for Active; 'I' for Inactive)
REMARK    1  A    between atoms: N_1  and  C_4
REMARK    2  A    between atoms: C_4  and  C_5
REMARK                            x       y       z     vdW  Elec       q    Type
REMARK                         _______ _______ _______ _____ _____    ______ ____
ROOT
ATOM      1  N   UNL     1       6.424  26.905  27.151  0.00  0.00    -0.354 N 
ATOM      2  N   UNL     1       4.425  26.489  28.245  0.00  0.00    -0.372 N 
ATOM      3  N   UNL     1       4.896  28.632  27.571  0.00  0.00    -0.372 N 
ATOM      4  C   UNL     1       5.261  27.348  27.648  0.00  0.00    +0.166 C 
ATOM      5  H   UNL     1       6.655  25.926  27.268  0.00  0.00    +0.163 HD
ATOM      6  H   UNL     1       3.539  26.794  28.626  0.00  0.00    +0.159 HD
ATOM      7  H   UNL     1       4.638  25.502  28.319  0.00  0.00    +0.159 HD
ATOM      8  H   UNL     1       5.485  29.331  27.139  0.00  0.00    +0.159 HD
ATOM      9  H   UNL     1       4.019  28.958  27.958  0.00  0.00    +0.159 HD
ENDROOT
BRANCH   1  10
ATOM     10  C   UNL     1       7.380  27.748  26.436  0.00  0.00    +0.151 C 
BRANCH  10  11
ATOM     11  C   UNL     1       8.738  27.590  27.063  0.00  0.00    -0.028 A 
ATOM     12  C   UNL     1       9.587  28.697  27.209  0.00  0.00    +0.005 A 
ATOM     13  C   UNL     1       9.179  26.338  27.518  0.00  0.00    +0.005 A 
ATOM     14  C   UNL     1      10.837  28.557  27.819  0.00  0.00    +0.000 A 
ATOM     15  C   UNL     1      10.427  26.202  28.125  0.00  0.00    +0.000 A 
ATOM     16  C   UNL     1      11.255  27.312  28.278  0.00  0.00    +0.000 A 
ENDBRANCH  10  11
ENDBRANCH   1  10
TORSDOF 2
ENDMDL
MODEL 6
REMARK VINA RESULT:    -4.675     40.758     42.100
REMARK INTER + INTRA:          -5.358
REMARK INTER:                  -5.224
REMARK INTRA:                  -0.134
REMARK UNBOUND:                -0.137
REMARK  Name = 1550473
REMARK  2 active torsions:
REMARK  status: ('A' for Active; 'I' for Inactive)
REMARK    1  A    between atoms: N_1  and  C_4
REMARK    2  A    between atoms: C_4  and  C_5
REMARK                            x       y       z     vdW  Elec       q    Type
REMARK                         _______ _______ _______ _____ _____    ______ ____
ROOT
ATOM      1  N   UNL     1      17.429  14.352  30.877  0.00  0.00    -0.354 N 
ATOM      2  N   UNL     1      19.375  15.095  31.890  0.00  0.00    -0.372 N 
ATOM      3  N   UNL     1      19.196  15.219  29.606  0.00  0.00    -0.372 N 
ATOM      4  C   UNL     1      18.655  14.884  30.781  0.00  0.00    +0.166 C 
ATOM      5  H   UNL     1      17.087  14.092  31.795  0.00  0.00    +0.163 HD
ATOM      6  H   UNL     1      20.301  15.498  31.849  0.00  0.00    +0.159 HD
ATOM      7  H   UNL     1      19.013  14.877  32.810  0.00  0.00    +0.159 HD
ATOM      8  H   UNL     1      18.707  15.080  28.732  0.00  0.00    +0.159 HD
ATOM      9  H   UNL     1      20.127  15.613  29.543  0.00  0.00    +0.159 HD
ENDROOT
BRANCH   1  10
ATOM     10  C   UNL     1      16.542  14.132  29.736  0.00  0.00    +0.151 C 
BRANCH  10  11
ATOM     11  C   UNL     1      15.218  14.790  30.009  0.00  0.00    -0.028 A 
ATOM     12  C   UNL     1      15.092  15.738  31.035  0.00  0.00    +0.005 A 
ATOM     13  C   UNL     1      14.086  14.475  29.241  0.00  0.00    +0.005 A 
ATOM     14  C   UNL     1      13.870  16.372  31.270  0.00  0.00    +0.000 A 
ATOM     15  C   UNL     1      12.867  15.110  29.479  0.00  0.00    +0.000 A 
ATOM     16  C   UNL     1      12.760  16.060  30.492  0.00  0.00    +0.000 A 
ENDBRANCH  10  11
ENDBRANCH   1  10
TORSDOF 2
ENDMDL
MODEL 7
REMARK VINA RESULT:    -4.484     40.841     42.203
REMARK INTER + INTRA:          -5.145
REMARK INTER:                  -4.984
REMARK INTRA:                  -0.161
REMARK UNBOUND:                -0.137
REMARK  Name = 1550473
REMARK  2 active torsions:
REMARK  status: ('A' for Active; 'I' for Inactive)
REMARK    1  A    between atoms: N_1  and  C_4
REMARK    2  A    between atoms: C_4  and  C_5
REMARK                            x       y       z     vdW  Elec       q    Type
REMARK                         _______ _______ _______ _____ _____    ______ ____
ROOT
ATOM      1  N   UNL     1      17.584  13.779  31.842  0.00  0.00    -0.354 N 
ATOM      2  N   UNL     1      18.764  15.508  32.833  0.00  0.00    -0.372 N 
ATOM      3  N   UNL     1      19.369  14.814  30.731  0.00  0.00    -0.372 N 
ATOM      4  C   UNL     1      18.566  14.688  31.793  0.00  0.00    +0.166 C 
ATOM      5  H   UNL     1      17.029  13.714  32.688  0.00  0.00    +0.163 HD
ATOM      6  H   UNL     1      19.495  16.206  32.823  0.00  0.00    +0.159 HD
ATOM      7  H   UNL     1      18.179  15.471  33.659  0.00  0.00    +0.159 HD
ATOM      8  H   UNL     1      19.275  14.222  29.916  0.00  0.00    +0.159 HD
ATOM      9  H   UNL     1      20.113  15.499  30.707  0.00  0.00    +0.159 HD
ENDROOT
BRANCH   1  10
ATOM     10  C   UNL     1      17.250  12.876  30.742  0.00  0.00    +0.151 C 
BRANCH  10  11
ATOM     11  C   UNL     1      15.860  13.184  30.257  0.00  0.00    -0.028 A 
ATOM     12  C   UNL     1      14.783  12.360  30.615  0.00  0.00    +0.005 A 
ATOM     13  C   UNL     1      15.613  14.301  29.446  0.00  0.00    +0.005 A 
ATOM     14  C   UNL     1      13.487  12.663  30.190  0.00  0.00    +0.000 A 
ATOM     15  C   UNL     1      14.318  14.600  29.023  0.00  0.00    +0.000 A 
ATOM     16  C   UNL     1      13.255  13.782  29.397  0.00  0.00    +0.000 A 
ENDBRANCH  10  11
ENDBRANCH   1  10
TORSDOF 2
ENDMDL
MODEL 8
REMARK VINA RESULT:    -4.467     39.721     41.604
REMARK INTER + INTRA:          -5.126
REMARK INTER:                  -5.030
REMARK INTRA:                  -0.096
REMARK UNBOUND:                -0.137
REMARK  Name = 1550473
REMARK  2 active torsions:
REMARK  status: ('A' for Active; 'I' for Inactive)
REMARK    1  A    between atoms: N_1  and  C_4
REMARK    2  A    between atoms: C_4  and  C_5
REMARK                            x       y       z     vdW  Elec       q    Type
REMARK                         _______ _______ _______ _____ _____    ______ ____
ROOT
ATOM      1  N   UNL     1      10.076  28.447  24.002  0.00  0.00    -0.354 N 
ATOM      2  N   UNL     1       9.214  27.330  22.165  0.00  0.00    -0.372 N 
ATOM      3  N   UNL     1       7.885  28.840  23.269  0.00  0.00    -0.372 N 
ATOM      4  C   UNL     1       9.061  28.215  23.158  0.00  0.00    +0.166 C 
ATOM      5  H   UNL     1      10.932  27.918  23.882  0.00  0.00    +0.163 HD
ATOM      6  H   UNL     1       8.467  27.136  21.511  0.00  0.00    +0.159 HD
ATOM      7  H   UNL     1      10.086  26.836  22.020  0.00  0.00    +0.159 HD
ATOM      8  H   UNL     1       7.704  29.515  24.000  0.00  0.00    +0.159 HD
ATOM      9  H   UNL     1       7.122  28.651  22.631  0.00  0.00    +0.159 HD
ENDROOT
BRANCH   1  10
ATOM     10  C   UNL     1      10.031  29.429  25.083  0.00  0.00    +0.151 C 
BRANCH  10  11
ATOM     11  C   UNL     1      11.082  29.086  26.103  0.00  0.00    -0.028 A 
ATOM     12  C   UNL     1      10.788  28.216  27.163  0.00  0.00    +0.005 A 
ATOM     13  C   UNL     1      12.375  29.622  26.011  0.00  0.00    +0.005 A 
ATOM     14  C   UNL     1      11.772  27.872  28.093  0.00  0.00    +0.000 A 
ATOM     15  C   UNL     1      13.355  29.278  26.942  0.00  0.00    +0.000 A 
ATOM     16  C   UNL     1      13.053  28.401  27.982  0.00  0.00    +0.000 A 
ENDBRANCH  10  11
ENDBRANCH   1  10
TORSDOF 2
ENDMDL
MODEL 9
REMARK VINA RESULT:    -4.455     40.985     42.739
REMARK INTER + INTRA:          -5.113
REMARK INTER:                  -4.958
REMARK INTRA:                  -0.155
REMARK UNBOUND:                -0.137
REMARK  Name = 1550473
REMARK  2 active torsions:
REMARK  status: ('A' for Active; 'I' for Inactive)
REMARK    1  A    between atoms: N_1  and  C_4
REMARK    2  A    between atoms: C_4  and  C_5
REMARK                            x       y       z     vdW  Elec       q    Type
REMARK                         _______ _______ _______ _____ _____    ______ ____
ROOT
ATOM      1  N   UNL     1      20.392  29.945  21.319  0.00  0.00    -0.354 N 
ATOM      2  N   UNL     1      21.935  31.616  21.756  0.00  0.00    -0.372 N 
ATOM      3  N   UNL     1      20.008  31.534  22.998  0.00  0.00    -0.372 N 
ATOM      4  C   UNL     1      20.766  31.022  22.023  0.00  0.00    +0.166 C 
ATOM      5  H   UNL     1      20.998  29.624  20.573  0.00  0.00    +0.163 HD
ATOM      6  H   UNL     1      22.246  32.428  22.272  0.00  0.00    +0.159 HD
ATOM      7  H   UNL     1      22.560  31.265  21.040  0.00  0.00    +0.159 HD
ATOM      8  H   UNL     1      19.112  31.136  23.245  0.00  0.00    +0.159 HD
ATOM      9  H   UNL     1      20.296  32.353  23.519  0.00  0.00    +0.159 HD
ENDROOT
BRANCH   1  10
ATOM     10  C   UNL     1      19.164  29.192  21.567  0.00  0.00    +0.151 C 
BRANCH  10  11
ATOM     11  C   UNL     1      18.296  29.250  20.340  0.00  0.00    -0.028 A 
ATOM     12  C   UNL     1      18.379  28.248  19.362  0.00  0.00    +0.005 A 
ATOM     13  C   UNL     1      17.384  30.300  20.153  0.00  0.00    +0.005 A 
ATOM     14  C   UNL     1      17.552  28.286  18.236  0.00  0.00    +0.000 A 
ATOM     15  C   UNL     1      16.561  30.334  19.028  0.00  0.00    +0.000 A 
ATOM     16  C   UNL     1      16.643  29.325  18.071  0.00  0.00    +0.000 A 
ENDBRANCH  10  11
ENDBRANCH   1  10
TORSDOF 2
ENDMDL
