MODEL 1
REMARK VINA RESULT:    -6.530      0.000      0.000
REMARK INTER + INTRA:          -7.421
REMARK INTER:                  -7.294
REMARK INTRA:                  -0.127
REMARK UNBOUND:                -0.127
REMARK  Name = 1550473
REMARK  2 active torsions:
REMARK  status: ('A' for Active; 'I' for Inactive)
REMARK    1  A    between atoms: N_1  and  C_4
REMARK    2  A    between atoms: C_4  and  C_5
REMARK                            x       y       z     vdW  Elec       q    Type
REMARK                         _______ _______ _______ _____ _____    ______ ____
ROOT
ATOM      1  N   UNL     1      -4.128   2.378  -3.191  0.00  0.00    -0.354 N 
ATOM      2  N   UNL     1      -3.599   2.795  -5.407  0.00  0.00    -0.372 N 
ATOM      3  N   UNL     1      -3.735   4.561  -3.948  0.00  0.00    -0.372 N 
ATOM      4  C   UNL     1      -3.824   3.244  -4.166  0.00  0.00    +0.166 C 
ATOM      5  H   UNL     1      -4.209   1.396  -3.428  0.00  0.00    +0.163 HD
ATOM      6  H   UNL     1      -3.364   3.425  -6.163  0.00  0.00    +0.159 HD
ATOM      7  H   UNL     1      -3.636   1.808  -5.631  0.00  0.00    +0.159 HD
ATOM      8  H   UNL     1      -3.900   4.964  -3.035  0.00  0.00    +0.159 HD
ATOM      9  H   UNL     1      -3.514   5.208  -4.694  0.00  0.00    +0.159 HD
ENDROOT
BRANCH   1  10
ATOM     10  C   UNL     1      -4.339   2.758  -1.796  0.00  0.00    +0.151 C 
BRANCH  10  11
ATOM     11  C   UNL     1      -5.286   1.780  -1.157  0.00  0.00    -0.028 A 
ATOM     12  C   UNL     1      -5.574   0.557  -1.781  0.00  0.00    +0.005 A 
ATOM     13  C   UNL     1      -5.894   2.067   0.074  0.00  0.00    +0.005 A 
ATOM     14  C   UNL     1      -6.430  -0.365  -1.175  0.00  0.00    +0.000 A 
ATOM     15  C   UNL     1      -6.749   1.144   0.677  0.00  0.00    +0.000 A 
ATOM     16  C   UNL     1      -7.015  -0.073   0.053  0.00  0.00    +0.000 A 
ENDBRANCH  10  11
ENDBRANCH   1  10
TORSDOF 2
ENDMDL
MODEL 2
REMARK VINA RESULT:    -6.143      1.567      2.234
REMARK INTER + INTRA:          -6.988
REMARK INTER:                  -6.883
REMARK INTRA:                  -0.105
REMARK UNBOUND:                -0.127
REMARK  Name = 1550473
REMARK  2 active torsions:
REMARK  status: ('A' for Active; 'I' for Inactive)
REMARK    1  A    between atoms: N_1  and  C_4
REMARK    2  A    between atoms: C_4  and  C_5
REMARK                            x       y       z     vdW  Elec       q    Type
REMARK                         _______ _______ _______ _____ _____    ______ ____
ROOT
ATOM      1  N   UNL     1      -4.877   2.671  -1.297  0.00  0.00    -0.354 N 
ATOM      2  N   UNL     1      -3.389   4.446  -1.291  0.00  0.00    -0.372 N 
ATOM      3  N   UNL     1      -3.557   3.145  -3.174  0.00  0.00    -0.372 N 
ATOM      4  C   UNL     1      -3.950   3.408  -1.923  0.00  0.00    +0.166 C 
ATOM      5  H   UNL     1      -5.109   2.903  -0.338  0.00  0.00    +0.163 HD
ATOM      6  H   UNL     1      -2.690   5.022  -1.739  0.00  0.00    +0.159 HD
ATOM      7  H   UNL     1      -3.656   4.703  -0.349  0.00  0.00    +0.159 HD
ATOM      8  H   UNL     1      -3.937   2.373  -3.704  0.00  0.00    +0.159 HD
ATOM      9  H   UNL     1      -2.850   3.704  -3.636  0.00  0.00    +0.159 HD
ENDROOT
BRANCH   1  10
ATOM     10  C   UNL     1      -5.587   1.553  -1.915  0.00  0.00    +0.151 C 
BRANCH  10  11
ATOM     11  C   UNL     1      -6.669   1.082  -0.982  0.00  0.00    -0.028 A 
ATOM     12  C   UNL     1      -6.730  -0.262  -0.584  0.00  0.00    +0.005 A 
ATOM     13  C   UNL     1      -7.631   1.975  -0.488  0.00  0.00    +0.005 A 
ATOM     14  C   UNL     1      -7.717  -0.693   0.306  0.00  0.00    +0.000 A 
ATOM     15  C   UNL     1      -8.615   1.540   0.400  0.00  0.00    +0.000 A 
ATOM     16  C   UNL     1      -8.656   0.207   0.799  0.00  0.00    +0.000 A 
ENDBRANCH  10  11
ENDBRANCH   1  10
TORSDOF 2
ENDMDL
MODEL 3
REMARK VINA RESULT:    -5.089     17.402     18.119
REMARK INTER + INTRA:          -5.811
REMARK INTER:                  -5.680
REMARK INTRA:                  -0.131
REMARK UNBOUND:                -0.127
REMARK  Name = 1550473
REMARK  2 active torsions:
REMARK  status: ('A' for Active; 'I' for Inactive)
REMARK    1  A    between atoms: N_1  and  C_4
REMARK    2  A    between atoms: C_4  and  C_5
REMARK                            x       y       z     vdW  Elec       q    Type
REMARK                         _______ _______ _______ _____ _____    ______ ____
ROOT
ATOM      1  N   UNL     1       8.518  -0.843  10.949  0.00  0.00    -0.354 N 
ATOM      2  N   UNL     1       9.016  -2.756   9.743  0.00  0.00    -0.372 N 
ATOM      3  N   UNL     1       9.378  -0.708   8.773  0.00  0.00    -0.372 N 
ATOM      4  C   UNL     1       8.968  -1.422   9.828  0.00  0.00    +0.166 C 
ATOM      5  H   UNL     1       8.193  -1.440  11.701  0.00  0.00    +0.163 HD
ATOM      6  H   UNL     1       9.354  -3.221   8.911  0.00  0.00    +0.159 HD
ATOM      7  H   UNL     1       8.733  -3.350  10.513  0.00  0.00    +0.159 HD
ATOM      8  H   UNL     1       9.362   0.303   8.772  0.00  0.00    +0.159 HD
ATOM      9  H   UNL     1       9.709  -1.155   7.927  0.00  0.00    +0.159 HD
ENDROOT
BRANCH   1  10
ATOM     10  C   UNL     1       8.475   0.602  11.163  0.00  0.00    +0.151 C 
BRANCH  10  11
ATOM     11  C   UNL     1       7.044   1.034  11.323  0.00  0.00    -0.028 A 
ATOM     12  C   UNL     1       6.666   1.869  12.385  0.00  0.00    +0.005 A 
ATOM     13  C   UNL     1       6.061   0.615  10.413  0.00  0.00    +0.005 A 
ATOM     14  C   UNL     1       5.342   2.294  12.516  0.00  0.00    +0.000 A 
ATOM     15  C   UNL     1       4.740   1.042  10.548  0.00  0.00    +0.000 A 
ATOM     16  C   UNL     1       4.381   1.883  11.598  0.00  0.00    +0.000 A 
ENDBRANCH  10  11
ENDBRANCH   1  10
TORSDOF 2
ENDMDL
MODEL 4
REMARK VINA RESULT:    -4.965     10.487     11.534
REMARK INTER + INTRA:          -5.672
REMARK INTER:                  -5.567
REMARK INTRA:                  -0.106
REMARK UNBOUND:                -0.127
REMARK  Name = 1550473
REMARK  2 active torsions:
REMARK  status: ('A' for Active; 'I' for Inactive)
REMARK    1  A    between atoms: N_1  and  C_4
REMARK    2  A    between atoms: C_4  and  C_5
REMARK                            x       y       z     vdW  Elec       q    Type
REMARK                         _______ _______ _______ _____ _____    ______ ____
ROOT
ATOM      1  N   UNL     1      -7.177  11.995   2.300  0.00  0.00    -0.354 N 
ATOM      2  N   UNL     1      -5.002  12.458   1.655  0.00  0.00    -0.372 N 
ATOM      3  N   UNL     1      -6.149  14.018   2.887  0.00  0.00    -0.372 N 
ATOM      4  C   UNL     1      -6.124  12.823   2.286  0.00  0.00    +0.166 C 
ATOM      5  H   UNL     1      -7.106  11.117   1.800  0.00  0.00    +0.163 HD
ATOM      6  H   UNL     1      -4.189  13.060   1.631  0.00  0.00    +0.159 HD
ATOM      7  H   UNL     1      -4.917  11.560   1.195  0.00  0.00    +0.159 HD
ATOM      8  H   UNL     1      -6.968  14.355   3.375  0.00  0.00    +0.159 HD
ATOM      9  H   UNL     1      -5.350  14.639   2.863  0.00  0.00    +0.159 HD
ENDROOT
BRANCH   1  10
ATOM     10  C   UNL     1      -8.428  12.275   3.003  0.00  0.00    +0.151 C 
BRANCH  10  11
ATOM     11  C   UNL     1      -9.553  11.557   2.311  0.00  0.00    -0.028 A 
ATOM     12  C   UNL     1     -10.701  12.254   1.906  0.00  0.00    +0.005 A 
ATOM     13  C   UNL     1      -9.474  10.180   2.050  0.00  0.00    +0.005 A 
ATOM     14  C   UNL     1     -11.733  11.593   1.236  0.00  0.00    +0.000 A 
ATOM     15  C   UNL     1     -10.507   9.524   1.381  0.00  0.00    +0.000 A 
ATOM     16  C   UNL     1     -11.635  10.231   0.972  0.00  0.00    +0.000 A 
ENDBRANCH  10  11
ENDBRANCH   1  10
TORSDOF 2
ENDMDL
MODEL 5
REMARK VINA RESULT:    -4.956     11.902     12.861
REMARK INTER + INTRA:          -5.663
REMARK INTER:                  -5.565
REMARK INTRA:                  -0.098
REMARK UNBOUND:                -0.127
REMARK  Name = 1550473
REMARK  2 active torsions:
REMARK  status: ('A' for Active; 'I' for Inactive)
REMARK    1  A    between atoms: N_1  and  C_4
REMARK    2  A    between atoms: C_4  and  C_5
REMARK                            x       y       z     vdW  Elec       q    Type
REMARK                         _______ _______ _______ _____ _____    ______ ____
ROOT
ATOM      1  N   UNL     1       1.301  -3.706   6.988  0.00  0.00    -0.354 N 
ATOM      2  N   UNL     1       0.108  -5.652   6.596  0.00  0.00    -0.372 N 
ATOM      3  N   UNL     1       1.775  -5.059   5.135  0.00  0.00    -0.372 N 
ATOM      4  C   UNL     1       1.070  -4.793   6.240  0.00  0.00    +0.166 C 
ATOM      5  H   UNL     1       0.712  -3.545   7.798  0.00  0.00    +0.163 HD
ATOM      6  H   UNL     1      -0.086  -6.482   6.053  0.00  0.00    +0.159 HD
ATOM      7  H   UNL     1      -0.448  -5.513   7.431  0.00  0.00    +0.159 HD
ATOM      8  H   UNL     1       2.511  -4.447   4.808  0.00  0.00    +0.159 HD
ATOM      9  H   UNL     1       1.587  -5.879   4.571  0.00  0.00    +0.159 HD
ENDROOT
BRANCH   1  10
ATOM     10  C   UNL     1       2.361  -2.736   6.718  0.00  0.00    +0.151 C 
BRANCH  10  11
ATOM     11  C   UNL     1       2.062  -1.462   7.459  0.00  0.00    -0.028 A 
ATOM     12  C   UNL     1       2.772  -1.133   8.624  0.00  0.00    +0.005 A 
ATOM     13  C   UNL     1       1.075  -0.577   7.000  0.00  0.00    +0.005 A 
ATOM     14  C   UNL     1       2.515   0.064   9.296  0.00  0.00    +0.000 A 
ATOM     15  C   UNL     1       0.821   0.617   7.674  0.00  0.00    +0.000 A 
ATOM     16  C   UNL     1       1.544   0.938   8.821  0.00  0.00    +0.000 A 
ENDBRANCH  10  11
ENDBRANCH   1  10
TORSDOF 2
ENDMDL
MODEL 6
REMARK VINA RESULT:    -4.877     16.039     17.134
REMARK INTER + INTRA:          -5.574
REMARK INTER:                  -5.436
REMARK INTRA:                  -0.138
REMARK UNBOUND:                -0.127
REMARK  Name = 1550473
REMARK  2 active torsions:
REMARK  status: ('A' for Active; 'I' for Inactive)
REMARK    1  A    between atoms: N_1  and  C_4
REMARK    2  A    between atoms: C_4  and  C_5
REMARK                            x       y       z     vdW  Elec       q    Type
REMARK                         _______ _______ _______ _____ _____    ______ ____
ROOT
ATOM      1  N   UNL     1       1.067 -12.501 -10.293  0.00  0.00    -0.354 N 
ATOM      2  N   UNL     1       1.843 -10.716 -11.548  0.00  0.00    -0.372 N 
ATOM      3  N   UNL     1       3.118 -11.481  -9.801  0.00  0.00    -0.372 N 
ATOM      4  C   UNL     1       2.006 -11.578 -10.537  0.00  0.00    +0.166 C 
ATOM      5  H   UNL     1       0.233 -12.502 -10.869  0.00  0.00    +0.163 HD
ATOM      6  H   UNL     1       2.537 -10.011 -11.758  0.00  0.00    +0.159 HD
ATOM      7  H   UNL     1       1.030 -10.749 -12.151  0.00  0.00    +0.159 HD
ATOM      8  H   UNL     1       3.299 -12.098  -9.020  0.00  0.00    +0.159 HD
ATOM      9  H   UNL     1       3.819 -10.775  -9.988  0.00  0.00    +0.159 HD
ENDROOT
BRANCH   1  10
ATOM     10  C   UNL     1       1.173 -13.520  -9.251  0.00  0.00    +0.151 C 
BRANCH  10  11
ATOM     11  C   UNL     1      -0.074 -13.496  -8.411  0.00  0.00    -0.028 A 
ATOM     12  C   UNL     1      -0.865 -12.339  -8.344  0.00  0.00    +0.005 A 
ATOM     13  C   UNL     1      -0.474 -14.627  -7.684  0.00  0.00    +0.005 A 
ATOM     14  C   UNL     1      -2.039 -12.325  -7.588  0.00  0.00    +0.000 A 
ATOM     15  C   UNL     1      -1.646 -14.609  -6.929  0.00  0.00    +0.000 A 
ATOM     16  C   UNL     1      -2.430 -13.459  -6.883  0.00  0.00    +0.000 A 
ENDBRANCH  10  11
ENDBRANCH   1  10
TORSDOF 2
ENDMDL
MODEL 7
REMARK VINA RESULT:    -4.766     13.204     15.223
REMARK INTER + INTRA:          -5.450
REMARK INTER:                  -5.303
REMARK INTRA:                  -0.147
REMARK UNBOUND:                -0.127
REMARK  Name = 1550473
REMARK  2 active torsions:
REMARK  status: ('A' for Active; 'I' for Inactive)
REMARK    1  A    between atoms: N_1  and  C_4
REMARK    2  A    between atoms: C_4  and  C_5
REMARK                            x       y       z     vdW  Elec       q    Type
REMARK                         _______ _______ _______ _____ _____    ______ ____
ROOT
ATOM      1  N   UNL     1      -1.733  11.433 -11.979  0.00  0.00    -0.354 N 
ATOM      2  N   UNL     1      -2.794  11.580  -9.925  0.00  0.00    -0.372 N 
ATOM      3  N   UNL     1      -0.920  10.270 -10.114  0.00  0.00    -0.372 N 
ATOM      4  C   UNL     1      -1.807  11.091 -10.686  0.00  0.00    +0.166 C 
ATOM      5  H   UNL     1      -2.454  12.035 -12.359  0.00  0.00    +0.163 HD
ATOM      6  H   UNL     1      -2.873  11.342  -8.946  0.00  0.00    +0.159 HD
ATOM      7  H   UNL     1      -3.487  12.218 -10.297  0.00  0.00    +0.159 HD
ATOM      8  H   UNL     1      -0.154   9.863 -10.635  0.00  0.00    +0.159 HD
ATOM      9  H   UNL     1      -0.989  10.012  -9.138  0.00  0.00    +0.159 HD
ENDROOT
BRANCH   1  10
ATOM     10  C   UNL     1      -0.667  10.999 -12.880  0.00  0.00    +0.151 C 
BRANCH  10  11
ATOM     11  C   UNL     1      -1.279  10.316 -14.072  0.00  0.00    -0.028 A 
ATOM     12  C   UNL     1      -2.669  10.326 -14.262  0.00  0.00    +0.005 A 
ATOM     13  C   UNL     1      -0.474   9.663 -15.018  0.00  0.00    +0.005 A 
ATOM     14  C   UNL     1      -3.235   9.717 -15.385  0.00  0.00    +0.000 A 
ATOM     15  C   UNL     1      -1.043   9.057 -16.138  0.00  0.00    +0.000 A 
ATOM     16  C   UNL     1      -2.424   9.086 -16.322  0.00  0.00    +0.000 A 
ENDBRANCH  10  11
ENDBRANCH   1  10
TORSDOF 2
ENDMDL
MODEL 8
REMARK VINA RESULT:    -4.663     12.875     14.233
REMARK INTER + INTRA:          -5.335
REMARK INTER:                  -5.169
REMARK INTRA:                  -0.166
REMARK UNBOUND:                -0.127
REMARK  Name = 1550473
REMARK  2 active torsions:
REMARK  status: ('A' for Active; 'I' for Inactive)
REMARK    1  A    between atoms: N_1  and  C_4
REMARK    2  A    between atoms: C_4  and  C_5
REMARK                            x       y       z     vdW  Elec       q    Type
REMARK                         _______ _______ _______ _____ _____    ______ ____
ROOT
ATOM      1  N   UNL     1      -1.066  13.195  -9.766  0.00  0.00    -0.354 N 
ATOM      2  N   UNL     1      -1.507  14.774  -8.131  0.00  0.00    -0.372 N 
ATOM      3  N   UNL     1      -2.294  12.638  -7.850  0.00  0.00    -0.372 N 
ATOM      4  C   UNL     1      -1.621  13.523  -8.592  0.00  0.00    +0.166 C 
ATOM      5  H   UNL     1      -0.594  13.919 -10.295  0.00  0.00    +0.163 HD
ATOM      6  H   UNL     1      -1.912  15.051  -7.246  0.00  0.00    +0.159 HD
ATOM      7  H   UNL     1      -0.995  15.485  -8.639  0.00  0.00    +0.159 HD
ATOM      8  H   UNL     1      -2.422  11.679  -8.144  0.00  0.00    +0.159 HD
ATOM      9  H   UNL     1      -2.717  12.898  -6.968  0.00  0.00    +0.159 HD
ENDROOT
BRANCH   1  10
ATOM     10  C   UNL     1      -1.086  11.847 -10.332  0.00  0.00    +0.151 C 
BRANCH  10  11
ATOM     11  C   UNL     1       0.295  11.259 -10.250  0.00  0.00    -0.028 A 
ATOM     12  C   UNL     1       1.344  11.796 -11.011  0.00  0.00    +0.005 A 
ATOM     13  C   UNL     1       0.564  10.168  -9.410  0.00  0.00    +0.005 A 
ATOM     14  C   UNL     1       2.634  11.269 -10.913  0.00  0.00    +0.000 A 
ATOM     15  C   UNL     1       1.853   9.644  -9.316  0.00  0.00    +0.000 A 
ATOM     16  C   UNL     1       2.888  10.197 -10.066  0.00  0.00    +0.000 A 
ENDBRANCH  10  11
ENDBRANCH   1  10
TORSDOF 2
ENDMDL
MODEL 9
REMARK VINA RESULT:    -4.573     12.606     13.283
REMARK INTER + INTRA:          -5.235
REMARK INTER:                  -5.065
REMARK INTRA:                  -0.170
REMARK UNBOUND:                -0.127
REMARK  Name = 1550473
REMARK  2 active torsions:
REMARK  status: ('A' for Active; 'I' for Inactive)
REMARK    1  A    between atoms: N_1  and  C_4
REMARK    2  A    between atoms: C_4  and  C_5
REMARK                            x       y       z     vdW  Elec       q    Type
REMARK                         _______ _______ _______ _____ _____    ______ ____
ROOT
ATOM      1  N   UNL     1      -3.405  12.251  -9.119  0.00  0.00    -0.354 N 
ATOM      2  N   UNL     1      -3.878  12.388  -6.856  0.00  0.00    -0.372 N 
ATOM      3  N   UNL     1      -5.095  13.666  -8.322  0.00  0.00    -0.372 N 
ATOM      4  C   UNL     1      -4.125  12.769  -8.115  0.00  0.00    +0.166 C 
ATOM      5  H   UNL     1      -2.664  11.598  -8.893  0.00  0.00    +0.163 HD
ATOM      6  H   UNL     1      -4.407  12.759  -6.078  0.00  0.00    +0.159 HD
ATOM      7  H   UNL     1      -3.167  11.700  -6.637  0.00  0.00    +0.159 HD
ATOM      8  H   UNL     1      -5.326  14.000  -9.248  0.00  0.00    +0.159 HD
ATOM      9  H   UNL     1      -5.627  14.058  -7.556  0.00  0.00    +0.159 HD
ENDROOT
BRANCH   1  10
ATOM     10  C   UNL     1      -3.630  12.559 -10.530  0.00  0.00    +0.151 C 
BRANCH  10  11
ATOM     11  C   UNL     1      -4.400  11.432 -11.163  0.00  0.00    -0.028 A 
ATOM     12  C   UNL     1      -5.802  11.430 -11.145  0.00  0.00    +0.005 A 
ATOM     13  C   UNL     1      -3.732  10.367 -11.787  0.00  0.00    +0.005 A 
ATOM     14  C   UNL     1      -6.518  10.399 -11.758  0.00  0.00    +0.000 A 
ATOM     15  C   UNL     1      -4.450   9.339 -12.397  0.00  0.00    +0.000 A 
ATOM     16  C   UNL     1      -5.843   9.357 -12.385  0.00  0.00    +0.000 A 
ENDBRANCH  10  11
ENDBRANCH   1  10
TORSDOF 2
ENDMDL
