MODEL 1
REMARK VINA RESULT:    -5.955      0.000      0.000
REMARK INTER + INTRA:          -6.788
REMARK INTER:                  -6.652
REMARK INTRA:                  -0.136
REMARK UNBOUND:                -0.136
REMARK  Name = 1550473
REMARK  2 active torsions:
REMARK  status: ('A' for Active; 'I' for Inactive)
REMARK    1  A    between atoms: N_1  and  C_4
REMARK    2  A    between atoms: C_4  and  C_5
REMARK                            x       y       z     vdW  Elec       q    Type
REMARK                         _______ _______ _______ _____ _____    ______ ____
ROOT
ATOM      1  N   UNL     1       5.777  -4.018   5.697  0.00  0.00    -0.354 N 
ATOM      2  N   UNL     1       7.345  -2.528   4.870  0.00  0.00    -0.372 N 
ATOM      3  N   UNL     1       5.640  -3.218   3.498  0.00  0.00    -0.372 N 
ATOM      4  C   UNL     1       6.242  -3.265   4.691  0.00  0.00    +0.166 C 
ATOM      5  H   UNL     1       6.296  -4.034   6.567  0.00  0.00    +0.163 HD
ATOM      6  H   UNL     1       7.718  -1.947   4.131  0.00  0.00    +0.159 HD
ATOM      7  H   UNL     1       7.836  -2.510   5.755  0.00  0.00    +0.159 HD
ATOM      8  H   UNL     1       4.807  -3.755   3.297  0.00  0.00    +0.159 HD
ATOM      9  H   UNL     1       6.004  -2.652   2.742  0.00  0.00    +0.159 HD
ENDROOT
BRANCH   1  10
ATOM     10  C   UNL     1       4.554  -4.816   5.623  0.00  0.00    +0.151 C 
BRANCH  10  11
ATOM     11  C   UNL     1       4.894  -6.260   5.866  0.00  0.00    -0.028 A 
ATOM     12  C   UNL     1       6.225  -6.655   6.063  0.00  0.00    +0.005 A 
ATOM     13  C   UNL     1       3.888  -7.238   5.908  0.00  0.00    +0.005 A 
ATOM     14  C   UNL     1       6.538  -7.992   6.319  0.00  0.00    +0.000 A 
ATOM     15  C   UNL     1       4.205  -8.572   6.163  0.00  0.00    +0.000 A 
ATOM     16  C   UNL     1       5.530  -8.948   6.371  0.00  0.00    +0.000 A 
ENDBRANCH  10  11
ENDBRANCH   1  10
TORSDOF 2
ENDMDL
MODEL 2
REMARK VINA RESULT:    -5.407     14.096     15.353
REMARK INTER + INTRA:          -6.175
REMARK INTER:                  -6.047
REMARK INTRA:                  -0.128
REMARK UNBOUND:                -0.136
REMARK  Name = 1550473
REMARK  2 active torsions:
REMARK  status: ('A' for Active; 'I' for Inactive)
REMARK    1  A    between atoms: N_1  and  C_4
REMARK    2  A    between atoms: C_4  and  C_5
REMARK                            x       y       z     vdW  Elec       q    Type
REMARK                         _______ _______ _______ _____ _____    ______ ____
ROOT
ATOM      1  N   UNL     1      10.345   8.640  10.669  0.00  0.00    -0.354 N 
ATOM      2  N   UNL     1      11.865  10.374  10.448  0.00  0.00    -0.372 N 
ATOM      3  N   UNL     1      11.799   8.744   8.834  0.00  0.00    -0.372 N 
ATOM      4  C   UNL     1      11.328   9.240   9.982  0.00  0.00    +0.166 C 
ATOM      5  H   UNL     1      10.053   9.050  11.548  0.00  0.00    +0.163 HD
ATOM      6  H   UNL     1      12.605  10.851   9.950  0.00  0.00    +0.159 HD
ATOM      7  H   UNL     1      11.539  10.806  11.304  0.00  0.00    +0.159 HD
ATOM      8  H   UNL     1      11.440   7.889   8.432  0.00  0.00    +0.159 HD
ATOM      9  H   UNL     1      12.548   9.201   8.327  0.00  0.00    +0.159 HD
ENDROOT
BRANCH   1  10
ATOM     10  C   UNL     1       9.656   7.431  10.222  0.00  0.00    +0.151 C 
BRANCH  10  11
ATOM     11  C   UNL     1       8.287   7.388  10.844  0.00  0.00    -0.028 A 
ATOM     12  C   UNL     1       7.701   8.555  11.355  0.00  0.00    +0.005 A 
ATOM     13  C   UNL     1       7.570   6.184  10.919  0.00  0.00    +0.005 A 
ATOM     14  C   UNL     1       6.417   8.520  11.906  0.00  0.00    +0.000 A 
ATOM     15  C   UNL     1       6.289   6.154  11.470  0.00  0.00    +0.000 A 
ATOM     16  C   UNL     1       5.712   7.323  11.961  0.00  0.00    +0.000 A 
ENDBRANCH  10  11
ENDBRANCH   1  10
TORSDOF 2
ENDMDL
MODEL 3
REMARK VINA RESULT:    -5.303     13.578     14.709
REMARK INTER + INTRA:          -6.059
REMARK INTER:                  -5.958
REMARK INTRA:                  -0.100
REMARK UNBOUND:                -0.136
REMARK  Name = 1550473
REMARK  2 active torsions:
REMARK  status: ('A' for Active; 'I' for Inactive)
REMARK    1  A    between atoms: N_1  and  C_4
REMARK    2  A    between atoms: C_4  and  C_5
REMARK                            x       y       z     vdW  Elec       q    Type
REMARK                         _______ _______ _______ _____ _____    ______ ____
ROOT
ATOM      1  N   UNL     1      -7.352  -1.657  10.842  0.00  0.00    -0.354 N 
ATOM      2  N   UNL     1      -5.922  -0.499  12.248  0.00  0.00    -0.372 N 
ATOM      3  N   UNL     1      -7.892  -1.314  13.096  0.00  0.00    -0.372 N 
ATOM      4  C   UNL     1      -7.067  -1.165  12.055  0.00  0.00    +0.166 C 
ATOM      5  H   UNL     1      -6.699  -1.484  10.086  0.00  0.00    +0.163 HD
ATOM      6  H   UNL     1      -5.678  -0.119  13.153  0.00  0.00    +0.159 HD
ATOM      7  H   UNL     1      -5.250  -0.367  11.502  0.00  0.00    +0.159 HD
ATOM      8  H   UNL     1      -8.774  -1.801  13.015  0.00  0.00    +0.159 HD
ATOM      9  H   UNL     1      -7.671  -0.931  14.007  0.00  0.00    +0.159 HD
ENDROOT
BRANCH   1  10
ATOM     10  C   UNL     1      -8.547  -2.443  10.539  0.00  0.00    +0.151 C 
BRANCH  10  11
ATOM     11  C   UNL     1      -8.388  -3.075   9.183  0.00  0.00    -0.028 A 
ATOM     12  C   UNL     1      -9.205  -2.681   8.114  0.00  0.00    +0.005 A 
ATOM     13  C   UNL     1      -7.419  -4.065   8.961  0.00  0.00    +0.005 A 
ATOM     14  C   UNL     1      -9.038  -3.246   6.847  0.00  0.00    +0.000 A 
ATOM     15  C   UNL     1      -7.256  -4.628   7.695  0.00  0.00    +0.000 A 
ATOM     16  C   UNL     1      -8.063  -4.216   6.638  0.00  0.00    +0.000 A 
ENDBRANCH  10  11
ENDBRANCH   1  10
TORSDOF 2
ENDMDL
MODEL 4
REMARK VINA RESULT:    -5.266     10.092     12.018
REMARK INTER + INTRA:          -6.018
REMARK INTER:                  -5.917
REMARK INTRA:                  -0.102
REMARK UNBOUND:                -0.136
REMARK  Name = 1550473
REMARK  2 active torsions:
REMARK  status: ('A' for Active; 'I' for Inactive)
REMARK    1  A    between atoms: N_1  and  C_4
REMARK    2  A    between atoms: C_4  and  C_5
REMARK                            x       y       z     vdW  Elec       q    Type
REMARK                         _______ _______ _______ _____ _____    ______ ____
ROOT
ATOM      1  N   UNL     1       0.400   3.015   7.070  0.00  0.00    -0.354 N 
ATOM      2  N   UNL     1      -1.049   1.294   6.521  0.00  0.00    -0.372 N 
ATOM      3  N   UNL     1       0.932   0.786   7.560  0.00  0.00    -0.372 N 
ATOM      4  C   UNL     1       0.106   1.708   7.055  0.00  0.00    +0.166 C 
ATOM      5  H   UNL     1      -0.255   3.661   6.644  0.00  0.00    +0.163 HD
ATOM      6  H   UNL     1      -1.300   0.315   6.499  0.00  0.00    +0.159 HD
ATOM      7  H   UNL     1      -1.723   1.946   6.137  0.00  0.00    +0.159 HD
ATOM      8  H   UNL     1       1.822   1.033   7.972  0.00  0.00    +0.159 HD
ATOM      9  H   UNL     1       0.704  -0.200   7.537  0.00  0.00    +0.159 HD
ENDROOT
BRANCH   1  10
ATOM     10  C   UNL     1       1.607   3.575   7.676  0.00  0.00    +0.151 C 
BRANCH  10  11
ATOM     11  C   UNL     1       1.222   4.368   8.895  0.00  0.00    -0.028 A 
ATOM     12  C   UNL     1      -0.109   4.396   9.335  0.00  0.00    +0.005 A 
ATOM     13  C   UNL     1       2.186   5.089   9.617  0.00  0.00    +0.005 A 
ATOM     14  C   UNL     1      -0.462   5.108  10.484  0.00  0.00    +0.000 A 
ATOM     15  C   UNL     1       1.830   5.799  10.763  0.00  0.00    +0.000 A 
ATOM     16  C   UNL     1       0.506   5.806  11.198  0.00  0.00    +0.000 A 
ENDBRANCH  10  11
ENDBRANCH   1  10
TORSDOF 2
ENDMDL
MODEL 5
REMARK VINA RESULT:    -5.239      1.844      2.170
REMARK INTER + INTRA:          -5.988
REMARK INTER:                  -5.858
REMARK INTRA:                  -0.130
REMARK UNBOUND:                -0.136
REMARK  Name = 1550473
REMARK  2 active torsions:
REMARK  status: ('A' for Active; 'I' for Inactive)
REMARK    1  A    between atoms: N_1  and  C_4
REMARK    2  A    between atoms: C_4  and  C_5
REMARK                            x       y       z     vdW  Elec       q    Type
REMARK                         _______ _______ _______ _____ _____    ______ ____
ROOT
ATOM      1  N   UNL     1       8.018  -5.110   6.288  0.00  0.00    -0.354 N 
ATOM      2  N   UNL     1      10.233  -4.435   6.279  0.00  0.00    -0.372 N 
ATOM      3  N   UNL     1       8.712  -3.261   5.026  0.00  0.00    -0.372 N 
ATOM      4  C   UNL     1       8.972  -4.271   5.862  0.00  0.00    +0.166 C 
ATOM      5  H   UNL     1       8.285  -5.874   6.897  0.00  0.00    +0.163 HD
ATOM      6  H   UNL     1      10.974  -3.816   5.978  0.00  0.00    +0.159 HD
ATOM      7  H   UNL     1      10.489  -5.172   6.925  0.00  0.00    +0.159 HD
ATOM      8  H   UNL     1       7.781  -3.087   4.670  0.00  0.00    +0.159 HD
ATOM      9  H   UNL     1       9.441  -2.638   4.704  0.00  0.00    +0.159 HD
ENDROOT
BRANCH   1  10
ATOM     10  C   UNL     1       6.604  -4.986   5.936  0.00  0.00    +0.151 C 
BRANCH  10  11
ATOM     11  C   UNL     1       5.952  -6.337   6.037  0.00  0.00    -0.028 A 
ATOM     12  C   UNL     1       6.725  -7.485   6.270  0.00  0.00    +0.005 A 
ATOM     13  C   UNL     1       4.562  -6.477   5.908  0.00  0.00    +0.005 A 
ATOM     14  C   UNL     1       6.117  -8.736   6.394  0.00  0.00    +0.000 A 
ATOM     15  C   UNL     1       3.959  -7.728   6.031  0.00  0.00    +0.000 A 
ATOM     16  C   UNL     1       4.736  -8.857   6.277  0.00  0.00    +0.000 A 
ENDBRANCH  10  11
ENDBRANCH   1  10
TORSDOF 2
ENDMDL
MODEL 6
REMARK VINA RESULT:    -5.177      2.267      3.195
REMARK INTER + INTRA:          -5.918
REMARK INTER:                  -5.792
REMARK INTRA:                  -0.126
REMARK UNBOUND:                -0.136
REMARK  Name = 1550473
REMARK  2 active torsions:
REMARK  status: ('A' for Active; 'I' for Inactive)
REMARK    1  A    between atoms: N_1  and  C_4
REMARK    2  A    between atoms: C_4  and  C_5
REMARK                            x       y       z     vdW  Elec       q    Type
REMARK                         _______ _______ _______ _____ _____    ______ ____
ROOT
ATOM      1  N   UNL     1       8.194  -5.671   6.080  0.00  0.00    -0.354 N 
ATOM      2  N   UNL     1       9.454  -3.729   6.008  0.00  0.00    -0.372 N 
ATOM      3  N   UNL     1      10.285  -5.550   7.131  0.00  0.00    -0.372 N 
ATOM      4  C   UNL     1       9.305  -4.998   6.409  0.00  0.00    +0.166 C 
ATOM      5  H   UNL     1       7.474  -5.187   5.557  0.00  0.00    +0.163 HD
ATOM      6  H   UNL     1      10.282  -3.197   6.238  0.00  0.00    +0.159 HD
ATOM      7  H   UNL     1       8.753  -3.262   5.446  0.00  0.00    +0.159 HD
ATOM      8  H   UNL     1      10.231  -6.501   7.469  0.00  0.00    +0.159 HD
ATOM      9  H   UNL     1      11.117  -5.029   7.381  0.00  0.00    +0.159 HD
ENDROOT
BRANCH   1  10
ATOM     10  C   UNL     1       7.957  -7.073   6.420  0.00  0.00    +0.151 C 
BRANCH  10  11
ATOM     11  C   UNL     1       6.492  -7.376   6.265  0.00  0.00    -0.028 A 
ATOM     12  C   UNL     1       5.578  -6.348   5.993  0.00  0.00    +0.005 A 
ATOM     13  C   UNL     1       6.013  -8.690   6.383  0.00  0.00    +0.005 A 
ATOM     14  C   UNL     1       4.222  -6.632   5.818  0.00  0.00    +0.000 A 
ATOM     15  C   UNL     1       4.658  -8.970   6.209  0.00  0.00    +0.000 A 
ATOM     16  C   UNL     1       3.763  -7.941   5.924  0.00  0.00    +0.000 A 
ENDBRANCH  10  11
ENDBRANCH   1  10
TORSDOF 2
ENDMDL
MODEL 7
REMARK VINA RESULT:    -5.007     28.350     29.132
REMARK INTER + INTRA:          -5.729
REMARK INTER:                  -5.588
REMARK INTRA:                  -0.140
REMARK UNBOUND:                -0.136
REMARK  Name = 1550473
REMARK  2 active torsions:
REMARK  status: ('A' for Active; 'I' for Inactive)
REMARK    1  A    between atoms: N_1  and  C_4
REMARK    2  A    between atoms: C_4  and  C_5
REMARK                            x       y       z     vdW  Elec       q    Type
REMARK                         _______ _______ _______ _____ _____    ______ ____
ROOT
ATOM      1  N   UNL     1      -4.933  -9.474 -23.013  0.00  0.00    -0.354 N 
ATOM      2  N   UNL     1      -6.574 -11.052 -23.439  0.00  0.00    -0.372 N 
ATOM      3  N   UNL     1      -4.389 -11.736 -23.294  0.00  0.00    -0.372 N 
ATOM      4  C   UNL     1      -5.286 -10.745 -23.246  0.00  0.00    +0.166 C 
ATOM      5  H   UNL     1      -5.657  -8.765 -23.019  0.00  0.00    +0.163 HD
ATOM      6  H   UNL     1      -6.871 -12.002 -23.614  0.00  0.00    +0.159 HD
ATOM      7  H   UNL     1      -7.301 -10.348 -23.399  0.00  0.00    +0.159 HD
ATOM      8  H   UNL     1      -3.400 -11.571 -23.163  0.00  0.00    +0.159 HD
ATOM      9  H   UNL     1      -4.665 -12.693 -23.480  0.00  0.00    +0.159 HD
ENDROOT
BRANCH   1  10
ATOM     10  C   UNL     1      -3.563  -9.043 -22.737  0.00  0.00    +0.151 C 
BRANCH  10  11
ATOM     11  C   UNL     1      -3.458  -8.635 -21.293  0.00  0.00    -0.028 A 
ATOM     12  C   UNL     1      -4.614  -8.395 -20.535  0.00  0.00    +0.005 A 
ATOM     13  C   UNL     1      -2.206  -8.492 -20.676  0.00  0.00    +0.005 A 
ATOM     14  C   UNL     1      -4.518  -8.045 -19.186  0.00  0.00    +0.000 A 
ATOM     15  C   UNL     1      -2.115  -8.142 -19.329  0.00  0.00    +0.000 A 
ATOM     16  C   UNL     1      -3.270  -7.921 -18.584  0.00  0.00    +0.000 A 
ENDBRANCH  10  11
ENDBRANCH   1  10
TORSDOF 2
ENDMDL
MODEL 8
REMARK VINA RESULT:    -4.965     16.925     18.071
REMARK INTER + INTRA:          -5.681
REMARK INTER:                  -5.556
REMARK INTRA:                  -0.126
REMARK UNBOUND:                -0.136
REMARK  Name = 1550473
REMARK  2 active torsions:
REMARK  status: ('A' for Active; 'I' for Inactive)
REMARK    1  A    between atoms: N_1  and  C_4
REMARK    2  A    between atoms: C_4  and  C_5
REMARK                            x       y       z     vdW  Elec       q    Type
REMARK                         _______ _______ _______ _____ _____    ______ ____
ROOT
ATOM      1  N   UNL     1      -5.135 -11.248  -7.669  0.00  0.00    -0.354 N 
ATOM      2  N   UNL     1      -4.879 -12.955  -9.213  0.00  0.00    -0.372 N 
ATOM      3  N   UNL     1      -4.063 -13.249  -7.088  0.00  0.00    -0.372 N 
ATOM      4  C   UNL     1      -4.693 -12.474  -7.978  0.00  0.00    +0.166 C 
ATOM      5  H   UNL     1      -5.578 -10.698  -8.397  0.00  0.00    +0.163 HD
ATOM      6  H   UNL     1      -4.558 -13.878  -9.474  0.00  0.00    +0.159 HD
ATOM      7  H   UNL     1      -5.362 -12.422  -9.925  0.00  0.00    +0.159 HD
ATOM      8  H   UNL     1      -3.886 -12.942  -6.141  0.00  0.00    +0.159 HD
ATOM      9  H   UNL     1      -3.725 -14.171  -7.334  0.00  0.00    +0.159 HD
ENDROOT
BRANCH   1  10
ATOM     10  C   UNL     1      -5.031 -10.651  -6.339  0.00  0.00    +0.151 C 
BRANCH  10  11
ATOM     11  C   UNL     1      -6.135  -9.646  -6.163  0.00  0.00    -0.028 A 
ATOM     12  C   UNL     1      -6.849  -9.171  -7.273  0.00  0.00    +0.005 A 
ATOM     13  C   UNL     1      -6.477  -9.168  -4.888  0.00  0.00    +0.005 A 
ATOM     14  C   UNL     1      -7.895  -8.260  -7.107  0.00  0.00    +0.000 A 
ATOM     15  C   UNL     1      -7.521  -8.258  -4.727  0.00  0.00    +0.000 A 
ATOM     16  C   UNL     1      -8.231  -7.806  -5.836  0.00  0.00    +0.000 A 
ENDBRANCH  10  11
ENDBRANCH   1  10
TORSDOF 2
ENDMDL
MODEL 9
REMARK VINA RESULT:    -4.929     13.255     14.955
REMARK INTER + INTRA:          -5.641
REMARK INTER:                  -5.509
REMARK INTRA:                  -0.132
REMARK UNBOUND:                -0.136
REMARK  Name = 1550473
REMARK  2 active torsions:
REMARK  status: ('A' for Active; 'I' for Inactive)
REMARK    1  A    between atoms: N_1  and  C_4
REMARK    2  A    between atoms: C_4  and  C_5
REMARK                            x       y       z     vdW  Elec       q    Type
REMARK                         _______ _______ _______ _____ _____    ______ ____
ROOT
ATOM      1  N   UNL     1       0.573   6.078  10.669  0.00  0.00    -0.354 N 
ATOM      2  N   UNL     1      -1.324   5.113   9.756  0.00  0.00    -0.372 N 
ATOM      3  N   UNL     1       0.721   4.173   9.312  0.00  0.00    -0.372 N 
ATOM      4  C   UNL     1       0.004   5.126   9.917  0.00  0.00    +0.166 C 
ATOM      5  H   UNL     1      -0.023   6.790  11.076  0.00  0.00    +0.163 HD
ATOM      6  H   UNL     1      -1.782   4.405   9.197  0.00  0.00    +0.159 HD
ATOM      7  H   UNL     1      -1.922   5.799  10.201  0.00  0.00    +0.159 HD
ATOM      8  H   UNL     1       1.728   4.130   9.389  0.00  0.00    +0.159 HD
ATOM      9  H   UNL     1       0.282   3.463   8.739  0.00  0.00    +0.159 HD
ENDROOT
BRANCH   1  10
ATOM     10  C   UNL     1       2.006   6.149  10.951  0.00  0.00    +0.151 C 
BRANCH  10  11
ATOM     11  C   UNL     1       2.207   6.719  12.328  0.00  0.00    -0.028 A 
ATOM     12  C   UNL     1       1.166   6.695  13.268  0.00  0.00    +0.005 A 
ATOM     13  C   UNL     1       3.438   7.279  12.702  0.00  0.00    +0.005 A 
ATOM     14  C   UNL     1       1.361   7.197  14.557  0.00  0.00    +0.000 A 
ATOM     15  C   UNL     1       3.629   7.779  13.990  0.00  0.00    +0.000 A 
ATOM     16  C   UNL     1       2.592   7.736  14.917  0.00  0.00    +0.000 A 
ENDBRANCH  10  11
ENDBRANCH   1  10
TORSDOF 2
ENDMDL
