MODEL 1
REMARK VINA RESULT:    -5.169      0.000      0.000
REMARK INTER + INTRA:          -5.898
REMARK INTER:                  -5.774
REMARK INTRA:                  -0.125
REMARK UNBOUND:                -0.125
REMARK  Name = 1550473
REMARK  2 active torsions:
REMARK  status: ('A' for Active; 'I' for Inactive)
REMARK    1  A    between atoms: N_1  and  C_4
REMARK    2  A    between atoms: C_4  and  C_5
REMARK                            x       y       z     vdW  Elec       q    Type
REMARK                         _______ _______ _______ _____ _____    ______ ____
ROOT
ATOM      1  N   UNL     1       3.066  -1.076 -10.766  0.00  0.00    -0.354 N 
ATOM      2  N   UNL     1       1.569   0.665 -10.465  0.00  0.00    -0.372 N 
ATOM      3  N   UNL     1       1.529  -0.503 -12.440  0.00  0.00    -0.372 N 
ATOM      4  C   UNL     1       2.064  -0.317 -11.229  0.00  0.00    +0.166 C 
ATOM      5  H   UNL     1       3.448  -0.865  -9.852  0.00  0.00    +0.163 HD
ATOM      6  H   UNL     1       0.810   1.252 -10.786  0.00  0.00    +0.159 HD
ATOM      7  H   UNL     1       1.921   0.844  -9.533  0.00  0.00    +0.159 HD
ATOM      8  H   UNL     1       1.862  -1.223 -13.067  0.00  0.00    +0.159 HD
ATOM      9  H   UNL     1       0.777   0.082 -12.783  0.00  0.00    +0.159 HD
ENDROOT
BRANCH   1  10
ATOM     10  C   UNL     1       3.641  -2.205 -11.497  0.00  0.00    +0.151 C 
BRANCH  10  11
ATOM     11  C   UNL     1       4.413  -3.069 -10.538  0.00  0.00    -0.028 A 
ATOM     12  C   UNL     1       4.958  -4.290 -10.960  0.00  0.00    +0.005 A 
ATOM     13  C   UNL     1       4.607  -2.669  -9.206  0.00  0.00    +0.005 A 
ATOM     14  C   UNL     1       5.701  -5.078 -10.078  0.00  0.00    +0.000 A 
ATOM     15  C   UNL     1       5.348  -3.459  -8.328  0.00  0.00    +0.000 A 
ATOM     16  C   UNL     1       5.897  -4.662  -8.765  0.00  0.00    +0.000 A 
ENDBRANCH  10  11
ENDBRANCH   1  10
TORSDOF 2
ENDMDL
MODEL 2
REMARK VINA RESULT:    -5.084      1.428      2.223
REMARK INTER + INTRA:          -5.803
REMARK INTER:                  -5.654
REMARK INTRA:                  -0.150
REMARK UNBOUND:                -0.125
REMARK  Name = 1550473
REMARK  2 active torsions:
REMARK  status: ('A' for Active; 'I' for Inactive)
REMARK    1  A    between atoms: N_1  and  C_4
REMARK    2  A    between atoms: C_4  and  C_5
REMARK                            x       y       z     vdW  Elec       q    Type
REMARK                         _______ _______ _______ _____ _____    ______ ____
ROOT
ATOM      1  N   UNL     1       3.256  -2.582 -10.434  0.00  0.00    -0.354 N 
ATOM      2  N   UNL     1       2.012  -1.550 -12.093  0.00  0.00    -0.372 N 
ATOM      3  N   UNL     1       3.131  -0.246 -10.572  0.00  0.00    -0.372 N 
ATOM      4  C   UNL     1       2.809  -1.464 -11.020  0.00  0.00    +0.166 C 
ATOM      5  H   UNL     1       2.951  -3.475 -10.804  0.00  0.00    +0.163 HD
ATOM      6  H   UNL     1       1.662  -0.723 -12.559  0.00  0.00    +0.159 HD
ATOM      7  H   UNL     1       1.746  -2.443 -12.489  0.00  0.00    +0.159 HD
ATOM      8  H   UNL     1       3.723  -0.113  -9.763  0.00  0.00    +0.159 HD
ATOM      9  H   UNL     1       2.781   0.593 -11.017  0.00  0.00    +0.159 HD
ENDROOT
BRANCH   1  10
ATOM     10  C   UNL     1       4.171  -2.598  -9.294  0.00  0.00    +0.151 C 
BRANCH  10  11
ATOM     11  C   UNL     1       5.403  -3.377  -9.664  0.00  0.00    -0.028 A 
ATOM     12  C   UNL     1       5.739  -4.549  -8.972  0.00  0.00    +0.005 A 
ATOM     13  C   UNL     1       6.236  -2.950 -10.710  0.00  0.00    +0.005 A 
ATOM     14  C   UNL     1       6.867  -5.289  -9.334  0.00  0.00    +0.000 A 
ATOM     15  C   UNL     1       7.362  -3.691 -11.068  0.00  0.00    +0.000 A 
ATOM     16  C   UNL     1       7.676  -4.861 -10.382  0.00  0.00    +0.000 A 
ENDBRANCH  10  11
ENDBRANCH   1  10
TORSDOF 2
ENDMDL
MODEL 3
REMARK VINA RESULT:    -5.079      2.465      5.287
REMARK INTER + INTRA:          -5.797
REMARK INTER:                  -5.624
REMARK INTRA:                  -0.173
REMARK UNBOUND:                -0.125
REMARK  Name = 1550473
REMARK  2 active torsions:
REMARK  status: ('A' for Active; 'I' for Inactive)
REMARK    1  A    between atoms: N_1  and  C_4
REMARK    2  A    between atoms: C_4  and  C_5
REMARK                            x       y       z     vdW  Elec       q    Type
REMARK                         _______ _______ _______ _____ _____    ______ ____
ROOT
ATOM      1  N   UNL     1       3.384  -2.578 -12.126  0.00  0.00    -0.354 N 
ATOM      2  N   UNL     1       5.531  -3.248 -11.571  0.00  0.00    -0.372 N 
ATOM      3  N   UNL     1       3.798  -3.811 -10.177  0.00  0.00    -0.372 N 
ATOM      4  C   UNL     1       4.222  -3.209 -11.293  0.00  0.00    +0.166 C 
ATOM      5  H   UNL     1       3.773  -2.115 -12.940  0.00  0.00    +0.163 HD
ATOM      6  H   UNL     1       6.187  -3.719 -10.963  0.00  0.00    +0.159 HD
ATOM      7  H   UNL     1       5.910  -2.824 -12.409  0.00  0.00    +0.159 HD
ATOM      8  H   UNL     1       2.824  -3.812  -9.906  0.00  0.00    +0.159 HD
ATOM      9  H   UNL     1       4.441  -4.278  -9.549  0.00  0.00    +0.159 HD
ENDROOT
BRANCH   1  10
ATOM     10  C   UNL     1       1.935  -2.523 -11.942  0.00  0.00    +0.151 C 
BRANCH  10  11
ATOM     11  C   UNL     1       1.552  -1.151 -11.459  0.00  0.00    -0.028 A 
ATOM     12  C   UNL     1       0.915  -0.984 -10.222  0.00  0.00    +0.005 A 
ATOM     13  C   UNL     1       1.830  -0.014 -12.233  0.00  0.00    +0.005 A 
ATOM     14  C   UNL     1       0.586   0.292  -9.759  0.00  0.00    +0.000 A 
ATOM     15  C   UNL     1       1.500   1.259 -11.768  0.00  0.00    +0.000 A 
ATOM     16  C   UNL     1       0.880   1.412 -10.530  0.00  0.00    +0.000 A 
ENDBRANCH  10  11
ENDBRANCH   1  10
TORSDOF 2
ENDMDL
MODEL 4
REMARK VINA RESULT:    -4.828     13.537     14.573
REMARK INTER + INTRA:          -5.517
REMARK INTER:                  -5.397
REMARK INTRA:                  -0.120
REMARK UNBOUND:                -0.125
REMARK  Name = 1550473
REMARK  2 active torsions:
REMARK  status: ('A' for Active; 'I' for Inactive)
REMARK    1  A    between atoms: N_1  and  C_4
REMARK    2  A    between atoms: C_4  and  C_5
REMARK                            x       y       z     vdW  Elec       q    Type
REMARK                         _______ _______ _______ _____ _____    ______ ____
ROOT
ATOM      1  N   UNL     1       5.449 -14.023  -0.783  0.00  0.00    -0.354 N 
ATOM      2  N   UNL     1       5.024 -15.096   1.225  0.00  0.00    -0.372 N 
ATOM      3  N   UNL     1       4.709 -12.827   1.092  0.00  0.00    -0.372 N 
ATOM      4  C   UNL     1       5.063 -13.973   0.499  0.00  0.00    +0.166 C 
ATOM      5  H   UNL     1       5.734 -14.918  -1.164  0.00  0.00    +0.163 HD
ATOM      6  H   UNL     1       4.733 -15.090   2.194  0.00  0.00    +0.159 HD
ATOM      7  H   UNL     1       5.265 -15.996   0.828  0.00  0.00    +0.159 HD
ATOM      8  H   UNL     1       4.723 -11.944   0.600  0.00  0.00    +0.159 HD
ATOM      9  H   UNL     1       4.426 -12.799   2.063  0.00  0.00    +0.159 HD
ENDROOT
BRANCH   1  10
ATOM     10  C   UNL     1       5.476 -12.866  -1.675  0.00  0.00    +0.151 C 
BRANCH  10  11
ATOM     11  C   UNL     1       4.751 -13.210  -2.947  0.00  0.00    -0.028 A 
ATOM     12  C   UNL     1       5.316 -14.104  -3.868  0.00  0.00    +0.005 A 
ATOM     13  C   UNL     1       3.497 -12.650  -3.234  0.00  0.00    +0.005 A 
ATOM     14  C   UNL     1       4.630 -14.448  -5.036  0.00  0.00    +0.000 A 
ATOM     15  C   UNL     1       2.816 -12.994  -4.402  0.00  0.00    +0.000 A 
ATOM     16  C   UNL     1       3.381 -13.895  -5.301  0.00  0.00    +0.000 A 
ENDBRANCH  10  11
ENDBRANCH   1  10
TORSDOF 2
ENDMDL
MODEL 5
REMARK VINA RESULT:    -4.787     13.795     14.783
REMARK INTER + INTRA:          -5.471
REMARK INTER:                  -5.373
REMARK INTRA:                  -0.098
REMARK UNBOUND:                -0.125
REMARK  Name = 1550473
REMARK  2 active torsions:
REMARK  status: ('A' for Active; 'I' for Inactive)
REMARK    1  A    between atoms: N_1  and  C_4
REMARK    2  A    between atoms: C_4  and  C_5
REMARK                            x       y       z     vdW  Elec       q    Type
REMARK                         _______ _______ _______ _____ _____    ______ ____
ROOT
ATOM      1  N   UNL     1      -2.614   8.458 -16.814  0.00  0.00    -0.354 N 
ATOM      2  N   UNL     1      -3.722   7.978 -18.791  0.00  0.00    -0.372 N 
ATOM      3  N   UNL     1      -4.309   6.840 -16.886  0.00  0.00    -0.372 N 
ATOM      4  C   UNL     1      -3.542   7.760 -17.482  0.00  0.00    +0.166 C 
ATOM      5  H   UNL     1      -2.045   9.119 -17.330  0.00  0.00    +0.163 HD
ATOM      6  H   UNL     1      -4.417   7.469 -19.320  0.00  0.00    +0.159 HD
ATOM      7  H   UNL     1      -3.184   8.672 -19.294  0.00  0.00    +0.159 HD
ATOM      8  H   UNL     1      -4.218   6.624 -15.902  0.00  0.00    +0.159 HD
ATOM      9  H   UNL     1      -5.001   6.312 -17.402  0.00  0.00    +0.159 HD
ENDROOT
BRANCH   1  10
ATOM     10  C   UNL     1      -2.376   8.335 -15.377  0.00  0.00    +0.151 C 
BRANCH  10  11
ATOM     11  C   UNL     1      -1.725   9.595 -14.878  0.00  0.00    -0.028 A 
ATOM     12  C   UNL     1      -2.375  10.407 -13.937  0.00  0.00    +0.005 A 
ATOM     13  C   UNL     1      -0.456   9.979 -15.337  0.00  0.00    +0.005 A 
ATOM     14  C   UNL     1      -1.758  11.562 -13.450  0.00  0.00    +0.000 A 
ATOM     15  C   UNL     1       0.157  11.133 -14.849  0.00  0.00    +0.000 A 
ATOM     16  C   UNL     1      -0.493  11.923 -13.904  0.00  0.00    +0.000 A 
ENDBRANCH  10  11
ENDBRANCH   1  10
TORSDOF 2
ENDMDL
MODEL 6
REMARK VINA RESULT:    -4.702     16.845     17.624
REMARK INTER + INTRA:          -5.376
REMARK INTER:                  -5.207
REMARK INTRA:                  -0.169
REMARK UNBOUND:                -0.125
REMARK  Name = 1550473
REMARK  2 active torsions:
REMARK  status: ('A' for Active; 'I' for Inactive)
REMARK    1  A    between atoms: N_1  and  C_4
REMARK    2  A    between atoms: C_4  and  C_5
REMARK                            x       y       z     vdW  Elec       q    Type
REMARK                         _______ _______ _______ _____ _____    ______ ____
ROOT
ATOM      1  N   UNL     1      -9.374   7.257 -11.785  0.00  0.00    -0.354 N 
ATOM      2  N   UNL     1      -8.092   8.668 -10.469  0.00  0.00    -0.372 N 
ATOM      3  N   UNL     1     -10.204   9.330 -11.075  0.00  0.00    -0.372 N 
ATOM      4  C   UNL     1      -9.234   8.411 -11.119  0.00  0.00    +0.166 C 
ATOM      5  H   UNL     1      -8.590   6.615 -11.805  0.00  0.00    +0.163 HD
ATOM      6  H   UNL     1      -7.959   9.528  -9.955  0.00  0.00    +0.159 HD
ATOM      7  H   UNL     1      -7.327   8.004 -10.453  0.00  0.00    +0.159 HD
ATOM      8  H   UNL     1     -11.087   9.200 -11.549  0.00  0.00    +0.159 HD
ATOM      9  H   UNL     1     -10.085  10.203 -10.575  0.00  0.00    +0.159 HD
ENDROOT
BRANCH   1  10
ATOM     10  C   UNL     1     -10.596   6.857 -12.480  0.00  0.00    +0.151 C 
BRANCH  10  11
ATOM     11  C   UNL     1     -10.341   6.859 -13.962  0.00  0.00    -0.028 A 
ATOM     12  C   UNL     1     -10.134   5.655 -14.651  0.00  0.00    +0.005 A 
ATOM     13  C   UNL     1     -10.312   8.061 -14.685  0.00  0.00    +0.005 A 
ATOM     14  C   UNL     1      -9.928   5.653 -16.032  0.00  0.00    +0.000 A 
ATOM     15  C   UNL     1     -10.104   8.056 -16.064  0.00  0.00    +0.000 A 
ATOM     16  C   UNL     1      -9.915   6.852 -16.738  0.00  0.00    +0.000 A 
ENDBRANCH  10  11
ENDBRANCH   1  10
TORSDOF 2
ENDMDL
MODEL 7
REMARK VINA RESULT:    -4.620      1.635      2.597
REMARK INTER + INTRA:          -5.285
REMARK INTER:                  -5.112
REMARK INTRA:                  -0.173
REMARK UNBOUND:                -0.125
REMARK  Name = 1550473
REMARK  2 active torsions:
REMARK  status: ('A' for Active; 'I' for Inactive)
REMARK    1  A    between atoms: N_1  and  C_4
REMARK    2  A    between atoms: C_4  and  C_5
REMARK                            x       y       z     vdW  Elec       q    Type
REMARK                         _______ _______ _______ _____ _____    ______ ____
ROOT
ATOM      1  N   UNL     1       3.804  -2.861 -12.189  0.00  0.00    -0.354 N 
ATOM      2  N   UNL     1       1.744  -1.991 -11.584  0.00  0.00    -0.372 N 
ATOM      3  N   UNL     1       3.615  -1.306 -10.446  0.00  0.00    -0.372 N 
ATOM      4  C   UNL     1       3.070  -2.057 -11.408  0.00  0.00    +0.166 C 
ATOM      5  H   UNL     1       3.326  -3.427 -12.881  0.00  0.00    +0.163 HD
ATOM      6  H   UNL     1       1.165  -1.391 -11.012  0.00  0.00    +0.159 HD
ATOM      7  H   UNL     1       1.275  -2.524 -12.306  0.00  0.00    +0.159 HD
ATOM      8  H   UNL     1       4.609  -1.314 -10.259  0.00  0.00    +0.159 HD
ATOM      9  H   UNL     1       3.051  -0.708  -9.856  0.00  0.00    +0.159 HD
ENDROOT
BRANCH   1  10
ATOM     10  C   UNL     1       5.260  -2.965 -12.115  0.00  0.00    +0.151 C 
BRANCH  10  11
ATOM     11  C   UNL     1       5.625  -4.163 -11.283  0.00  0.00    -0.028 A 
ATOM     12  C   UNL     1       6.045  -4.005  -9.954  0.00  0.00    +0.005 A 
ATOM     13  C   UNL     1       5.548  -5.459 -11.815  0.00  0.00    +0.005 A 
ATOM     14  C   UNL     1       6.355  -5.119  -9.171  0.00  0.00    +0.000 A 
ATOM     15  C   UNL     1       5.859  -6.569 -11.030  0.00  0.00    +0.000 A 
ATOM     16  C   UNL     1       6.261  -6.399  -9.707  0.00  0.00    +0.000 A 
ENDBRANCH  10  11
ENDBRANCH   1  10
TORSDOF 2
ENDMDL
MODEL 8
REMARK VINA RESULT:    -4.606      2.214      3.032
REMARK INTER + INTRA:          -5.269
REMARK INTER:                  -5.114
REMARK INTRA:                  -0.155
REMARK UNBOUND:                -0.125
REMARK  Name = 1550473
REMARK  2 active torsions:
REMARK  status: ('A' for Active; 'I' for Inactive)
REMARK    1  A    between atoms: N_1  and  C_4
REMARK    2  A    between atoms: C_4  and  C_5
REMARK                            x       y       z     vdW  Elec       q    Type
REMARK                         _______ _______ _______ _____ _____    ______ ____
ROOT
ATOM      1  N   UNL     1       3.066  -2.587 -12.070  0.00  0.00    -0.354 N 
ATOM      2  N   UNL     1       1.680  -0.749 -12.325  0.00  0.00    -0.372 N 
ATOM      3  N   UNL     1       2.428  -1.292 -10.224  0.00  0.00    -0.372 N 
ATOM      4  C   UNL     1       2.400  -1.555 -11.535  0.00  0.00    +0.166 C 
ATOM      5  H   UNL     1       2.980  -2.751 -13.066  0.00  0.00    +0.163 HD
ATOM      6  H   UNL     1       1.170   0.040 -11.950  0.00  0.00    +0.159 HD
ATOM      7  H   UNL     1       1.633  -0.888 -13.327  0.00  0.00    +0.159 HD
ATOM      8  H   UNL     1       2.948  -1.865  -9.574  0.00  0.00    +0.159 HD
ATOM      9  H   UNL     1       1.915  -0.514  -9.829  0.00  0.00    +0.159 HD
ENDROOT
BRANCH   1  10
ATOM     10  C   UNL     1       3.922  -3.492 -11.305  0.00  0.00    +0.151 C 
BRANCH  10  11
ATOM     11  C   UNL     1       5.356  -3.254 -11.691  0.00  0.00    -0.028 A 
ATOM     12  C   UNL     1       6.330  -3.030 -10.707  0.00  0.00    +0.005 A 
ATOM     13  C   UNL     1       5.748  -3.258 -13.038  0.00  0.00    +0.005 A 
ATOM     14  C   UNL     1       7.667  -2.839 -11.063  0.00  0.00    +0.000 A 
ATOM     15  C   UNL     1       7.084  -3.065 -13.389  0.00  0.00    +0.000 A 
ATOM     16  C   UNL     1       8.044  -2.858 -12.401  0.00  0.00    +0.000 A 
ENDBRANCH  10  11
ENDBRANCH   1  10
TORSDOF 2
ENDMDL
MODEL 9
REMARK VINA RESULT:    -4.338      2.005      3.169
REMARK INTER + INTRA:          -4.969
REMARK INTER:                  -4.822
REMARK INTRA:                  -0.147
REMARK UNBOUND:                -0.125
REMARK  Name = 1550473
REMARK  2 active torsions:
REMARK  status: ('A' for Active; 'I' for Inactive)
REMARK    1  A    between atoms: N_1  and  C_4
REMARK    2  A    between atoms: C_4  and  C_5
REMARK                            x       y       z     vdW  Elec       q    Type
REMARK                         _______ _______ _______ _____ _____    ______ ____
ROOT
ATOM      1  N   UNL     1       4.023  -3.382 -10.928  0.00  0.00    -0.354 N 
ATOM      2  N   UNL     1       3.833  -1.224 -10.109  0.00  0.00    -0.372 N 
ATOM      3  N   UNL     1       3.923  -2.970  -8.623  0.00  0.00    -0.372 N 
ATOM      4  C   UNL     1       3.927  -2.541  -9.890  0.00  0.00    +0.166 C 
ATOM      5  H   UNL     1       3.990  -2.996 -11.865  0.00  0.00    +0.163 HD
ATOM      6  H   UNL     1       3.763  -0.565  -9.346  0.00  0.00    +0.159 HD
ATOM      7  H   UNL     1       3.847  -0.838 -11.045  0.00  0.00    +0.159 HD
ATOM      8  H   UNL     1       3.985  -3.952  -8.390  0.00  0.00    +0.159 HD
ATOM      9  H   UNL     1       3.842  -2.327  -7.846  0.00  0.00    +0.159 HD
ENDROOT
BRANCH   1  10
ATOM     10  C   UNL     1       4.184  -4.829 -10.796  0.00  0.00    +0.151 C 
BRANCH  10  11
ATOM     11  C   UNL     1       5.650  -5.155 -10.716  0.00  0.00    -0.028 A 
ATOM     12  C   UNL     1       6.478  -4.989 -11.835  0.00  0.00    +0.005 A 
ATOM     13  C   UNL     1       6.217  -5.625  -9.521  0.00  0.00    +0.005 A 
ATOM     14  C   UNL     1       7.846  -5.264 -11.752  0.00  0.00    +0.000 A 
ATOM     15  C   UNL     1       7.583  -5.898  -9.443  0.00  0.00    +0.000 A 
ATOM     16  C   UNL     1       8.397  -5.715 -10.558  0.00  0.00    +0.000 A 
ENDBRANCH  10  11
ENDBRANCH   1  10
TORSDOF 2
ENDMDL
