MODEL 1
REMARK VINA RESULT:    -6.307      0.000      0.000
REMARK INTER + INTRA:          -7.168
REMARK INTER:                  -7.045
REMARK INTRA:                  -0.124
REMARK UNBOUND:                -0.124
REMARK  Name = 1550473
REMARK  2 active torsions:
REMARK  status: ('A' for Active; 'I' for Inactive)
REMARK    1  A    between atoms: N_1  and  C_4
REMARK    2  A    between atoms: C_4  and  C_5
REMARK                            x       y       z     vdW  Elec       q    Type
REMARK                         _______ _______ _______ _____ _____    ______ ____
ROOT
ATOM      1  N   UNL     1       2.389   5.380 -10.982  0.00  0.00    -0.354 N 
ATOM      2  N   UNL     1       2.420   5.368  -8.667  0.00  0.00    -0.372 N 
ATOM      3  N   UNL     1       4.158   4.392  -9.804  0.00  0.00    -0.372 N 
ATOM      4  C   UNL     1       2.991   5.045  -9.833  0.00  0.00    +0.166 C 
ATOM      5  H   UNL     1       1.492   5.848 -10.937  0.00  0.00    +0.163 HD
ATOM      6  H   UNL     1       2.852   5.132  -7.783  0.00  0.00    +0.159 HD
ATOM      7  H   UNL     1       1.545   5.876  -8.624  0.00  0.00    +0.159 HD
ATOM      8  H   UNL     1       4.637   4.114 -10.650  0.00  0.00    +0.159 HD
ATOM      9  H   UNL     1       4.600   4.136  -8.930  0.00  0.00    +0.159 HD
ENDROOT
BRANCH   1  10
ATOM     10  C   UNL     1       2.954   5.122 -12.306  0.00  0.00    +0.151 C 
BRANCH  10  11
ATOM     11  C   UNL     1       1.911   5.413 -13.350  0.00  0.00    -0.028 A 
ATOM     12  C   UNL     1       2.218   5.302 -14.714  0.00  0.00    +0.005 A 
ATOM     13  C   UNL     1       0.611   5.794 -12.981  0.00  0.00    +0.005 A 
ATOM     14  C   UNL     1       1.241   5.542 -15.683  0.00  0.00    +0.000 A 
ATOM     15  C   UNL     1      -0.361   6.034 -13.952  0.00  0.00    +0.000 A 
ATOM     16  C   UNL     1      -0.047   5.905 -15.302  0.00  0.00    +0.000 A 
ENDBRANCH  10  11
ENDBRANCH   1  10
TORSDOF 2
ENDMDL
MODEL 2
REMARK VINA RESULT:    -6.185      1.331      2.371
REMARK INTER + INTRA:          -7.032
REMARK INTER:                  -6.902
REMARK INTRA:                  -0.129
REMARK UNBOUND:                -0.124
REMARK  Name = 1550473
REMARK  2 active torsions:
REMARK  status: ('A' for Active; 'I' for Inactive)
REMARK    1  A    between atoms: N_1  and  C_4
REMARK    2  A    between atoms: C_4  and  C_5
REMARK                            x       y       z     vdW  Elec       q    Type
REMARK                         _______ _______ _______ _____ _____    ______ ____
ROOT
ATOM      1  N   UNL     1       1.573   5.249  -9.437  0.00  0.00    -0.354 N 
ATOM      2  N   UNL     1       0.599   5.726  -7.390  0.00  0.00    -0.372 N 
ATOM      3  N   UNL     1       2.876   5.912  -7.605  0.00  0.00    -0.372 N 
ATOM      4  C   UNL     1       1.692   5.626  -8.157  0.00  0.00    +0.166 C 
ATOM      5  H   UNL     1       0.650   5.017  -9.786  0.00  0.00    +0.163 HD
ATOM      6  H   UNL     1       0.657   6.012  -6.422  0.00  0.00    +0.159 HD
ATOM      7  H   UNL     1      -0.327   5.538  -7.755  0.00  0.00    +0.159 HD
ATOM      8  H   UNL     1       3.739   5.850  -8.128  0.00  0.00    +0.159 HD
ATOM      9  H   UNL     1       2.955   6.188  -6.634  0.00  0.00    +0.159 HD
ENDROOT
BRANCH   1  10
ATOM     10  C   UNL     1       2.694   5.161 -10.370  0.00  0.00    +0.151 C 
BRANCH  10  11
ATOM     11  C   UNL     1       2.178   5.322 -11.774  0.00  0.00    -0.028 A 
ATOM     12  C   UNL     1       0.850   5.708 -12.004  0.00  0.00    +0.005 A 
ATOM     13  C   UNL     1       3.014   5.094 -12.878  0.00  0.00    +0.005 A 
ATOM     14  C   UNL     1       0.379   5.887 -13.307  0.00  0.00    +0.000 A 
ATOM     15  C   UNL     1       2.540   5.273 -14.177  0.00  0.00    +0.000 A 
ATOM     16  C   UNL     1       1.223   5.671 -14.391  0.00  0.00    +0.000 A 
ENDBRANCH  10  11
ENDBRANCH   1  10
TORSDOF 2
ENDMDL
MODEL 3
REMARK VINA RESULT:    -5.754      4.066      4.815
REMARK INTER + INTRA:          -6.550
REMARK INTER:                  -6.378
REMARK INTRA:                  -0.172
REMARK UNBOUND:                -0.124
REMARK  Name = 1550473
REMARK  2 active torsions:
REMARK  status: ('A' for Active; 'I' for Inactive)
REMARK    1  A    between atoms: N_1  and  C_4
REMARK    2  A    between atoms: C_4  and  C_5
REMARK                            x       y       z     vdW  Elec       q    Type
REMARK                         _______ _______ _______ _____ _____    ______ ____
ROOT
ATOM      1  N   UNL     1       6.396   7.192 -14.843  0.00  0.00    -0.354 N 
ATOM      2  N   UNL     1       8.071   6.222 -16.115  0.00  0.00    -0.372 N 
ATOM      3  N   UNL     1       7.054   4.972 -14.482  0.00  0.00    -0.372 N 
ATOM      4  C   UNL     1       7.162   6.133 -15.137  0.00  0.00    +0.166 C 
ATOM      5  H   UNL     1       6.547   8.053 -15.356  0.00  0.00    +0.163 HD
ATOM      6  H   UNL     1       8.661   5.439 -16.361  0.00  0.00    +0.159 HD
ATOM      7  H   UNL     1       8.189   7.070 -16.657  0.00  0.00    +0.159 HD
ATOM      8  H   UNL     1       6.391   4.842 -13.729  0.00  0.00    +0.159 HD
ATOM      9  H   UNL     1       7.643   4.180 -14.706  0.00  0.00    +0.159 HD
ENDROOT
BRANCH   1  10
ATOM     10  C   UNL     1       5.340   7.182 -13.833  0.00  0.00    +0.151 C 
BRANCH  10  11
ATOM     11  C   UNL     1       4.028   6.863 -14.495  0.00  0.00    -0.028 A 
ATOM     12  C   UNL     1       3.442   5.598 -14.340  0.00  0.00    +0.005 A 
ATOM     13  C   UNL     1       3.364   7.822 -15.275  0.00  0.00    +0.005 A 
ATOM     14  C   UNL     1       2.209   5.311 -14.931  0.00  0.00    +0.000 A 
ATOM     15  C   UNL     1       2.133   7.531 -15.863  0.00  0.00    +0.000 A 
ATOM     16  C   UNL     1       1.555   6.276 -15.689  0.00  0.00    +0.000 A 
ENDBRANCH  10  11
ENDBRANCH   1  10
TORSDOF 2
ENDMDL
MODEL 4
REMARK VINA RESULT:    -5.741     34.742     36.110
REMARK INTER + INTRA:          -6.536
REMARK INTER:                  -6.357
REMARK INTRA:                  -0.179
REMARK UNBOUND:                -0.124
REMARK  Name = 1550473
REMARK  2 active torsions:
REMARK  status: ('A' for Active; 'I' for Inactive)
REMARK    1  A    between atoms: N_1  and  C_4
REMARK    2  A    between atoms: C_4  and  C_5
REMARK                            x       y       z     vdW  Elec       q    Type
REMARK                         _______ _______ _______ _____ _____    ______ ____
ROOT
ATOM      1  N   UNL     1      -2.689   0.784  22.405  0.00  0.00    -0.354 N 
ATOM      2  N   UNL     1      -2.636  -1.482  21.928  0.00  0.00    -0.372 N 
ATOM      3  N   UNL     1      -3.632  -0.056  20.430  0.00  0.00    -0.372 N 
ATOM      4  C   UNL     1      -2.988  -0.236  21.588  0.00  0.00    +0.166 C 
ATOM      5  H   UNL     1      -2.227   0.578  23.283  0.00  0.00    +0.163 HD
ATOM      6  H   UNL     1      -2.845  -2.271  21.330  0.00  0.00    +0.159 HD
ATOM      7  H   UNL     1      -2.133  -1.679  22.784  0.00  0.00    +0.159 HD
ATOM      8  H   UNL     1      -3.930   0.859  20.119  0.00  0.00    +0.159 HD
ATOM      9  H   UNL     1      -3.860  -0.835  19.824  0.00  0.00    +0.159 HD
ENDROOT
BRANCH   1  10
ATOM     10  C   UNL     1      -2.980   2.184  22.103  0.00  0.00    +0.151 C 
BRANCH  10  11
ATOM     11  C   UNL     1      -4.231   2.594  22.830  0.00  0.00    -0.028 A 
ATOM     12  C   UNL     1      -4.292   2.538  24.230  0.00  0.00    +0.005 A 
ATOM     13  C   UNL     1      -5.357   3.044  22.124  0.00  0.00    +0.005 A 
ATOM     14  C   UNL     1      -5.444   2.946  24.907  0.00  0.00    +0.000 A 
ATOM     15  C   UNL     1      -6.506   3.451  22.804  0.00  0.00    +0.000 A 
ATOM     16  C   UNL     1      -6.548   3.404  24.195  0.00  0.00    +0.000 A 
ENDBRANCH  10  11
ENDBRANCH   1  10
TORSDOF 2
ENDMDL
MODEL 5
REMARK VINA RESULT:    -5.670     31.362     34.015
REMARK INTER + INTRA:          -6.457
REMARK INTER:                  -6.326
REMARK INTRA:                  -0.131
REMARK UNBOUND:                -0.124
REMARK  Name = 1550473
REMARK  2 active torsions:
REMARK  status: ('A' for Active; 'I' for Inactive)
REMARK    1  A    between atoms: N_1  and  C_4
REMARK    2  A    between atoms: C_4  and  C_5
REMARK                            x       y       z     vdW  Elec       q    Type
REMARK                         _______ _______ _______ _____ _____    ______ ____
ROOT
ATOM      1  N   UNL     1      -3.133   5.876  19.727  0.00  0.00    -0.354 N 
ATOM      2  N   UNL     1      -3.466   7.894  18.642  0.00  0.00    -0.372 N 
ATOM      3  N   UNL     1      -3.287   5.978  17.391  0.00  0.00    -0.372 N 
ATOM      4  C   UNL     1      -3.293   6.568  18.592  0.00  0.00    +0.166 C 
ATOM      5  H   UNL     1      -3.116   6.385  20.603  0.00  0.00    +0.163 HD
ATOM      6  H   UNL     1      -3.593   8.442  17.801  0.00  0.00    +0.159 HD
ATOM      7  H   UNL     1      -3.495   8.395  19.521  0.00  0.00    +0.159 HD
ATOM      8  H   UNL     1      -3.155   4.981  17.285  0.00  0.00    +0.159 HD
ATOM      9  H   UNL     1      -3.401   6.511  16.538  0.00  0.00    +0.159 HD
ENDROOT
BRANCH   1  10
ATOM     10  C   UNL     1      -2.991   4.422  19.786  0.00  0.00    +0.151 C 
BRANCH  10  11
ATOM     11  C   UNL     1      -3.595   3.920  21.068  0.00  0.00    -0.028 A 
ATOM     12  C   UNL     1      -4.551   4.686  21.752  0.00  0.00    +0.005 A 
ATOM     13  C   UNL     1      -3.221   2.678  21.602  0.00  0.00    +0.005 A 
ATOM     14  C   UNL     1      -5.135   4.208  22.927  0.00  0.00    +0.000 A 
ATOM     15  C   UNL     1      -3.806   2.204  22.776  0.00  0.00    +0.000 A 
ATOM     16  C   UNL     1      -4.765   2.968  23.437  0.00  0.00    +0.000 A 
ENDBRANCH  10  11
ENDBRANCH   1  10
TORSDOF 2
ENDMDL
MODEL 6
REMARK VINA RESULT:    -5.610     27.272     28.847
REMARK INTER + INTRA:          -6.390
REMARK INTER:                  -6.215
REMARK INTRA:                  -0.175
REMARK UNBOUND:                -0.124
REMARK  Name = 1550473
REMARK  2 active torsions:
REMARK  status: ('A' for Active; 'I' for Inactive)
REMARK    1  A    between atoms: N_1  and  C_4
REMARK    2  A    between atoms: C_4  and  C_5
REMARK                            x       y       z     vdW  Elec       q    Type
REMARK                         _______ _______ _______ _____ _____    ______ ____
ROOT
ATOM      1  N   UNL     1       8.861  23.335   8.606  0.00  0.00    -0.354 N 
ATOM      2  N   UNL     1      10.356  21.831   7.674  0.00  0.00    -0.372 N 
ATOM      3  N   UNL     1       8.370  22.235   6.596  0.00  0.00    -0.372 N 
ATOM      4  C   UNL     1       9.184  22.477   7.630  0.00  0.00    +0.166 C 
ATOM      5  H   UNL     1       9.508  23.452   9.377  0.00  0.00    +0.163 HD
ATOM      6  H   UNL     1      10.628  21.180   6.949  0.00  0.00    +0.159 HD
ATOM      7  H   UNL     1      11.020  21.984   8.422  0.00  0.00    +0.159 HD
ATOM      8  H   UNL     1       7.469  22.685   6.507  0.00  0.00    +0.159 HD
ATOM      9  H   UNL     1       8.620  21.578   5.868  0.00  0.00    +0.159 HD
ENDROOT
BRANCH   1  10
ATOM     10  C   UNL     1       7.634  24.129   8.625  0.00  0.00    +0.151 C 
BRANCH  10  11
ATOM     11  C   UNL     1       6.705  23.572   9.668  0.00  0.00    -0.028 A 
ATOM     12  C   UNL     1       6.691  24.104  10.966  0.00  0.00    +0.005 A 
ATOM     13  C   UNL     1       5.832  22.516   9.364  0.00  0.00    +0.005 A 
ATOM     14  C   UNL     1       5.807  23.607  11.927  0.00  0.00    +0.000 A 
ATOM     15  C   UNL     1       4.952  22.022  10.326  0.00  0.00    +0.000 A 
ATOM     16  C   UNL     1       4.938  22.569  11.607  0.00  0.00    +0.000 A 
ENDBRANCH  10  11
ENDBRANCH   1  10
TORSDOF 2
ENDMDL
MODEL 7
REMARK VINA RESULT:    -5.561     18.510     19.647
REMARK INTER + INTRA:          -6.336
REMARK INTER:                  -6.208
REMARK INTRA:                  -0.127
REMARK UNBOUND:                -0.124
REMARK  Name = 1550473
REMARK  2 active torsions:
REMARK  status: ('A' for Active; 'I' for Inactive)
REMARK    1  A    between atoms: N_1  and  C_4
REMARK    2  A    between atoms: C_4  and  C_5
REMARK                            x       y       z     vdW  Elec       q    Type
REMARK                         _______ _______ _______ _____ _____    ______ ____
ROOT
ATOM      1  N   UNL     1      16.679   4.256  -0.158  0.00  0.00    -0.354 N 
ATOM      2  N   UNL     1      16.268   2.987  -2.051  0.00  0.00    -0.372 N 
ATOM      3  N   UNL     1      16.759   5.215  -2.295  0.00  0.00    -0.372 N 
ATOM      4  C   UNL     1      16.572   4.163  -1.490  0.00  0.00    +0.166 C 
ATOM      5  H   UNL     1      16.496   3.429   0.399  0.00  0.00    +0.163 HD
ATOM      6  H   UNL     1      16.183   2.885  -3.053  0.00  0.00    +0.159 HD
ATOM      7  H   UNL     1      16.130   2.151  -1.495  0.00  0.00    +0.159 HD
ATOM      8  H   UNL     1      16.985   6.132  -1.934  0.00  0.00    +0.159 HD
ATOM      9  H   UNL     1      16.667   5.136  -3.300  0.00  0.00    +0.159 HD
ENDROOT
BRANCH   1  10
ATOM     10  C   UNL     1      17.059   5.478   0.549  0.00  0.00    +0.151 C 
BRANCH  10  11
ATOM     11  C   UNL     1      15.931   5.893   1.453  0.00  0.00    -0.028 A 
ATOM     12  C   UNL     1      16.100   6.946   2.364  0.00  0.00    +0.005 A 
ATOM     13  C   UNL     1      14.689   5.242   1.399  0.00  0.00    +0.005 A 
ATOM     14  C   UNL     1      15.043   7.352   3.183  0.00  0.00    +0.000 A 
ATOM     15  C   UNL     1      13.637   5.649   2.219  0.00  0.00    +0.000 A 
ATOM     16  C   UNL     1      13.814   6.706   3.109  0.00  0.00    +0.000 A 
ENDBRANCH  10  11
ENDBRANCH   1  10
TORSDOF 2
ENDMDL
MODEL 8
REMARK VINA RESULT:    -5.540     10.495     11.275
REMARK INTER + INTRA:          -6.312
REMARK INTER:                  -6.178
REMARK INTRA:                  -0.134
REMARK UNBOUND:                -0.124
REMARK  Name = 1550473
REMARK  2 active torsions:
REMARK  status: ('A' for Active; 'I' for Inactive)
REMARK    1  A    between atoms: N_1  and  C_4
REMARK    2  A    between atoms: C_4  and  C_5
REMARK                            x       y       z     vdW  Elec       q    Type
REMARK                         _______ _______ _______ _____ _____    ______ ____
ROOT
ATOM      1  N   UNL     1      11.903   9.148  -7.479  0.00  0.00    -0.354 N 
ATOM      2  N   UNL     1      13.340   8.955  -9.286  0.00  0.00    -0.372 N 
ATOM      3  N   UNL     1      12.202   7.095  -8.571  0.00  0.00    -0.372 N 
ATOM      4  C   UNL     1      12.472   8.398  -8.433  0.00  0.00    +0.166 C 
ATOM      5  H   UNL     1      12.173  10.122  -7.409  0.00  0.00    +0.163 HD
ATOM      6  H   UNL     1      13.782   8.415 -10.018  0.00  0.00    +0.159 HD
ATOM      7  H   UNL     1      13.573   9.940  -9.242  0.00  0.00    +0.159 HD
ATOM      8  H   UNL     1      11.560   6.614  -7.955  0.00  0.00    +0.159 HD
ATOM      9  H   UNL     1      12.643   6.536  -9.289  0.00  0.00    +0.159 HD
ENDROOT
BRANCH   1  10
ATOM     10  C   UNL     1      10.905   8.650  -6.535  0.00  0.00    +0.151 C 
BRANCH  10  11
ATOM     11  C   UNL     1       9.691   9.537  -6.590  0.00  0.00    -0.028 A 
ATOM     12  C   UNL     1       8.803   9.597  -5.507  0.00  0.00    +0.005 A 
ATOM     13  C   UNL     1       9.428  10.325  -7.722  0.00  0.00    +0.005 A 
ATOM     14  C   UNL     1       7.692  10.443  -5.546  0.00  0.00    +0.000 A 
ATOM     15  C   UNL     1       8.317  11.168  -7.757  0.00  0.00    +0.000 A 
ATOM     16  C   UNL     1       7.451  11.229  -6.668  0.00  0.00    +0.000 A 
ENDBRANCH  10  11
ENDBRANCH   1  10
TORSDOF 2
ENDMDL
MODEL 9
REMARK VINA RESULT:    -5.382     27.686     28.484
REMARK INTER + INTRA:          -6.135
REMARK INTER:                  -6.005
REMARK INTRA:                  -0.130
REMARK UNBOUND:                -0.124
REMARK  Name = 1550473
REMARK  2 active torsions:
REMARK  status: ('A' for Active; 'I' for Inactive)
REMARK    1  A    between atoms: N_1  and  C_4
REMARK    2  A    between atoms: C_4  and  C_5
REMARK                            x       y       z     vdW  Elec       q    Type
REMARK                         _______ _______ _______ _____ _____    ______ ____
ROOT
ATOM      1  N   UNL     1       6.487  24.156   8.575  0.00  0.00    -0.354 N 
ATOM      2  N   UNL     1       8.446  23.415   7.589  0.00  0.00    -0.372 N 
ATOM      3  N   UNL     1       8.286  23.409   9.878  0.00  0.00    -0.372 N 
ATOM      4  C   UNL     1       7.728  23.665   8.690  0.00  0.00    +0.166 C 
ATOM      5  H   UNL     1       6.132  24.357   7.647  0.00  0.00    +0.163 HD
ATOM      6  H   UNL     1       9.384  23.040   7.643  0.00  0.00    +0.159 HD
ATOM      7  H   UNL     1       8.072  23.573   6.661  0.00  0.00    +0.159 HD
ATOM      8  H   UNL     1       7.799  23.581  10.747  0.00  0.00    +0.159 HD
ATOM      9  H   UNL     1       9.228  23.045   9.953  0.00  0.00    +0.159 HD
ENDROOT
BRANCH   1  10
ATOM     10  C   UNL     1       5.601  24.413   9.710  0.00  0.00    +0.151 C 
BRANCH  10  11
ATOM     11  C   UNL     1       4.276  23.747   9.459  0.00  0.00    -0.028 A 
ATOM     12  C   UNL     1       4.062  22.417   9.851  0.00  0.00    +0.005 A 
ATOM     13  C   UNL     1       3.229  24.442   8.835  0.00  0.00    +0.005 A 
ATOM     14  C   UNL     1       2.822  21.808   9.645  0.00  0.00    +0.000 A 
ATOM     15  C   UNL     1       1.992  23.830   8.631  0.00  0.00    +0.000 A 
ATOM     16  C   UNL     1       1.788  22.514   9.038  0.00  0.00    +0.000 A 
ENDBRANCH  10  11
ENDBRANCH   1  10
TORSDOF 2
ENDMDL
