MODEL 1
REMARK VINA RESULT:    -5.677      0.000      0.000
REMARK INTER + INTRA:          -6.452
REMARK INTER:                  -6.341
REMARK INTRA:                  -0.111
REMARK UNBOUND:                -0.111
REMARK  Name = 1550473
REMARK  2 active torsions:
REMARK  status: ('A' for Active; 'I' for Inactive)
REMARK    1  A    between atoms: N_1  and  C_4
REMARK    2  A    between atoms: C_4  and  C_5
REMARK                            x       y       z     vdW  Elec       q    Type
REMARK                         _______ _______ _______ _____ _____    ______ ____
ROOT
ATOM      1  N   UNL     1       3.475  -7.622 -10.024  0.00  0.00    -0.354 N 
ATOM      2  N   UNL     1       3.188  -9.880  -9.596  0.00  0.00    -0.372 N 
ATOM      3  N   UNL     1       3.655  -9.209 -11.740  0.00  0.00    -0.372 N 
ATOM      4  C   UNL     1       3.441  -8.889 -10.459  0.00  0.00    +0.166 C 
ATOM      5  H   UNL     1       3.274  -7.444  -9.047  0.00  0.00    +0.163 HD
ATOM      6  H   UNL     1       3.160 -10.846  -9.894  0.00  0.00    +0.159 HD
ATOM      7  H   UNL     1       3.034  -9.703  -8.611  0.00  0.00    +0.159 HD
ATOM      8  H   UNL     1       3.845  -8.507 -12.442  0.00  0.00    +0.159 HD
ATOM      9  H   UNL     1       3.619 -10.168 -12.060  0.00  0.00    +0.159 HD
ENDROOT
BRANCH   1  10
ATOM     10  C   UNL     1       3.794  -6.475 -10.872  0.00  0.00    +0.151 C 
BRANCH  10  11
ATOM     11  C   UNL     1       2.519  -5.903 -11.426  0.00  0.00    -0.028 A 
ATOM     12  C   UNL     1       2.508  -5.263 -12.674  0.00  0.00    +0.005 A 
ATOM     13  C   UNL     1       1.316  -6.003 -10.710  0.00  0.00    +0.005 A 
ATOM     14  C   UNL     1       1.318  -4.758 -13.202  0.00  0.00    +0.000 A 
ATOM     15  C   UNL     1       0.129  -5.496 -11.241  0.00  0.00    +0.000 A 
ATOM     16  C   UNL     1       0.130  -4.876 -12.488  0.00  0.00    +0.000 A 
ENDBRANCH  10  11
ENDBRANCH   1  10
TORSDOF 2
ENDMDL
MODEL 2
REMARK VINA RESULT:    -5.648     12.474     13.916
REMARK INTER + INTRA:          -6.420
REMARK INTER:                  -6.278
REMARK INTRA:                  -0.142
REMARK UNBOUND:                -0.111
REMARK  Name = 1550473
REMARK  2 active torsions:
REMARK  status: ('A' for Active; 'I' for Inactive)
REMARK    1  A    between atoms: N_1  and  C_4
REMARK    2  A    between atoms: C_4  and  C_5
REMARK                            x       y       z     vdW  Elec       q    Type
REMARK                         _______ _______ _______ _____ _____    ______ ____
ROOT
ATOM      1  N   UNL     1     -11.702  -2.276  -9.622  0.00  0.00    -0.354 N 
ATOM      2  N   UNL     1     -13.295  -1.763 -11.222  0.00  0.00    -0.372 N 
ATOM      3  N   UNL     1     -12.399  -3.875 -11.187  0.00  0.00    -0.372 N 
ATOM      4  C   UNL     1     -12.454  -2.644 -10.667  0.00  0.00    +0.166 C 
ATOM      5  H   UNL     1     -11.768  -1.319  -9.294  0.00  0.00    +0.163 HD
ATOM      6  H   UNL     1     -13.878  -2.013 -12.010  0.00  0.00    +0.159 HD
ATOM      7  H   UNL     1     -13.393  -0.821 -10.864  0.00  0.00    +0.159 HD
ATOM      8  H   UNL     1     -11.780  -4.585 -10.818  0.00  0.00    +0.159 HD
ATOM      9  H   UNL     1     -12.965  -4.140 -11.983  0.00  0.00    +0.159 HD
ENDROOT
BRANCH   1  10
ATOM     10  C   UNL     1     -10.794  -3.175  -8.911  0.00  0.00    +0.151 C 
BRANCH  10  11
ATOM     11  C   UNL     1      -9.468  -2.489  -8.726  0.00  0.00    -0.028 A 
ATOM     12  C   UNL     1      -8.389  -3.170  -8.144  0.00  0.00    +0.005 A 
ATOM     13  C   UNL     1      -9.284  -1.159  -9.136  0.00  0.00    +0.005 A 
ATOM     14  C   UNL     1      -7.149  -2.542  -8.000  0.00  0.00    +0.000 A 
ATOM     15  C   UNL     1      -8.045  -0.536  -8.989  0.00  0.00    +0.000 A 
ATOM     16  C   UNL     1      -6.977  -1.229  -8.423  0.00  0.00    +0.000 A 
ENDBRANCH  10  11
ENDBRANCH   1  10
TORSDOF 2
ENDMDL
MODEL 3
REMARK VINA RESULT:    -5.559     12.947     14.405
REMARK INTER + INTRA:          -6.320
REMARK INTER:                  -6.175
REMARK INTRA:                  -0.145
REMARK UNBOUND:                -0.111
REMARK  Name = 1550473
REMARK  2 active torsions:
REMARK  status: ('A' for Active; 'I' for Inactive)
REMARK    1  A    between atoms: N_1  and  C_4
REMARK    2  A    between atoms: C_4  and  C_5
REMARK                            x       y       z     vdW  Elec       q    Type
REMARK                         _______ _______ _______ _____ _____    ______ ____
ROOT
ATOM      1  N   UNL     1     -12.134  -3.065 -10.935  0.00  0.00    -0.354 N 
ATOM      2  N   UNL     1     -13.254  -4.949 -11.682  0.00  0.00    -0.372 N 
ATOM      3  N   UNL     1     -13.884  -4.001  -9.690  0.00  0.00    -0.372 N 
ATOM      4  C   UNL     1     -13.085  -3.993 -10.761  0.00  0.00    +0.166 C 
ATOM      5  H   UNL     1     -11.541  -3.132 -11.754  0.00  0.00    +0.163 HD
ATOM      6  H   UNL     1     -13.966  -5.660 -11.580  0.00  0.00    +0.159 HD
ATOM      7  H   UNL     1     -12.691  -4.986 -12.522  0.00  0.00    +0.159 HD
ATOM      8  H   UNL     1     -13.803  -3.310  -8.956  0.00  0.00    +0.159 HD
ATOM      9  H   UNL     1     -14.594  -4.711  -9.564  0.00  0.00    +0.159 HD
ENDROOT
BRANCH   1  10
ATOM     10  C   UNL     1     -11.902  -1.950 -10.019  0.00  0.00    +0.151 C 
BRANCH  10  11
ATOM     11  C   UNL     1     -10.524  -2.074  -9.432  0.00  0.00    -0.028 A 
ATOM     12  C   UNL     1      -9.600  -1.025  -9.553  0.00  0.00    +0.005 A 
ATOM     13  C   UNL     1     -10.136  -3.237  -8.747  0.00  0.00    +0.005 A 
ATOM     14  C   UNL     1      -8.330  -1.129  -8.981  0.00  0.00    +0.000 A 
ATOM     15  C   UNL     1      -8.866  -3.336  -8.179  0.00  0.00    +0.000 A 
ATOM     16  C   UNL     1      -7.965  -2.281  -8.294  0.00  0.00    +0.000 A 
ENDBRANCH  10  11
ENDBRANCH   1  10
TORSDOF 2
ENDMDL
MODEL 4
REMARK VINA RESULT:    -5.549     12.357     14.056
REMARK INTER + INTRA:          -6.308
REMARK INTER:                  -6.175
REMARK INTRA:                  -0.134
REMARK UNBOUND:                -0.111
REMARK  Name = 1550473
REMARK  2 active torsions:
REMARK  status: ('A' for Active; 'I' for Inactive)
REMARK    1  A    between atoms: N_1  and  C_4
REMARK    2  A    between atoms: C_4  and  C_5
REMARK                            x       y       z     vdW  Elec       q    Type
REMARK                         _______ _______ _______ _____ _____    ______ ____
ROOT
ATOM      1  N   UNL     1      -9.466   1.117  -9.074  0.00  0.00    -0.354 N 
ATOM      2  N   UNL     1      -9.282   3.101  -7.893  0.00  0.00    -0.372 N 
ATOM      3  N   UNL     1     -10.972   1.644  -7.357  0.00  0.00    -0.372 N 
ATOM      4  C   UNL     1      -9.910   1.940  -8.114  0.00  0.00    +0.166 C 
ATOM      5  H   UNL     1      -8.675   1.413  -9.634  0.00  0.00    +0.163 HD
ATOM      6  H   UNL     1      -9.592   3.740  -7.174  0.00  0.00    +0.159 HD
ATOM      7  H   UNL     1      -8.464   3.373  -8.423  0.00  0.00    +0.159 HD
ATOM      8  H   UNL     1     -11.493   0.786  -7.477  0.00  0.00    +0.159 HD
ATOM      9  H   UNL     1     -11.304   2.276  -6.640  0.00  0.00    +0.159 HD
ENDROOT
BRANCH   1  10
ATOM     10  C   UNL     1     -10.046  -0.194  -9.359  0.00  0.00    +0.151 C 
BRANCH  10  11
ATOM     11  C   UNL     1      -9.101  -1.263  -8.885  0.00  0.00    -0.028 A 
ATOM     12  C   UNL     1      -9.528  -2.595  -8.777  0.00  0.00    +0.005 A 
ATOM     13  C   UNL     1      -7.774  -0.952  -8.548  0.00  0.00    +0.005 A 
ATOM     14  C   UNL     1      -8.641  -3.593  -8.366  0.00  0.00    +0.000 A 
ATOM     15  C   UNL     1      -6.893  -1.952  -8.137  0.00  0.00    +0.000 A 
ATOM     16  C   UNL     1      -7.326  -3.272  -8.048  0.00  0.00    +0.000 A 
ENDBRANCH  10  11
ENDBRANCH   1  10
TORSDOF 2
ENDMDL
MODEL 5
REMARK VINA RESULT:    -5.499     12.210     13.886
REMARK INTER + INTRA:          -6.252
REMARK INTER:                  -6.094
REMARK INTRA:                  -0.159
REMARK UNBOUND:                -0.111
REMARK  Name = 1550473
REMARK  2 active torsions:
REMARK  status: ('A' for Active; 'I' for Inactive)
REMARK    1  A    between atoms: N_1  and  C_4
REMARK    2  A    between atoms: C_4  and  C_5
REMARK                            x       y       z     vdW  Elec       q    Type
REMARK                         _______ _______ _______ _____ _____    ______ ____
ROOT
ATOM      1  N   UNL     1      -9.742   0.299 -10.181  0.00  0.00    -0.354 N 
ATOM      2  N   UNL     1     -11.134   0.550 -12.015  0.00  0.00    -0.372 N 
ATOM      3  N   UNL     1     -12.073   0.241  -9.945  0.00  0.00    -0.372 N 
ATOM      4  C   UNL     1     -10.976   0.361 -10.700  0.00  0.00    +0.166 C 
ATOM      5  H   UNL     1      -8.951   0.368 -10.812  0.00  0.00    +0.163 HD
ATOM      6  H   UNL     1     -12.053   0.604 -12.435  0.00  0.00    +0.159 HD
ATOM      7  H   UNL     1     -10.342   0.664 -12.636  0.00  0.00    +0.159 HD
ATOM      8  H   UNL     1     -12.022   0.090  -8.946  0.00  0.00    +0.159 HD
ATOM      9  H   UNL     1     -13.001   0.280 -10.347  0.00  0.00    +0.159 HD
ENDROOT
BRANCH   1  10
ATOM     10  C   UNL     1      -9.461   0.150  -8.755  0.00  0.00    +0.151 C 
BRANCH  10  11
ATOM     11  C   UNL     1      -8.785  -1.173  -8.522  0.00  0.00    -0.028 A 
ATOM     12  C   UNL     1      -9.486  -2.373  -8.712  0.00  0.00    +0.005 A 
ATOM     13  C   UNL     1      -7.443  -1.233  -8.119  0.00  0.00    +0.005 A 
ATOM     14  C   UNL     1      -8.850  -3.603  -8.525  0.00  0.00    +0.000 A 
ATOM     15  C   UNL     1      -6.811  -2.463  -7.933  0.00  0.00    +0.000 A 
ATOM     16  C   UNL     1      -7.515  -3.647  -8.139  0.00  0.00    +0.000 A 
ENDBRANCH  10  11
ENDBRANCH   1  10
TORSDOF 2
ENDMDL
MODEL 6
REMARK VINA RESULT:    -5.385      2.640      4.877
REMARK INTER + INTRA:          -6.125
REMARK INTER:                  -6.015
REMARK INTRA:                  -0.110
REMARK UNBOUND:                -0.111
REMARK  Name = 1550473
REMARK  2 active torsions:
REMARK  status: ('A' for Active; 'I' for Inactive)
REMARK    1  A    between atoms: N_1  and  C_4
REMARK    2  A    between atoms: C_4  and  C_5
REMARK                            x       y       z     vdW  Elec       q    Type
REMARK                         _______ _______ _______ _____ _____    ______ ____
ROOT
ATOM      1  N   UNL     1       1.584  -6.000 -11.583  0.00  0.00    -0.354 N 
ATOM      2  N   UNL     1       0.911  -4.806 -13.450  0.00  0.00    -0.372 N 
ATOM      3  N   UNL     1      -0.242  -4.534 -11.485  0.00  0.00    -0.372 N 
ATOM      4  C   UNL     1       0.753  -5.120 -12.159  0.00  0.00    +0.166 C 
ATOM      5  H   UNL     1       2.300  -6.432 -12.156  0.00  0.00    +0.163 HD
ATOM      6  H   UNL     1       0.302  -4.143 -13.911  0.00  0.00    +0.159 HD
ATOM      7  H   UNL     1       1.655  -5.205 -14.009  0.00  0.00    +0.159 HD
ATOM      8  H   UNL     1      -0.418  -4.733 -10.509  0.00  0.00    +0.159 HD
ATOM      9  H   UNL     1      -0.869  -3.877 -11.931  0.00  0.00    +0.159 HD
ENDROOT
BRANCH   1  10
ATOM     10  C   UNL     1       1.532  -6.370 -10.170  0.00  0.00    +0.151 C 
BRANCH  10  11
ATOM     11  C   UNL     1       2.518  -7.476  -9.915  0.00  0.00    -0.028 A 
ATOM     12  C   UNL     1       3.791  -7.445 -10.504  0.00  0.00    +0.005 A 
ATOM     13  C   UNL     1       2.188  -8.556  -9.082  0.00  0.00    +0.005 A 
ATOM     14  C   UNL     1       4.718  -8.456 -10.244  0.00  0.00    +0.000 A 
ATOM     15  C   UNL     1       3.117  -9.565  -8.825  0.00  0.00    +0.000 A 
ATOM     16  C   UNL     1       4.383  -9.513  -9.404  0.00  0.00    +0.000 A 
ENDBRANCH  10  11
ENDBRANCH   1  10
TORSDOF 2
ENDMDL
MODEL 7
REMARK VINA RESULT:    -5.086      2.319      4.921
REMARK INTER + INTRA:          -5.792
REMARK INTER:                  -5.620
REMARK INTRA:                  -0.172
REMARK UNBOUND:                -0.111
REMARK  Name = 1550473
REMARK  2 active torsions:
REMARK  status: ('A' for Active; 'I' for Inactive)
REMARK    1  A    between atoms: N_1  and  C_4
REMARK    2  A    between atoms: C_4  and  C_5
REMARK                            x       y       z     vdW  Elec       q    Type
REMARK                         _______ _______ _______ _____ _____    ______ ____
ROOT
ATOM      1  N   UNL     1       3.351  -7.469 -11.678  0.00  0.00    -0.354 N 
ATOM      2  N   UNL     1       2.236  -5.974 -13.052  0.00  0.00    -0.372 N 
ATOM      3  N   UNL     1       2.725  -5.349 -10.899  0.00  0.00    -0.372 N 
ATOM      4  C   UNL     1       2.778  -6.272 -11.865  0.00  0.00    +0.166 C 
ATOM      5  H   UNL     1       3.331  -8.136 -12.441  0.00  0.00    +0.163 HD
ATOM      6  H   UNL     1       1.800  -5.078 -13.224  0.00  0.00    +0.159 HD
ATOM      7  H   UNL     1       2.259  -6.625 -13.827  0.00  0.00    +0.159 HD
ATOM      8  H   UNL     1       3.110  -5.514  -9.979  0.00  0.00    +0.159 HD
ATOM      9  H   UNL     1       2.282  -4.451 -11.048  0.00  0.00    +0.159 HD
ENDROOT
BRANCH   1  10
ATOM     10  C   UNL     1       4.016  -7.872 -10.441  0.00  0.00    +0.151 C 
BRANCH  10  11
ATOM     11  C   UNL     1       3.206  -8.952  -9.777  0.00  0.00    -0.028 A 
ATOM     12  C   UNL     1       2.119  -8.622  -8.955  0.00  0.00    +0.005 A 
ATOM     13  C   UNL     1       3.518 -10.306  -9.971  0.00  0.00    +0.005 A 
ATOM     14  C   UNL     1       1.348  -9.625  -8.362  0.00  0.00    +0.000 A 
ATOM     15  C   UNL     1       2.746 -11.305  -9.377  0.00  0.00    +0.000 A 
ATOM     16  C   UNL     1       1.660 -10.964  -8.575  0.00  0.00    +0.000 A 
ENDBRANCH  10  11
ENDBRANCH   1  10
TORSDOF 2
ENDMDL
MODEL 8
REMARK VINA RESULT:    -4.770      9.205     10.503
REMARK INTER + INTRA:          -5.439
REMARK INTER:                  -5.355
REMARK INTRA:                  -0.085
REMARK UNBOUND:                -0.111
REMARK  Name = 1550473
REMARK  2 active torsions:
REMARK  status: ('A' for Active; 'I' for Inactive)
REMARK    1  A    between atoms: N_1  and  C_4
REMARK    2  A    between atoms: C_4  and  C_5
REMARK                            x       y       z     vdW  Elec       q    Type
REMARK                         _______ _______ _______ _____ _____    ______ ____
ROOT
ATOM      1  N   UNL     1       6.199  -7.099 -19.417  0.00  0.00    -0.354 N 
ATOM      2  N   UNL     1       4.762  -6.721 -17.640  0.00  0.00    -0.372 N 
ATOM      3  N   UNL     1       5.537  -8.849 -18.006  0.00  0.00    -0.372 N 
ATOM      4  C   UNL     1       5.509  -7.562 -18.366  0.00  0.00    +0.166 C 
ATOM      5  H   UNL     1       6.111  -6.117 -19.655  0.00  0.00    +0.163 HD
ATOM      6  H   UNL     1       4.233  -7.041 -16.839  0.00  0.00    +0.159 HD
ATOM      7  H   UNL     1       4.712  -5.732 -17.853  0.00  0.00    +0.159 HD
ATOM      8  H   UNL     1       6.077  -9.536 -18.516  0.00  0.00    +0.159 HD
ATOM      9  H   UNL     1       5.006  -9.191 -17.215  0.00  0.00    +0.159 HD
ENDROOT
BRANCH   1  10
ATOM     10  C   UNL     1       7.084  -7.920 -20.240  0.00  0.00    +0.151 C 
BRANCH  10  11
ATOM     11  C   UNL     1       8.513  -7.597 -19.898  0.00  0.00    -0.028 A 
ATOM     12  C   UNL     1       9.399  -7.154 -20.890  0.00  0.00    +0.005 A 
ATOM     13  C   UNL     1       8.984  -7.726 -18.583  0.00  0.00    +0.005 A 
ATOM     14  C   UNL     1      10.718  -6.825 -20.568  0.00  0.00    +0.000 A 
ATOM     15  C   UNL     1      10.302  -7.397 -18.265  0.00  0.00    +0.000 A 
ATOM     16  C   UNL     1      11.168  -6.944 -19.257  0.00  0.00    +0.000 A 
ENDBRANCH  10  11
ENDBRANCH   1  10
TORSDOF 2
ENDMDL
MODEL 9
REMARK VINA RESULT:    -4.726     11.317     12.319
REMARK INTER + INTRA:          -5.389
REMARK INTER:                  -5.262
REMARK INTRA:                  -0.128
REMARK UNBOUND:                -0.111
REMARK  Name = 1550473
REMARK  2 active torsions:
REMARK  status: ('A' for Active; 'I' for Inactive)
REMARK    1  A    between atoms: N_1  and  C_4
REMARK    2  A    between atoms: C_4  and  C_5
REMARK                            x       y       z     vdW  Elec       q    Type
REMARK                         _______ _______ _______ _____ _____    ______ ____
ROOT
ATOM      1  N   UNL     1      13.460  -7.871 -18.134  0.00  0.00    -0.354 N 
ATOM      2  N   UNL     1      15.286  -7.951 -16.712  0.00  0.00    -0.372 N 
ATOM      3  N   UNL     1      15.459  -6.774 -18.674  0.00  0.00    -0.372 N 
ATOM      4  C   UNL     1      14.724  -7.530 -17.851  0.00  0.00    +0.166 C 
ATOM      5  H   UNL     1      12.967  -8.472 -17.484  0.00  0.00    +0.163 HD
ATOM      6  H   UNL     1      16.237  -7.707 -16.470  0.00  0.00    +0.159 HD
ATOM      7  H   UNL     1      14.776  -8.513 -16.042  0.00  0.00    +0.159 HD
ATOM      8  H   UNL     1      15.096  -6.429 -19.552  0.00  0.00    +0.159 HD
ATOM      9  H   UNL     1      16.417  -6.529 -18.455  0.00  0.00    +0.159 HD
ENDROOT
BRANCH   1  10
ATOM     10  C   UNL     1      12.738  -7.421 -19.322  0.00  0.00    +0.151 C 
BRANCH  10  11
ATOM     11  C   UNL     1      11.259  -7.517 -19.064  0.00  0.00    -0.028 A 
ATOM     12  C   UNL     1      10.776  -7.746 -17.768  0.00  0.00    +0.005 A 
ATOM     13  C   UNL     1      10.336  -7.374 -20.112  0.00  0.00    +0.005 A 
ATOM     14  C   UNL     1       9.402  -7.805 -17.523  0.00  0.00    +0.000 A 
ATOM     15  C   UNL     1       8.965  -7.435 -19.863  0.00  0.00    +0.000 A 
ATOM     16  C   UNL     1       8.499  -7.648 -18.568  0.00  0.00    +0.000 A 
ENDBRANCH  10  11
ENDBRANCH   1  10
TORSDOF 2
ENDMDL
