MODEL 1
REMARK VINA RESULT:    -5.231      0.000      0.000
REMARK INTER + INTRA:          -6.019
REMARK INTER:                  -5.843
REMARK INTRA:                  -0.177
REMARK UNBOUND:                -0.177
REMARK  Name = 1550473
REMARK  2 active torsions:
REMARK  status: ('A' for Active; 'I' for Inactive)
REMARK    1  A    between atoms: N_1  and  C_4
REMARK    2  A    between atoms: C_4  and  C_5
REMARK                            x       y       z     vdW  Elec       q    Type
REMARK                         _______ _______ _______ _____ _____    ______ ____
ROOT
ATOM      1  N   UNL     1      -6.199 -14.294   3.509  0.00  0.00    -0.354 N 
ATOM      2  N   UNL     1      -6.307 -13.527   1.326  0.00  0.00    -0.372 N 
ATOM      3  N   UNL     1      -4.751 -15.126   1.865  0.00  0.00    -0.372 N 
ATOM      4  C   UNL     1      -5.749 -14.323   2.247  0.00  0.00    +0.166 C 
ATOM      5  H   UNL     1      -6.939 -13.641   3.742  0.00  0.00    +0.163 HD
ATOM      6  H   UNL     1      -5.991 -13.529   0.366  0.00  0.00    +0.159 HD
ATOM      7  H   UNL     1      -7.076 -12.909   1.552  0.00  0.00    +0.159 HD
ATOM      8  H   UNL     1      -4.285 -15.746   2.513  0.00  0.00    +0.159 HD
ATOM      9  H   UNL     1      -4.413 -15.134   0.910  0.00  0.00    +0.159 HD
ENDROOT
BRANCH   1  10
ATOM     10  C   UNL     1      -5.698 -15.159   4.575  0.00  0.00    +0.151 C 
BRANCH  10  11
ATOM     11  C   UNL     1      -4.755 -14.371   5.444  0.00  0.00    -0.028 A 
ATOM     12  C   UNL     1      -5.241 -13.629   6.530  0.00  0.00    +0.005 A 
ATOM     13  C   UNL     1      -3.375 -14.369   5.189  0.00  0.00    +0.005 A 
ATOM     14  C   UNL     1      -4.363 -12.921   7.354  0.00  0.00    +0.000 A 
ATOM     15  C   UNL     1      -2.502 -13.660   6.014  0.00  0.00    +0.000 A 
ATOM     16  C   UNL     1      -2.996 -12.939   7.098  0.00  0.00    +0.000 A 
ENDBRANCH  10  11
ENDBRANCH   1  10
TORSDOF 2
ENDMDL
MODEL 2
REMARK VINA RESULT:    -5.155      1.207      2.176
REMARK INTER + INTRA:          -5.934
REMARK INTER:                  -5.790
REMARK INTRA:                  -0.144
REMARK UNBOUND:                -0.177
REMARK  Name = 1550473
REMARK  2 active torsions:
REMARK  status: ('A' for Active; 'I' for Inactive)
REMARK    1  A    between atoms: N_1  and  C_4
REMARK    2  A    between atoms: C_4  and  C_5
REMARK                            x       y       z     vdW  Elec       q    Type
REMARK                         _______ _______ _______ _____ _____    ______ ____
ROOT
ATOM      1  N   UNL     1      -4.809 -14.728   2.303  0.00  0.00    -0.354 N 
ATOM      2  N   UNL     1      -4.454 -16.376   0.715  0.00  0.00    -0.372 N 
ATOM      3  N   UNL     1      -6.420 -16.381   1.899  0.00  0.00    -0.372 N 
ATOM      4  C   UNL     1      -5.233 -15.819   1.651  0.00  0.00    +0.166 C 
ATOM      5  H   UNL     1      -3.886 -14.367   2.089  0.00  0.00    +0.163 HD
ATOM      6  H   UNL     1      -4.749 -17.198   0.204  0.00  0.00    +0.159 HD
ATOM      7  H   UNL     1      -3.552 -15.987   0.472  0.00  0.00    +0.159 HD
ATOM      8  H   UNL     1      -7.052 -16.012   2.597  0.00  0.00    +0.159 HD
ATOM      9  H   UNL     1      -6.727 -17.211   1.406  0.00  0.00    +0.159 HD
ENDROOT
BRANCH   1  10
ATOM     10  C   UNL     1      -5.603 -14.012   3.301  0.00  0.00    +0.151 C 
BRANCH  10  11
ATOM     11  C   UNL     1      -4.759 -13.780   4.524  0.00  0.00    -0.028 A 
ATOM     12  C   UNL     1      -3.415 -14.180   4.549  0.00  0.00    +0.005 A 
ATOM     13  C   UNL     1      -5.297 -13.154   5.660  0.00  0.00    +0.005 A 
ATOM     14  C   UNL     1      -2.623 -13.937   5.674  0.00  0.00    +0.000 A 
ATOM     15  C   UNL     1      -4.503 -12.915   6.781  0.00  0.00    +0.000 A 
ATOM     16  C   UNL     1      -3.166 -13.304   6.787  0.00  0.00    +0.000 A 
ENDBRANCH  10  11
ENDBRANCH   1  10
TORSDOF 2
ENDMDL
MODEL 3
REMARK VINA RESULT:    -4.980     17.254     18.055
REMARK INTER + INTRA:          -5.738
REMARK INTER:                  -5.627
REMARK INTRA:                  -0.111
REMARK UNBOUND:                -0.177
REMARK  Name = 1550473
REMARK  2 active torsions:
REMARK  status: ('A' for Active; 'I' for Inactive)
REMARK    1  A    between atoms: N_1  and  C_4
REMARK    2  A    between atoms: C_4  and  C_5
REMARK                            x       y       z     vdW  Elec       q    Type
REMARK                         _______ _______ _______ _____ _____    ______ ____
ROOT
ATOM      1  N   UNL     1      10.566 -11.582  -4.500  0.00  0.00    -0.354 N 
ATOM      2  N   UNL     1      10.250 -13.541  -5.695  0.00  0.00    -0.372 N 
ATOM      3  N   UNL     1      10.512 -13.660  -3.419  0.00  0.00    -0.372 N 
ATOM      4  C   UNL     1      10.445 -12.916  -4.528  0.00  0.00    +0.166 C 
ATOM      5  H   UNL     1      10.536 -11.078  -5.379  0.00  0.00    +0.163 HD
ATOM      6  H   UNL     1      10.151 -14.546  -5.746  0.00  0.00    +0.159 HD
ATOM      7  H   UNL     1      10.174 -13.031  -6.566  0.00  0.00    +0.159 HD
ATOM      8  H   UNL     1      10.664 -13.250  -2.507  0.00  0.00    +0.159 HD
ATOM      9  H   UNL     1      10.428 -14.669  -3.451  0.00  0.00    +0.159 HD
ENDROOT
BRANCH   1  10
ATOM     10  C   UNL     1      10.727 -10.801  -3.276  0.00  0.00    +0.151 C 
BRANCH  10  11
ATOM     11  C   UNL     1      10.400  -9.362  -3.564  0.00  0.00    -0.028 A 
ATOM     12  C   UNL     1       9.730  -8.579  -2.613  0.00  0.00    +0.005 A 
ATOM     13  C   UNL     1      10.764  -8.773  -4.785  0.00  0.00    +0.005 A 
ATOM     14  C   UNL     1       9.453  -7.234  -2.869  0.00  0.00    +0.000 A 
ATOM     15  C   UNL     1      10.484  -7.430  -5.037  0.00  0.00    +0.000 A 
ATOM     16  C   UNL     1       9.831  -6.660  -4.078  0.00  0.00    +0.000 A 
ENDBRANCH  10  11
ENDBRANCH   1  10
TORSDOF 2
ENDMDL
MODEL 4
REMARK VINA RESULT:    -4.977     18.840     20.132
REMARK INTER + INTRA:          -5.735
REMARK INTER:                  -5.563
REMARK INTRA:                  -0.172
REMARK UNBOUND:                -0.177
REMARK  Name = 1550473
REMARK  2 active torsions:
REMARK  status: ('A' for Active; 'I' for Inactive)
REMARK    1  A    between atoms: N_1  and  C_4
REMARK    2  A    between atoms: C_4  and  C_5
REMARK                            x       y       z     vdW  Elec       q    Type
REMARK                         _______ _______ _______ _____ _____    ______ ____
ROOT
ATOM      1  N   UNL     1      -9.107   2.470  -2.330  0.00  0.00    -0.354 N 
ATOM      2  N   UNL     1      -9.236   3.030  -0.087  0.00  0.00    -0.372 N 
ATOM      3  N   UNL     1      -7.246   2.252  -0.922  0.00  0.00    -0.372 N 
ATOM      4  C   UNL     1      -8.526   2.579  -1.128  0.00  0.00    +0.166 C 
ATOM      5  H   UNL     1     -10.089   2.706  -2.414  0.00  0.00    +0.163 HD
ATOM      6  H   UNL     1      -8.825   3.127   0.832  0.00  0.00    +0.159 HD
ATOM      7  H   UNL     1     -10.205   3.309  -0.183  0.00  0.00    +0.159 HD
ATOM      8  H   UNL     1      -6.657   1.900  -1.665  0.00  0.00    +0.159 HD
ATOM      9  H   UNL     1      -6.819   2.331  -0.008  0.00  0.00    +0.159 HD
ENDROOT
BRANCH   1  10
ATOM     10  C   UNL     1      -8.407   2.041  -3.540  0.00  0.00    +0.151 C 
BRANCH  10  11
ATOM     11  C   UNL     1      -8.198   3.231  -4.435  0.00  0.00    -0.028 A 
ATOM     12  C   UNL     1      -9.281   3.810  -5.113  0.00  0.00    +0.005 A 
ATOM     13  C   UNL     1      -6.922   3.788  -4.605  0.00  0.00    +0.005 A 
ATOM     14  C   UNL     1      -9.093   4.934  -5.921  0.00  0.00    +0.000 A 
ATOM     15  C   UNL     1      -6.738   4.910  -5.413  0.00  0.00    +0.000 A 
ATOM     16  C   UNL     1      -7.824   5.484  -6.069  0.00  0.00    +0.000 A 
ENDBRANCH  10  11
ENDBRANCH   1  10
TORSDOF 2
ENDMDL
MODEL 5
REMARK VINA RESULT:    -4.919     17.441     18.144
REMARK INTER + INTRA:          -5.670
REMARK INTER:                  -5.548
REMARK INTRA:                  -0.122
REMARK UNBOUND:                -0.177
REMARK  Name = 1550473
REMARK  2 active torsions:
REMARK  status: ('A' for Active; 'I' for Inactive)
REMARK    1  A    between atoms: N_1  and  C_4
REMARK    2  A    between atoms: C_4  and  C_5
REMARK                            x       y       z     vdW  Elec       q    Type
REMARK                         _______ _______ _______ _____ _____    ______ ____
ROOT
ATOM      1  N   UNL     1      10.269 -12.269  -4.493  0.00  0.00    -0.354 N 
ATOM      2  N   UNL     1      10.077 -14.358  -3.513  0.00  0.00    -0.372 N 
ATOM      3  N   UNL     1      11.703 -12.925  -2.760  0.00  0.00    -0.372 N 
ATOM      4  C   UNL     1      10.686 -13.169  -3.594  0.00  0.00    +0.166 C 
ATOM      5  H   UNL     1       9.513 -12.526  -5.117  0.00  0.00    +0.163 HD
ATOM      6  H   UNL     1      10.368 -15.057  -2.842  0.00  0.00    +0.159 HD
ATOM      7  H   UNL     1       9.292 -14.596  -4.107  0.00  0.00    +0.159 HD
ATOM      8  H   UNL     1      12.208 -12.049  -2.774  0.00  0.00    +0.159 HD
ATOM      9  H   UNL     1      12.016 -13.616  -2.089  0.00  0.00    +0.159 HD
ENDROOT
BRANCH   1  10
ATOM     10  C   UNL     1      10.829 -10.925  -4.626  0.00  0.00    +0.151 C 
BRANCH  10  11
ATOM     11  C   UNL     1       9.813 -10.031  -5.280  0.00  0.00    -0.028 A 
ATOM     12  C   UNL     1       9.924  -8.636  -5.184  0.00  0.00    +0.005 A 
ATOM     13  C   UNL     1       8.738 -10.572  -6.002  0.00  0.00    +0.005 A 
ATOM     14  C   UNL     1       8.997  -7.805  -5.817  0.00  0.00    +0.000 A 
ATOM     15  C   UNL     1       7.813  -9.739  -6.632  0.00  0.00    +0.000 A 
ATOM     16  C   UNL     1       7.945  -8.355  -6.541  0.00  0.00    +0.000 A 
ENDBRANCH  10  11
ENDBRANCH   1  10
TORSDOF 2
ENDMDL
MODEL 6
REMARK VINA RESULT:    -4.841     31.349     32.478
REMARK INTER + INTRA:          -5.583
REMARK INTER:                  -5.450
REMARK INTRA:                  -0.133
REMARK UNBOUND:                -0.177
REMARK  Name = 1550473
REMARK  2 active torsions:
REMARK  status: ('A' for Active; 'I' for Inactive)
REMARK    1  A    between atoms: N_1  and  C_4
REMARK    2  A    between atoms: C_4  and  C_5
REMARK                            x       y       z     vdW  Elec       q    Type
REMARK                         _______ _______ _______ _____ _____    ______ ____
ROOT
ATOM      1  N   UNL     1     -15.276  -5.864 -25.739  0.00  0.00    -0.354 N 
ATOM      2  N   UNL     1     -17.540  -5.422 -25.533  0.00  0.00    -0.372 N 
ATOM      3  N   UNL     1     -16.399  -6.235 -23.716  0.00  0.00    -0.372 N 
ATOM      4  C   UNL     1     -16.390  -5.845 -24.995  0.00  0.00    +0.166 C 
ATOM      5  H   UNL     1     -15.341  -5.584 -26.710  0.00  0.00    +0.163 HD
ATOM      6  H   UNL     1     -18.396  -5.392 -24.995  0.00  0.00    +0.159 HD
ATOM      7  H   UNL     1     -17.592  -5.099 -26.491  0.00  0.00    +0.159 HD
ATOM      8  H   UNL     1     -15.566  -6.571 -23.252  0.00  0.00    +0.159 HD
ATOM      9  H   UNL     1     -17.248  -6.225 -23.165  0.00  0.00    +0.159 HD
ENDROOT
BRANCH   1  10
ATOM     10  C   UNL     1     -13.961  -6.256 -25.233  0.00  0.00    +0.151 C 
BRANCH  10  11
ATOM     11  C   UNL     1     -13.108  -5.027 -25.078  0.00  0.00    -0.028 A 
ATOM     12  C   UNL     1     -13.472  -3.825 -25.702  0.00  0.00    +0.005 A 
ATOM     13  C   UNL     1     -11.938  -5.057 -24.303  0.00  0.00    +0.005 A 
ATOM     14  C   UNL     1     -12.696  -2.675 -25.533  0.00  0.00    +0.000 A 
ATOM     15  C   UNL     1     -11.166  -3.907 -24.138  0.00  0.00    +0.000 A 
ATOM     16  C   UNL     1     -11.547  -2.716 -24.752  0.00  0.00    +0.000 A 
ENDBRANCH  10  11
ENDBRANCH   1  10
TORSDOF 2
ENDMDL
MODEL 7
REMARK VINA RESULT:    -4.722     19.017     20.212
REMARK INTER + INTRA:          -5.451
REMARK INTER:                  -5.310
REMARK INTRA:                  -0.140
REMARK UNBOUND:                -0.177
REMARK  Name = 1550473
REMARK  2 active torsions:
REMARK  status: ('A' for Active; 'I' for Inactive)
REMARK    1  A    between atoms: N_1  and  C_4
REMARK    2  A    between atoms: C_4  and  C_5
REMARK                            x       y       z     vdW  Elec       q    Type
REMARK                         _______ _______ _______ _____ _____    ______ ____
ROOT
ATOM      1  N   UNL     1      -8.193   3.427  -1.960  0.00  0.00    -0.354 N 
ATOM      2  N   UNL     1      -6.821   2.092  -0.656  0.00  0.00    -0.372 N 
ATOM      3  N   UNL     1      -7.180   1.509  -2.846  0.00  0.00    -0.372 N 
ATOM      4  C   UNL     1      -7.407   2.350  -1.832  0.00  0.00    +0.166 C 
ATOM      5  H   UNL     1      -8.349   4.009  -1.144  0.00  0.00    +0.163 HD
ATOM      6  H   UNL     1      -6.220   1.289  -0.530  0.00  0.00    +0.159 HD
ATOM      7  H   UNL     1      -6.942   2.701   0.144  0.00  0.00    +0.159 HD
ATOM      8  H   UNL     1      -7.598   1.643  -3.757  0.00  0.00    +0.159 HD
ATOM      9  H   UNL     1      -6.591   0.693  -2.736  0.00  0.00    +0.159 HD
ENDROOT
BRANCH   1  10
ATOM     10  C   UNL     1      -8.835   3.826  -3.211  0.00  0.00    +0.151 C 
BRANCH  10  11
ATOM     11  C   UNL     1     -10.253   4.240  -2.925  0.00  0.00    -0.028 A 
ATOM     12  C   UNL     1     -10.814   4.029  -1.657  0.00  0.00    +0.005 A 
ATOM     13  C   UNL     1     -11.038   4.849  -3.916  0.00  0.00    +0.005 A 
ATOM     14  C   UNL     1     -12.121   4.440  -1.382  0.00  0.00    +0.000 A 
ATOM     15  C   UNL     1     -12.342   5.257  -3.638  0.00  0.00    +0.000 A 
ATOM     16  C   UNL     1     -12.882   5.055  -2.371  0.00  0.00    +0.000 A 
ENDBRANCH  10  11
ENDBRANCH   1  10
TORSDOF 2
ENDMDL
MODEL 8
REMARK VINA RESULT:    -4.651     17.473     17.897
REMARK INTER + INTRA:          -5.371
REMARK INTER:                  -5.255
REMARK INTRA:                  -0.116
REMARK UNBOUND:                -0.177
REMARK  Name = 1550473
REMARK  2 active torsions:
REMARK  status: ('A' for Active; 'I' for Inactive)
REMARK    1  A    between atoms: N_1  and  C_4
REMARK    2  A    between atoms: C_4  and  C_5
REMARK                            x       y       z     vdW  Elec       q    Type
REMARK                         _______ _______ _______ _____ _____    ______ ____
ROOT
ATOM      1  N   UNL     1       9.282 -11.937  -6.473  0.00  0.00    -0.354 N 
ATOM      2  N   UNL     1       8.319 -13.241  -8.128  0.00  0.00    -0.372 N 
ATOM      3  N   UNL     1      10.246 -13.972  -7.119  0.00  0.00    -0.372 N 
ATOM      4  C   UNL     1       9.291 -13.043  -7.229  0.00  0.00    +0.166 C 
ATOM      5  H   UNL     1       8.546 -11.256  -6.625  0.00  0.00    +0.163 HD
ATOM      6  H   UNL     1       8.298 -14.067  -8.709  0.00  0.00    +0.159 HD
ATOM      7  H   UNL     1       7.560 -12.581  -8.246  0.00  0.00    +0.159 HD
ATOM      8  H   UNL     1      11.011 -13.880  -6.464  0.00  0.00    +0.159 HD
ATOM      9  H   UNL     1      10.249 -14.801  -7.701  0.00  0.00    +0.159 HD
ENDROOT
BRANCH   1  10
ATOM     10  C   UNL     1      10.263 -11.652  -5.428  0.00  0.00    +0.151 C 
BRANCH  10  11
ATOM     11  C   UNL     1       9.917 -10.344  -4.772  0.00  0.00    -0.028 A 
ATOM     12  C   UNL     1      10.260 -10.106  -3.433  0.00  0.00    +0.005 A 
ATOM     13  C   UNL     1       9.252  -9.335  -5.486  0.00  0.00    +0.005 A 
ATOM     14  C   UNL     1       9.965  -8.880  -2.832  0.00  0.00    +0.000 A 
ATOM     15  C   UNL     1       8.959  -8.113  -4.882  0.00  0.00    +0.000 A 
ATOM     16  C   UNL     1       9.318  -7.885  -3.556  0.00  0.00    +0.000 A 
ENDBRANCH  10  11
ENDBRANCH   1  10
TORSDOF 2
ENDMDL
MODEL 9
REMARK VINA RESULT:    -4.523      1.730      2.035
REMARK INTER + INTRA:          -5.228
REMARK INTER:                  -5.104
REMARK INTRA:                  -0.124
REMARK UNBOUND:                -0.177
REMARK  Name = 1550473
REMARK  2 active torsions:
REMARK  status: ('A' for Active; 'I' for Inactive)
REMARK    1  A    between atoms: N_1  and  C_4
REMARK    2  A    between atoms: C_4  and  C_5
REMARK                            x       y       z     vdW  Elec       q    Type
REMARK                         _______ _______ _______ _____ _____    ______ ____
ROOT
ATOM      1  N   UNL     1      -6.599 -15.571   4.493  0.00  0.00    -0.354 N 
ATOM      2  N   UNL     1      -8.785 -16.293   4.242  0.00  0.00    -0.372 N 
ATOM      3  N   UNL     1      -7.240 -16.857   2.642  0.00  0.00    -0.372 N 
ATOM      4  C   UNL     1      -7.526 -16.236   3.792  0.00  0.00    +0.166 C 
ATOM      5  H   UNL     1      -6.886 -15.096   5.341  0.00  0.00    +0.163 HD
ATOM      6  H   UNL     1      -9.506 -16.790   3.736  0.00  0.00    +0.159 HD
ATOM      7  H   UNL     1      -9.059 -15.856   5.114  0.00  0.00    +0.159 HD
ATOM      8  H   UNL     1      -6.311 -16.847   2.245  0.00  0.00    +0.159 HD
ATOM      9  H   UNL     1      -7.950 -17.350   2.115  0.00  0.00    +0.159 HD
ENDROOT
BRANCH   1  10
ATOM     10  C   UNL     1      -5.188 -15.494   4.118  0.00  0.00    +0.151 C 
BRANCH  10  11
ATOM     11  C   UNL     1      -4.466 -14.613   5.099  0.00  0.00    -0.028 A 
ATOM     12  C   UNL     1      -5.179 -13.898   6.072  0.00  0.00    +0.005 A 
ATOM     13  C   UNL     1      -3.068 -14.493   5.064  0.00  0.00    +0.005 A 
ATOM     14  C   UNL     1      -4.506 -13.102   7.003  0.00  0.00    +0.000 A 
ATOM     15  C   UNL     1      -2.400 -13.696   5.994  0.00  0.00    +0.000 A 
ATOM     16  C   UNL     1      -3.119 -13.003   6.965  0.00  0.00    +0.000 A 
ENDBRANCH  10  11
ENDBRANCH   1  10
TORSDOF 2
ENDMDL
