MODEL 1
REMARK VINA RESULT:    -6.201      0.000      0.000
REMARK INTER + INTRA:          -7.038
REMARK INTER:                  -6.926
REMARK INTRA:                  -0.112
REMARK UNBOUND:                -0.112
REMARK  Name = 1550473
REMARK  2 active torsions:
REMARK  status: ('A' for Active; 'I' for Inactive)
REMARK    1  A    between atoms: N_1  and  C_4
REMARK    2  A    between atoms: C_4  and  C_5
REMARK                            x       y       z     vdW  Elec       q    Type
REMARK                         _______ _______ _______ _____ _____    ______ ____
ROOT
ATOM      1  N   UNL     1     -14.156   2.170  -6.536  0.00  0.00    -0.354 N 
ATOM      2  N   UNL     1     -12.336   2.733  -7.853  0.00  0.00    -0.372 N 
ATOM      3  N   UNL     1     -13.490   4.403  -6.784  0.00  0.00    -0.372 N 
ATOM      4  C   UNL     1     -13.340   3.101  -7.048  0.00  0.00    +0.166 C 
ATOM      5  H   UNL     1     -14.008   1.203  -6.799  0.00  0.00    +0.163 HD
ATOM      6  H   UNL     1     -11.702   3.412  -8.251  0.00  0.00    +0.159 HD
ATOM      7  H   UNL     1     -12.162   1.761  -8.077  0.00  0.00    +0.159 HD
ATOM      8  H   UNL     1     -14.232   4.747  -6.189  0.00  0.00    +0.159 HD
ATOM      9  H   UNL     1     -12.873   5.100  -7.183  0.00  0.00    +0.159 HD
ENDROOT
BRANCH   1  10
ATOM     10  C   UNL     1     -15.247   2.461  -5.607  0.00  0.00    +0.151 C 
BRANCH  10  11
ATOM     11  C   UNL     1     -15.769   1.169  -5.042  0.00  0.00    -0.028 A 
ATOM     12  C   UNL     1     -15.857   0.024  -5.848  0.00  0.00    +0.005 A 
ATOM     13  C   UNL     1     -16.173   1.081  -3.701  0.00  0.00    +0.005 A 
ATOM     14  C   UNL     1     -16.314  -1.184  -5.317  0.00  0.00    +0.000 A 
ATOM     15  C   UNL     1     -16.629  -0.127  -3.175  0.00  0.00    +0.000 A 
ATOM     16  C   UNL     1     -16.697  -1.260  -3.982  0.00  0.00    +0.000 A 
ENDBRANCH  10  11
ENDBRANCH   1  10
TORSDOF 2
ENDMDL
MODEL 2
REMARK VINA RESULT:    -5.261      1.592      2.235
REMARK INTER + INTRA:          -5.988
REMARK INTER:                  -5.895
REMARK INTRA:                  -0.093
REMARK UNBOUND:                -0.112
REMARK  Name = 1550473
REMARK  2 active torsions:
REMARK  status: ('A' for Active; 'I' for Inactive)
REMARK    1  A    between atoms: N_1  and  C_4
REMARK    2  A    between atoms: C_4  and  C_5
REMARK                            x       y       z     vdW  Elec       q    Type
REMARK                         _______ _______ _______ _____ _____    ______ ____
ROOT
ATOM      1  N   UNL     1     -14.246   3.151  -6.205  0.00  0.00    -0.354 N 
ATOM      2  N   UNL     1     -12.783   4.724  -7.070  0.00  0.00    -0.372 N 
ATOM      3  N   UNL     1     -12.655   2.560  -7.821  0.00  0.00    -0.372 N 
ATOM      4  C   UNL     1     -13.237   3.466  -7.027  0.00  0.00    +0.166 C 
ATOM      5  H   UNL     1     -14.624   3.877  -5.607  0.00  0.00    +0.163 HD
ATOM      6  H   UNL     1     -12.026   4.993  -7.683  0.00  0.00    +0.159 HD
ATOM      7  H   UNL     1     -13.193   5.458  -6.505  0.00  0.00    +0.159 HD
ATOM      8  H   UNL     1     -12.947   1.592  -7.832  0.00  0.00    +0.159 HD
ATOM      9  H   UNL     1     -11.888   2.807  -8.433  0.00  0.00    +0.159 HD
ENDROOT
BRANCH   1  10
ATOM     10  C   UNL     1     -14.849   1.822  -6.122  0.00  0.00    +0.151 C 
BRANCH  10  11
ATOM     11  C   UNL     1     -16.092   1.898  -5.279  0.00  0.00    -0.028 A 
ATOM     12  C   UNL     1     -17.294   2.375  -5.824  0.00  0.00    +0.005 A 
ATOM     13  C   UNL     1     -16.077   1.491  -3.936  0.00  0.00    +0.005 A 
ATOM     14  C   UNL     1     -18.456   2.418  -5.050  0.00  0.00    +0.000 A 
ATOM     15  C   UNL     1     -17.239   1.536  -3.167  0.00  0.00    +0.000 A 
ATOM     16  C   UNL     1     -18.429   1.997  -3.725  0.00  0.00    +0.000 A 
ENDBRANCH  10  11
ENDBRANCH   1  10
TORSDOF 2
ENDMDL
MODEL 3
REMARK VINA RESULT:    -4.823     18.538     19.793
REMARK INTER + INTRA:          -5.499
REMARK INTER:                  -5.375
REMARK INTRA:                  -0.124
REMARK UNBOUND:                -0.112
REMARK  Name = 1550473
REMARK  2 active torsions:
REMARK  status: ('A' for Active; 'I' for Inactive)
REMARK    1  A    between atoms: N_1  and  C_4
REMARK    2  A    between atoms: C_4  and  C_5
REMARK                            x       y       z     vdW  Elec       q    Type
REMARK                         _______ _______ _______ _____ _____    ______ ____
ROOT
ATOM      1  N   UNL     1     -12.490  -7.483 -23.800  0.00  0.00    -0.354 N 
ATOM      2  N   UNL     1     -11.098  -9.041 -24.800  0.00  0.00    -0.372 N 
ATOM      3  N   UNL     1     -13.303  -9.579 -24.459  0.00  0.00    -0.372 N 
ATOM      4  C   UNL     1     -12.308  -8.692 -24.346  0.00  0.00    +0.166 C 
ATOM      5  H   UNL     1     -11.689  -6.867 -23.716  0.00  0.00    +0.163 HD
ATOM      6  H   UNL     1     -10.932  -9.945 -25.220  0.00  0.00    +0.159 HD
ATOM      7  H   UNL     1     -10.310  -8.406 -24.756  0.00  0.00    +0.159 HD
ATOM      8  H   UNL     1     -14.238  -9.380 -24.131  0.00  0.00    +0.159 HD
ATOM      9  H   UNL     1     -13.153 -10.494 -24.866  0.00  0.00    +0.159 HD
ENDROOT
BRANCH   1  10
ATOM     10  C   UNL     1     -13.780  -6.985 -23.324  0.00  0.00    +0.151 C 
BRANCH  10  11
ATOM     11  C   UNL     1     -13.634  -5.541 -22.930  0.00  0.00    -0.028 A 
ATOM     12  C   UNL     1     -12.379  -4.917 -22.964  0.00  0.00    +0.005 A 
ATOM     13  C   UNL     1     -14.749  -4.790 -22.528  0.00  0.00    +0.005 A 
ATOM     14  C   UNL     1     -12.248  -3.567 -22.627  0.00  0.00    +0.000 A 
ATOM     15  C   UNL     1     -14.614  -3.443 -22.191  0.00  0.00    +0.000 A 
ATOM     16  C   UNL     1     -13.364  -2.832 -22.244  0.00  0.00    +0.000 A 
ENDBRANCH  10  11
ENDBRANCH   1  10
TORSDOF 2
ENDMDL
MODEL 4
REMARK VINA RESULT:    -4.612     24.588     26.428
REMARK INTER + INTRA:          -5.264
REMARK INTER:                  -5.136
REMARK INTRA:                  -0.128
REMARK UNBOUND:                -0.112
REMARK  Name = 1550473
REMARK  2 active torsions:
REMARK  status: ('A' for Active; 'I' for Inactive)
REMARK    1  A    between atoms: N_1  and  C_4
REMARK    2  A    between atoms: C_4  and  C_5
REMARK                            x       y       z     vdW  Elec       q    Type
REMARK                         _______ _______ _______ _____ _____    ______ ____
ROOT
ATOM      1  N   UNL     1       2.213  -2.802 -27.091  0.00  0.00    -0.354 N 
ATOM      2  N   UNL     1       2.947  -3.718 -29.088  0.00  0.00    -0.372 N 
ATOM      3  N   UNL     1       4.119  -4.163 -27.166  0.00  0.00    -0.372 N 
ATOM      4  C   UNL     1       3.090  -3.556 -27.767  0.00  0.00    +0.166 C 
ATOM      5  H   UNL     1       1.472  -2.344 -27.610  0.00  0.00    +0.163 HD
ATOM      6  H   UNL     1       3.591  -4.284 -29.624  0.00  0.00    +0.159 HD
ATOM      7  H   UNL     1       2.179  -3.296 -29.596  0.00  0.00    +0.159 HD
ATOM      8  H   UNL     1       4.287  -4.075 -26.173  0.00  0.00    +0.159 HD
ATOM      9  H   UNL     1       4.782  -4.724 -27.687  0.00  0.00    +0.159 HD
ENDROOT
BRANCH   1  10
ATOM     10  C   UNL     1       2.249  -2.605 -25.643  0.00  0.00    +0.151 C 
BRANCH  10  11
ATOM     11  C   UNL     1       0.846  -2.404 -25.140  0.00  0.00    -0.028 A 
ATOM     12  C   UNL     1      -0.231  -3.062 -25.752  0.00  0.00    +0.005 A 
ATOM     13  C   UNL     1       0.588  -1.563 -24.047  0.00  0.00    +0.005 A 
ATOM     14  C   UNL     1      -1.531  -2.899 -25.266  0.00  0.00    +0.000 A 
ATOM     15  C   UNL     1      -0.712  -1.402 -23.565  0.00  0.00    +0.000 A 
ATOM     16  C   UNL     1      -1.770  -2.073 -24.174  0.00  0.00    +0.000 A 
ENDBRANCH  10  11
ENDBRANCH   1  10
TORSDOF 2
ENDMDL
MODEL 5
REMARK VINA RESULT:    -4.599     17.214     18.291
REMARK INTER + INTRA:          -5.248
REMARK INTER:                  -5.111
REMARK INTRA:                  -0.137
REMARK UNBOUND:                -0.112
REMARK  Name = 1550473
REMARK  2 active torsions:
REMARK  status: ('A' for Active; 'I' for Inactive)
REMARK    1  A    between atoms: N_1  and  C_4
REMARK    2  A    between atoms: C_4  and  C_5
REMARK                            x       y       z     vdW  Elec       q    Type
REMARK                         _______ _______ _______ _____ _____    ______ ____
ROOT
ATOM      1  N   UNL     1     -13.475  -3.008 -21.797  0.00  0.00    -0.354 N 
ATOM      2  N   UNL     1     -11.918  -2.147 -20.313  0.00  0.00    -0.372 N 
ATOM      3  N   UNL     1     -11.584  -1.856 -22.565  0.00  0.00    -0.372 N 
ATOM      4  C   UNL     1     -12.334  -2.342 -21.570  0.00  0.00    +0.166 C 
ATOM      5  H   UNL     1     -13.982  -3.377 -21.001  0.00  0.00    +0.163 HD
ATOM      6  H   UNL     1     -11.063  -1.645 -20.112  0.00  0.00    +0.159 HD
ATOM      7  H   UNL     1     -12.451  -2.477 -19.518  0.00  0.00    +0.159 HD
ATOM      8  H   UNL     1     -11.840  -1.974 -23.536  0.00  0.00    +0.159 HD
ATOM      9  H   UNL     1     -10.719  -1.361 -22.384  0.00  0.00    +0.159 HD
ENDROOT
BRANCH   1  10
ATOM     10  C   UNL     1     -14.044  -3.227 -23.125  0.00  0.00    +0.151 C 
BRANCH  10  11
ATOM     11  C   UNL     1     -14.491  -4.658 -23.238  0.00  0.00    -0.028 A 
ATOM     12  C   UNL     1     -15.722  -4.975 -23.829  0.00  0.00    +0.005 A 
ATOM     13  C   UNL     1     -13.684  -5.703 -22.760  0.00  0.00    +0.005 A 
ATOM     14  C   UNL     1     -16.124  -6.307 -23.961  0.00  0.00    +0.000 A 
ATOM     15  C   UNL     1     -14.090  -7.031 -22.893  0.00  0.00    +0.000 A 
ATOM     16  C   UNL     1     -15.309  -7.333 -23.495  0.00  0.00    +0.000 A 
ENDBRANCH  10  11
ENDBRANCH   1  10
TORSDOF 2
ENDMDL
MODEL 6
REMARK VINA RESULT:    -4.584     22.111     23.339
REMARK INTER + INTRA:          -5.232
REMARK INTER:                  -5.105
REMARK INTRA:                  -0.127
REMARK UNBOUND:                -0.112
REMARK  Name = 1550473
REMARK  2 active torsions:
REMARK  status: ('A' for Active; 'I' for Inactive)
REMARK    1  A    between atoms: N_1  and  C_4
REMARK    2  A    between atoms: C_4  and  C_5
REMARK                            x       y       z     vdW  Elec       q    Type
REMARK                         _______ _______ _______ _____ _____    ______ ____
ROOT
ATOM      1  N   UNL     1       6.988   2.182   1.376  0.00  0.00    -0.354 N 
ATOM      2  N   UNL     1       8.489   0.774   0.314  0.00  0.00    -0.372 N 
ATOM      3  N   UNL     1       6.457   1.176  -0.673  0.00  0.00    -0.372 N 
ATOM      4  C   UNL     1       7.299   1.386   0.344  0.00  0.00    +0.166 C 
ATOM      5  H   UNL     1       7.658   2.276   2.130  0.00  0.00    +0.163 HD
ATOM      6  H   UNL     1       8.753   0.170  -0.453  0.00  0.00    +0.159 HD
ATOM      7  H   UNL     1       9.175   0.906   1.047  0.00  0.00    +0.159 HD
ATOM      8  H   UNL     1       5.541   1.604  -0.707  0.00  0.00    +0.159 HD
ATOM      9  H   UNL     1       6.698   0.566  -1.444  0.00  0.00    +0.159 HD
ENDROOT
BRANCH   1  10
ATOM     10  C   UNL     1       5.741   2.938   1.478  0.00  0.00    +0.151 C 
BRANCH  10  11
ATOM     11  C   UNL     1       5.937   4.082   2.434  0.00  0.00    -0.028 A 
ATOM     12  C   UNL     1       7.227   4.476   2.818  0.00  0.00    +0.005 A 
ATOM     13  C   UNL     1       4.837   4.781   2.954  0.00  0.00    +0.005 A 
ATOM     14  C   UNL     1       7.411   5.558   3.682  0.00  0.00    +0.000 A 
ATOM     15  C   UNL     1       5.025   5.860   3.818  0.00  0.00    +0.000 A 
ATOM     16  C   UNL     1       6.312   6.250   4.179  0.00  0.00    +0.000 A 
ENDBRANCH  10  11
ENDBRANCH   1  10
TORSDOF 2
ENDMDL
MODEL 7
REMARK VINA RESULT:    -4.577     20.278     21.363
REMARK INTER + INTRA:          -5.224
REMARK INTER:                  -5.115
REMARK INTRA:                  -0.109
REMARK UNBOUND:                -0.112
REMARK  Name = 1550473
REMARK  2 active torsions:
REMARK  status: ('A' for Active; 'I' for Inactive)
REMARK    1  A    between atoms: N_1  and  C_4
REMARK    2  A    between atoms: C_4  and  C_5
REMARK                            x       y       z     vdW  Elec       q    Type
REMARK                         _______ _______ _______ _____ _____    ______ ____
ROOT
ATOM      1  N   UNL     1     -12.259  -6.629 -23.106  0.00  0.00    -0.354 N 
ATOM      2  N   UNL     1     -11.166  -4.830 -22.141  0.00  0.00    -0.372 N 
ATOM      3  N   UNL     1     -13.422  -4.678 -22.530  0.00  0.00    -0.372 N 
ATOM      4  C   UNL     1     -12.292  -5.390 -22.599  0.00  0.00    +0.166 C 
ATOM      5  H   UNL     1     -11.366  -7.105 -23.158  0.00  0.00    +0.163 HD
ATOM      6  H   UNL     1     -11.160  -3.898 -21.750  0.00  0.00    +0.159 HD
ATOM      7  H   UNL     1     -10.282  -5.325 -22.152  0.00  0.00    +0.159 HD
ATOM      8  H   UNL     1     -14.305  -5.041 -22.864  0.00  0.00    +0.159 HD
ATOM      9  H   UNL     1     -13.435  -3.739 -22.152  0.00  0.00    +0.159 HD
ENDROOT
BRANCH   1  10
ATOM     10  C   UNL     1     -13.439  -7.350 -23.582  0.00  0.00    +0.151 C 
BRANCH  10  11
ATOM     11  C   UNL     1     -13.094  -8.071 -24.855  0.00  0.00    -0.028 A 
ATOM     12  C   UNL     1     -12.181  -9.136 -24.845  0.00  0.00    +0.005 A 
ATOM     13  C   UNL     1     -13.681  -7.698 -26.074  0.00  0.00    +0.005 A 
ATOM     14  C   UNL     1     -11.883  -9.826 -26.023  0.00  0.00    +0.000 A 
ATOM     15  C   UNL     1     -13.380  -8.389 -27.248  0.00  0.00    +0.000 A 
ATOM     16  C   UNL     1     -12.483  -9.454 -27.221  0.00  0.00    +0.000 A 
ENDBRANCH  10  11
ENDBRANCH   1  10
TORSDOF 2
ENDMDL
MODEL 8
REMARK VINA RESULT:    -4.557      3.405      4.247
REMARK INTER + INTRA:          -5.202
REMARK INTER:                  -5.079
REMARK INTRA:                  -0.122
REMARK UNBOUND:                -0.112
REMARK  Name = 1550473
REMARK  2 active torsions:
REMARK  status: ('A' for Active; 'I' for Inactive)
REMARK    1  A    between atoms: N_1  and  C_4
REMARK    2  A    between atoms: C_4  and  C_5
REMARK                            x       y       z     vdW  Elec       q    Type
REMARK                         _______ _______ _______ _____ _____    ______ ____
ROOT
ATOM      1  N   UNL     1     -18.170   3.323  -4.269  0.00  0.00    -0.354 N 
ATOM      2  N   UNL     1     -19.603   4.703  -3.084  0.00  0.00    -0.372 N 
ATOM      3  N   UNL     1     -18.053   5.653  -4.484  0.00  0.00    -0.372 N 
ATOM      4  C   UNL     1     -18.598   4.553  -3.955  0.00  0.00    +0.166 C 
ATOM      5  H   UNL     1     -18.605   2.530  -3.811  0.00  0.00    +0.163 HD
ATOM      6  H   UNL     1     -19.950   5.618  -2.830  0.00  0.00    +0.159 HD
ATOM      7  H   UNL     1     -20.066   3.907  -2.662  0.00  0.00    +0.159 HD
ATOM      8  H   UNL     1     -17.287   5.608  -5.143  0.00  0.00    +0.159 HD
ATOM      9  H   UNL     1     -18.379   6.579  -4.233  0.00  0.00    +0.159 HD
ENDROOT
BRANCH   1  10
ATOM     10  C   UNL     1     -17.118   3.048  -5.246  0.00  0.00    +0.151 C 
BRANCH  10  11
ATOM     11  C   UNL     1     -16.850   1.568  -5.277  0.00  0.00    -0.028 A 
ATOM     12  C   UNL     1     -17.713   0.675  -4.625  0.00  0.00    +0.005 A 
ATOM     13  C   UNL     1     -15.739   1.053  -5.960  0.00  0.00    +0.005 A 
ATOM     14  C   UNL     1     -17.482  -0.702  -4.678  0.00  0.00    +0.000 A 
ATOM     15  C   UNL     1     -15.510  -0.322  -6.010  0.00  0.00    +0.000 A 
ATOM     16  C   UNL     1     -16.383  -1.199  -5.371  0.00  0.00    +0.000 A 
ENDBRANCH  10  11
ENDBRANCH   1  10
TORSDOF 2
ENDMDL
MODEL 9
REMARK VINA RESULT:    -4.473     23.512     25.826
REMARK INTER + INTRA:          -5.108
REMARK INTER:                  -4.935
REMARK INTRA:                  -0.174
REMARK UNBOUND:                -0.112
REMARK  Name = 1550473
REMARK  2 active torsions:
REMARK  status: ('A' for Active; 'I' for Inactive)
REMARK    1  A    between atoms: N_1  and  C_4
REMARK    2  A    between atoms: C_4  and  C_5
REMARK                            x       y       z     vdW  Elec       q    Type
REMARK                         _______ _______ _______ _____ _____    ______ ____
ROOT
ATOM      1  N   UNL     1       0.010  -0.655 -24.339  0.00  0.00    -0.354 N 
ATOM      2  N   UNL     1      -2.082   0.137 -24.939  0.00  0.00    -0.372 N 
ATOM      3  N   UNL     1      -1.915  -1.942 -23.982  0.00  0.00    -0.372 N 
ATOM      4  C   UNL     1      -1.316  -0.828 -24.415  0.00  0.00    +0.166 C 
ATOM      5  H   UNL     1       0.407   0.200 -24.713  0.00  0.00    +0.163 HD
ATOM      6  H   UNL     1      -3.086   0.036 -25.006  0.00  0.00    +0.159 HD
ATOM      7  H   UNL     1      -1.688   1.009 -25.270  0.00  0.00    +0.159 HD
ATOM      8  H   UNL     1      -1.393  -2.710 -23.581  0.00  0.00    +0.159 HD
ATOM      9  H   UNL     1      -2.917  -2.066 -24.051  0.00  0.00    +0.159 HD
ENDROOT
BRANCH   1  10
ATOM     10  C   UNL     1       0.928  -1.621 -23.737  0.00  0.00    +0.151 C 
BRANCH  10  11
ATOM     11  C   UNL     1       1.618  -2.389 -24.830  0.00  0.00    -0.028 A 
ATOM     12  C   UNL     1       2.290  -1.715 -25.860  0.00  0.00    +0.005 A 
ATOM     13  C   UNL     1       1.609  -3.793 -24.839  0.00  0.00    +0.005 A 
ATOM     14  C   UNL     1       2.957  -2.428 -26.859  0.00  0.00    +0.000 A 
ATOM     15  C   UNL     1       2.275  -4.501 -25.838  0.00  0.00    +0.000 A 
ATOM     16  C   UNL     1       2.951  -3.819 -26.847  0.00  0.00    +0.000 A 
ENDBRANCH  10  11
ENDBRANCH   1  10
TORSDOF 2
ENDMDL
