MODEL 1
REMARK VINA RESULT:    -5.989      0.000      0.000
REMARK INTER + INTRA:          -6.839
REMARK INTER:                  -6.689
REMARK INTRA:                  -0.150
REMARK UNBOUND:                -0.150
REMARK  Name = 1550473
REMARK  2 active torsions:
REMARK  status: ('A' for Active; 'I' for Inactive)
REMARK    1  A    between atoms: N_1  and  C_4
REMARK    2  A    between atoms: C_4  and  C_5
REMARK                            x       y       z     vdW  Elec       q    Type
REMARK                         _______ _______ _______ _____ _____    ______ ____
ROOT
ATOM      1  N   UNL     1       2.190   5.327  -3.170  0.00  0.00    -0.354 N 
ATOM      2  N   UNL     1       2.069   3.159  -3.975  0.00  0.00    -0.372 N 
ATOM      3  N   UNL     1       2.495   4.866  -5.448  0.00  0.00    -0.372 N 
ATOM      4  C   UNL     1       2.252   4.467  -4.195  0.00  0.00    +0.166 C 
ATOM      5  H   UNL     1       1.973   4.965  -2.249  0.00  0.00    +0.163 HD
ATOM      6  H   UNL     1       2.113   2.485  -4.728  0.00  0.00    +0.159 HD
ATOM      7  H   UNL     1       1.897   2.794  -3.046  0.00  0.00    +0.159 HD
ATOM      8  H   UNL     1       2.636   5.840  -5.681  0.00  0.00    +0.159 HD
ATOM      9  H   UNL     1       2.531   4.209  -6.216  0.00  0.00    +0.159 HD
ENDROOT
BRANCH   1  10
ATOM     10  C   UNL     1       2.429   6.764  -3.294  0.00  0.00    +0.151 C 
BRANCH  10  11
ATOM     11  C   UNL     1       3.749   7.100  -2.656  0.00  0.00    -0.028 A 
ATOM     12  C   UNL     1       4.310   6.250  -1.692  0.00  0.00    +0.005 A 
ATOM     13  C   UNL     1       4.446   8.264  -3.016  0.00  0.00    +0.005 A 
ATOM     14  C   UNL     1       5.550   6.546  -1.121  0.00  0.00    +0.000 A 
ATOM     15  C   UNL     1       5.683   8.556  -2.442  0.00  0.00    +0.000 A 
ATOM     16  C   UNL     1       6.236   7.696  -1.497  0.00  0.00    +0.000 A 
ENDBRANCH  10  11
ENDBRANCH   1  10
TORSDOF 2
ENDMDL
MODEL 2
REMARK VINA RESULT:    -5.896      1.689      2.468
REMARK INTER + INTRA:          -6.735
REMARK INTER:                  -6.561
REMARK INTRA:                  -0.174
REMARK UNBOUND:                -0.150
REMARK  Name = 1550473
REMARK  2 active torsions:
REMARK  status: ('A' for Active; 'I' for Inactive)
REMARK    1  A    between atoms: N_1  and  C_4
REMARK    2  A    between atoms: C_4  and  C_5
REMARK                            x       y       z     vdW  Elec       q    Type
REMARK                         _______ _______ _______ _____ _____    ______ ____
ROOT
ATOM      1  N   UNL     1       3.778   3.211  -4.577  0.00  0.00    -0.354 N 
ATOM      2  N   UNL     1       3.136   1.029  -4.140  0.00  0.00    -0.372 N 
ATOM      3  N   UNL     1       1.628   2.720  -3.783  0.00  0.00    -0.372 N 
ATOM      4  C   UNL     1       2.849   2.336  -4.169  0.00  0.00    +0.166 C 
ATOM      5  H   UNL     1       4.694   2.858  -4.827  0.00  0.00    +0.163 HD
ATOM      6  H   UNL     1       2.455   0.344  -3.840  0.00  0.00    +0.159 HD
ATOM      7  H   UNL     1       4.038   0.675  -4.434  0.00  0.00    +0.159 HD
ATOM      8  H   UNL     1       1.350   3.693  -3.776  0.00  0.00    +0.159 HD
ATOM      9  H   UNL     1       0.936   2.052  -3.469  0.00  0.00    +0.159 HD
ENDROOT
BRANCH   1  10
ATOM     10  C   UNL     1       3.549   4.650  -4.696  0.00  0.00    +0.151 C 
BRANCH  10  11
ATOM     11  C   UNL     1       4.087   5.336  -3.471  0.00  0.00    -0.028 A 
ATOM     12  C   UNL     1       3.284   6.224  -2.741  0.00  0.00    +0.005 A 
ATOM     13  C   UNL     1       5.399   5.098  -3.032  0.00  0.00    +0.005 A 
ATOM     14  C   UNL     1       3.774   6.839  -1.587  0.00  0.00    +0.000 A 
ATOM     15  C   UNL     1       5.885   5.715  -1.879  0.00  0.00    +0.000 A 
ATOM     16  C   UNL     1       5.071   6.583  -1.155  0.00  0.00    +0.000 A 
ENDBRANCH  10  11
ENDBRANCH   1  10
TORSDOF 2
ENDMDL
MODEL 3
REMARK VINA RESULT:    -5.888      1.653      2.452
REMARK INTER + INTRA:          -6.726
REMARK INTER:                  -6.583
REMARK INTRA:                  -0.143
REMARK UNBOUND:                -0.150
REMARK  Name = 1550473
REMARK  2 active torsions:
REMARK  status: ('A' for Active; 'I' for Inactive)
REMARK    1  A    between atoms: N_1  and  C_4
REMARK    2  A    between atoms: C_4  and  C_5
REMARK                            x       y       z     vdW  Elec       q    Type
REMARK                         _______ _______ _______ _____ _____    ______ ____
ROOT
ATOM      1  N   UNL     1       3.496   4.636  -3.122  0.00  0.00    -0.354 N 
ATOM      2  N   UNL     1       3.269   2.617  -4.234  0.00  0.00    -0.372 N 
ATOM      3  N   UNL     1       1.441   3.510  -3.173  0.00  0.00    -0.372 N 
ATOM      4  C   UNL     1       2.734   3.601  -3.501  0.00  0.00    +0.166 C 
ATOM      5  H   UNL     1       4.477   4.631  -3.377  0.00  0.00    +0.163 HD
ATOM      6  H   UNL     1       2.718   1.825  -4.537  0.00  0.00    +0.159 HD
ATOM      7  H   UNL     1       4.238   2.637  -4.526  0.00  0.00    +0.159 HD
ATOM      8  H   UNL     1       0.979   4.217  -2.616  0.00  0.00    +0.159 HD
ATOM      9  H   UNL     1       0.876   2.720  -3.457  0.00  0.00    +0.159 HD
ENDROOT
BRANCH   1  10
ATOM     10  C   UNL     1       2.998   5.785  -2.368  0.00  0.00    +0.151 C 
BRANCH  10  11
ATOM     11  C   UNL     1       3.369   7.048  -3.095  0.00  0.00    -0.028 A 
ATOM     12  C   UNL     1       4.058   8.074  -2.433  0.00  0.00    +0.005 A 
ATOM     13  C   UNL     1       3.039   7.222  -4.448  0.00  0.00    +0.005 A 
ATOM     14  C   UNL     1       4.430   9.235  -3.117  0.00  0.00    +0.000 A 
ATOM     15  C   UNL     1       3.411   8.382  -5.127  0.00  0.00    +0.000 A 
ATOM     16  C   UNL     1       4.108   9.387  -4.461  0.00  0.00    +0.000 A 
ENDBRANCH  10  11
ENDBRANCH   1  10
TORSDOF 2
ENDMDL
MODEL 4
REMARK VINA RESULT:    -5.887      2.325      3.553
REMARK INTER + INTRA:          -6.725
REMARK INTER:                  -6.585
REMARK INTRA:                  -0.141
REMARK UNBOUND:                -0.150
REMARK  Name = 1550473
REMARK  2 active torsions:
REMARK  status: ('A' for Active; 'I' for Inactive)
REMARK    1  A    between atoms: N_1  and  C_4
REMARK    2  A    between atoms: C_4  and  C_5
REMARK                            x       y       z     vdW  Elec       q    Type
REMARK                         _______ _______ _______ _____ _____    ______ ____
ROOT
ATOM      1  N   UNL     1       2.780   3.643  -1.888  0.00  0.00    -0.354 N 
ATOM      2  N   UNL     1       2.602   2.775   0.252  0.00  0.00    -0.372 N 
ATOM      3  N   UNL     1       0.738   2.822  -1.085  0.00  0.00    -0.372 N 
ATOM      4  C   UNL     1       2.038   3.086  -0.922  0.00  0.00    +0.166 C 
ATOM      5  H   UNL     1       3.754   3.846  -1.691  0.00  0.00    +0.163 HD
ATOM      6  H   UNL     1       2.068   2.351   0.999  0.00  0.00    +0.159 HD
ATOM      7  H   UNL     1       3.586   2.936   0.430  0.00  0.00    +0.159 HD
ATOM      8  H   UNL     1       0.251   3.038  -1.945  0.00  0.00    +0.159 HD
ATOM      9  H   UNL     1       0.184   2.408  -0.345  0.00  0.00    +0.159 HD
ENDROOT
BRANCH   1  10
ATOM     10  C   UNL     1       2.276   3.970  -3.220  0.00  0.00    +0.151 C 
BRANCH  10  11
ATOM     11  C   UNL     1       2.706   5.366  -3.580  0.00  0.00    -0.028 A 
ATOM     12  C   UNL     1       2.701   5.790  -4.916  0.00  0.00    +0.005 A 
ATOM     13  C   UNL     1       3.114   6.270  -2.587  0.00  0.00    +0.005 A 
ATOM     14  C   UNL     1       3.071   7.096  -5.247  0.00  0.00    +0.000 A 
ATOM     15  C   UNL     1       3.484   7.573  -2.922  0.00  0.00    +0.000 A 
ATOM     16  C   UNL     1       3.460   7.986  -4.252  0.00  0.00    +0.000 A 
ENDBRANCH  10  11
ENDBRANCH   1  10
TORSDOF 2
ENDMDL
MODEL 5
REMARK VINA RESULT:    -5.514      3.605      5.167
REMARK INTER + INTRA:          -6.309
REMARK INTER:                  -6.136
REMARK INTRA:                  -0.173
REMARK UNBOUND:                -0.150
REMARK  Name = 1550473
REMARK  2 active torsions:
REMARK  status: ('A' for Active; 'I' for Inactive)
REMARK    1  A    between atoms: N_1  and  C_4
REMARK    2  A    between atoms: C_4  and  C_5
REMARK                            x       y       z     vdW  Elec       q    Type
REMARK                         _______ _______ _______ _____ _____    ______ ____
ROOT
ATOM      1  N   UNL     1       4.137   4.284  -3.728  0.00  0.00    -0.354 N 
ATOM      2  N   UNL     1       6.088   4.305  -4.975  0.00  0.00    -0.372 N 
ATOM      3  N   UNL     1       4.205   3.356  -5.879  0.00  0.00    -0.372 N 
ATOM      4  C   UNL     1       4.796   3.980  -4.854  0.00  0.00    +0.166 C 
ATOM      5  H   UNL     1       4.650   4.730  -2.976  0.00  0.00    +0.163 HD
ATOM      6  H   UNL     1       6.610   4.092  -5.815  0.00  0.00    +0.159 HD
ATOM      7  H   UNL     1       6.586   4.793  -4.240  0.00  0.00    +0.159 HD
ATOM      8  H   UNL     1       3.233   3.078  -5.848  0.00  0.00    +0.159 HD
ATOM      9  H   UNL     1       4.713   3.124  -6.723  0.00  0.00    +0.159 HD
ENDROOT
BRANCH   1  10
ATOM     10  C   UNL     1       2.715   4.021  -3.516  0.00  0.00    +0.151 C 
BRANCH  10  11
ATOM     11  C   UNL     1       2.564   2.914  -2.509  0.00  0.00    -0.028 A 
ATOM     12  C   UNL     1       2.562   3.197  -1.135  0.00  0.00    +0.005 A 
ATOM     13  C   UNL     1       2.417   1.581  -2.923  0.00  0.00    +0.005 A 
ATOM     14  C   UNL     1       2.392   2.173  -0.201  0.00  0.00    +0.000 A 
ATOM     15  C   UNL     1       2.249   0.562  -1.987  0.00  0.00    +0.000 A 
ATOM     16  C   UNL     1       2.233   0.858  -0.626  0.00  0.00    +0.000 A 
ENDBRANCH  10  11
ENDBRANCH   1  10
TORSDOF 2
ENDMDL
MODEL 6
REMARK VINA RESULT:    -5.376      4.252      5.900
REMARK INTER + INTRA:          -6.154
REMARK INTER:                  -5.975
REMARK INTRA:                  -0.178
REMARK UNBOUND:                -0.150
REMARK  Name = 1550473
REMARK  2 active torsions:
REMARK  status: ('A' for Active; 'I' for Inactive)
REMARK    1  A    between atoms: N_1  and  C_4
REMARK    2  A    between atoms: C_4  and  C_5
REMARK                            x       y       z     vdW  Elec       q    Type
REMARK                         _______ _______ _______ _____ _____    ______ ____
ROOT
ATOM      1  N   UNL     1       2.658   1.842  -3.838  0.00  0.00    -0.354 N 
ATOM      2  N   UNL     1       4.137   3.263  -4.913  0.00  0.00    -0.372 N 
ATOM      3  N   UNL     1       2.249   4.146  -3.953  0.00  0.00    -0.372 N 
ATOM      4  C   UNL     1       3.003   3.076  -4.227  0.00  0.00    +0.166 C 
ATOM      5  H   UNL     1       3.257   1.068  -4.103  0.00  0.00    +0.163 HD
ATOM      6  H   UNL     1       4.425   4.183  -5.217  0.00  0.00    +0.159 HD
ATOM      7  H   UNL     1       4.757   2.494  -5.137  0.00  0.00    +0.159 HD
ATOM      8  H   UNL     1       1.379   4.072  -3.444  0.00  0.00    +0.159 HD
ATOM      9  H   UNL     1       2.515   5.074  -4.259  0.00  0.00    +0.159 HD
ENDROOT
BRANCH   1  10
ATOM     10  C   UNL     1       1.471   1.537  -3.040  0.00  0.00    +0.151 C 
BRANCH  10  11
ATOM     11  C   UNL     1       1.887   1.283  -1.618  0.00  0.00    -0.028 A 
ATOM     12  C   UNL     1       1.911   2.329  -0.684  0.00  0.00    +0.005 A 
ATOM     13  C   UNL     1       2.254  -0.005  -1.196  0.00  0.00    +0.005 A 
ATOM     14  C   UNL     1       2.269   2.087   0.644  0.00  0.00    +0.000 A 
ATOM     15  C   UNL     1       2.611  -0.242   0.132  0.00  0.00    +0.000 A 
ATOM     16  C   UNL     1       2.616   0.804   1.052  0.00  0.00    +0.000 A 
ENDBRANCH  10  11
ENDBRANCH   1  10
TORSDOF 2
ENDMDL
MODEL 7
REMARK VINA RESULT:    -5.339      4.752      6.346
REMARK INTER + INTRA:          -6.113
REMARK INTER:                  -5.946
REMARK INTRA:                  -0.167
REMARK UNBOUND:                -0.150
REMARK  Name = 1550473
REMARK  2 active torsions:
REMARK  status: ('A' for Active; 'I' for Inactive)
REMARK    1  A    between atoms: N_1  and  C_4
REMARK    2  A    between atoms: C_4  and  C_5
REMARK                            x       y       z     vdW  Elec       q    Type
REMARK                         _______ _______ _______ _____ _____    ______ ____
ROOT
ATOM      1  N   UNL     1       0.302   0.654  -0.115  0.00  0.00    -0.354 N 
ATOM      2  N   UNL     1      -1.392   1.200   1.366  0.00  0.00    -0.372 N 
ATOM      3  N   UNL     1       0.744   0.949   2.167  0.00  0.00    -0.372 N 
ATOM      4  C   UNL     1      -0.102   0.930   1.132  0.00  0.00    +0.166 C 
ATOM      5  H   UNL     1      -0.394   0.626  -0.852  0.00  0.00    +0.163 HD
ATOM      6  H   UNL     1      -1.726   1.416   2.296  0.00  0.00    +0.159 HD
ATOM      7  H   UNL     1      -2.077   1.217   0.621  0.00  0.00    +0.159 HD
ATOM      8  H   UNL     1       1.729   0.748   2.058  0.00  0.00    +0.159 HD
ATOM      9  H   UNL     1       0.427   1.151   3.107  0.00  0.00    +0.159 HD
ENDROOT
BRANCH   1  10
ATOM     10  C   UNL     1       1.693   0.399  -0.487  0.00  0.00    +0.151 C 
BRANCH  10  11
ATOM     11  C   UNL     1       2.190   1.535  -1.337  0.00  0.00    -0.028 A 
ATOM     12  C   UNL     1       2.256   1.404  -2.732  0.00  0.00    +0.005 A 
ATOM     13  C   UNL     1       2.591   2.747  -0.755  0.00  0.00    +0.005 A 
ATOM     14  C   UNL     1       2.689   2.469  -3.525  0.00  0.00    +0.000 A 
ATOM     15  C   UNL     1       3.024   3.808  -1.550  0.00  0.00    +0.000 A 
ATOM     16  C   UNL     1       3.071   3.670  -2.935  0.00  0.00    +0.000 A 
ENDBRANCH  10  11
ENDBRANCH   1  10
TORSDOF 2
ENDMDL
MODEL 8
REMARK VINA RESULT:    -5.309      3.949      6.320
REMARK INTER + INTRA:          -6.080
REMARK INTER:                  -5.945
REMARK INTRA:                  -0.135
REMARK UNBOUND:                -0.150
REMARK  Name = 1550473
REMARK  2 active torsions:
REMARK  status: ('A' for Active; 'I' for Inactive)
REMARK    1  A    between atoms: N_1  and  C_4
REMARK    2  A    between atoms: C_4  and  C_5
REMARK                            x       y       z     vdW  Elec       q    Type
REMARK                         _______ _______ _______ _____ _____    ______ ____
ROOT
ATOM      1  N   UNL     1       1.449   3.366  -2.732  0.00  0.00    -0.354 N 
ATOM      2  N   UNL     1       1.927   5.325  -3.871  0.00  0.00    -0.372 N 
ATOM      3  N   UNL     1       2.642   5.101  -1.702  0.00  0.00    -0.372 N 
ATOM      4  C   UNL     1       2.004   4.586  -2.759  0.00  0.00    +0.166 C 
ATOM      5  H   UNL     1       0.954   3.045  -3.556  0.00  0.00    +0.163 HD
ATOM      6  H   UNL     1       2.339   6.248  -3.922  0.00  0.00    +0.159 HD
ATOM      7  H   UNL     1       1.471   4.983  -4.708  0.00  0.00    +0.159 HD
ATOM      8  H   UNL     1       2.729   4.596  -0.831  0.00  0.00    +0.159 HD
ATOM      9  H   UNL     1       3.050   6.027  -1.730  0.00  0.00    +0.159 HD
ENDROOT
BRANCH   1  10
ATOM     10  C   UNL     1       1.523   2.459  -1.588  0.00  0.00    +0.151 C 
BRANCH  10  11
ATOM     11  C   UNL     1       2.178   1.176  -2.020  0.00  0.00    -0.028 A 
ATOM     12  C   UNL     1       2.661   1.029  -3.329  0.00  0.00    +0.005 A 
ATOM     13  C   UNL     1       2.324   0.106  -1.124  0.00  0.00    +0.005 A 
ATOM     14  C   UNL     1       3.297  -0.151  -3.722  0.00  0.00    +0.000 A 
ATOM     15  C   UNL     1       2.958  -1.071  -1.521  0.00  0.00    +0.000 A 
ATOM     16  C   UNL     1       3.447  -1.199  -2.819  0.00  0.00    +0.000 A 
ENDBRANCH  10  11
ENDBRANCH   1  10
TORSDOF 2
ENDMDL
MODEL 9
REMARK VINA RESULT:    -5.265      5.652      6.775
REMARK INTER + INTRA:          -6.030
REMARK INTER:                  -5.853
REMARK INTRA:                  -0.178
REMARK UNBOUND:                -0.150
REMARK  Name = 1550473
REMARK  2 active torsions:
REMARK  status: ('A' for Active; 'I' for Inactive)
REMARK    1  A    between atoms: N_1  and  C_4
REMARK    2  A    between atoms: C_4  and  C_5
REMARK                            x       y       z     vdW  Elec       q    Type
REMARK                         _______ _______ _______ _____ _____    ______ ____
ROOT
ATOM      1  N   UNL     1       0.609   0.312  -3.682  0.00  0.00    -0.354 N 
ATOM      2  N   UNL     1      -1.268  -0.940  -4.204  0.00  0.00    -0.372 N 
ATOM      3  N   UNL     1       0.773  -1.985  -4.117  0.00  0.00    -0.372 N 
ATOM      4  C   UNL     1       0.052  -0.865  -3.998  0.00  0.00    +0.166 C 
ATOM      5  H   UNL     1       0.012   1.130  -3.636  0.00  0.00    +0.163 HD
ATOM      6  H   UNL     1      -1.717  -1.815  -4.440  0.00  0.00    +0.159 HD
ATOM      7  H   UNL     1      -1.869  -0.130  -4.112  0.00  0.00    +0.159 HD
ATOM      8  H   UNL     1       1.775  -1.994  -3.981  0.00  0.00    +0.159 HD
ATOM      9  H   UNL     1       0.344  -2.868  -4.365  0.00  0.00    +0.159 HD
ENDROOT
BRANCH   1  10
ATOM     10  C   UNL     1       2.029   0.491  -3.385  0.00  0.00    +0.151 C 
BRANCH  10  11
ATOM     11  C   UNL     1       2.205   0.647  -1.900  0.00  0.00    -0.028 A 
ATOM     12  C   UNL     1       2.445  -0.473  -1.090  0.00  0.00    +0.005 A 
ATOM     13  C   UNL     1       2.138   1.912  -1.296  0.00  0.00    +0.005 A 
ATOM     14  C   UNL     1       2.638  -0.326   0.286  0.00  0.00    +0.000 A 
ATOM     15  C   UNL     1       2.331   2.055   0.078  0.00  0.00    +0.000 A 
ATOM     16  C   UNL     1       2.583   0.936   0.868  0.00  0.00    +0.000 A 
ENDBRANCH  10  11
ENDBRANCH   1  10
TORSDOF 2
ENDMDL
