MODEL 1
REMARK VINA RESULT:    -4.628      0.000      0.000
REMARK INTER + INTRA:          -5.350
REMARK INTER:                  -5.169
REMARK INTRA:                  -0.182
REMARK UNBOUND:                -0.182
REMARK  Name = 1550473
REMARK  2 active torsions:
REMARK  status: ('A' for Active; 'I' for Inactive)
REMARK    1  A    between atoms: N_1  and  C_4
REMARK    2  A    between atoms: C_4  and  C_5
REMARK                            x       y       z     vdW  Elec       q    Type
REMARK                         _______ _______ _______ _____ _____    ______ ____
ROOT
ATOM      1  N   UNL     1       3.106  -0.993   5.652  0.00  0.00    -0.354 N 
ATOM      2  N   UNL     1       4.775  -2.332   4.768  0.00  0.00    -0.372 N 
ATOM      3  N   UNL     1       4.627  -2.103   7.046  0.00  0.00    -0.372 N 
ATOM      4  C   UNL     1       4.159  -1.801   5.830  0.00  0.00    +0.166 C 
ATOM      5  H   UNL     1       2.819  -0.778   4.703  0.00  0.00    +0.163 HD
ATOM      6  H   UNL     1       5.571  -2.949   4.872  0.00  0.00    +0.159 HD
ATOM      7  H   UNL     1       4.458  -2.153   3.823  0.00  0.00    +0.159 HD
ATOM      8  H   UNL     1       4.210  -1.730   7.888  0.00  0.00    +0.159 HD
ATOM      9  H   UNL     1       5.429  -2.709   7.170  0.00  0.00    +0.159 HD
ENDROOT
BRANCH   1  10
ATOM     10  C   UNL     1       2.331  -0.405   6.743  0.00  0.00    +0.151 C 
BRANCH  10  11
ATOM     11  C   UNL     1       2.764   1.022   6.940  0.00  0.00    -0.028 A 
ATOM     12  C   UNL     1       3.453   1.403   8.100  0.00  0.00    +0.005 A 
ATOM     13  C   UNL     1       2.492   1.996   5.967  0.00  0.00    +0.005 A 
ATOM     14  C   UNL     1       3.881   2.722   8.270  0.00  0.00    +0.000 A 
ATOM     15  C   UNL     1       2.920   3.312   6.141  0.00  0.00    +0.000 A 
ATOM     16  C   UNL     1       3.617   3.674   7.291  0.00  0.00    +0.000 A 
ENDBRANCH  10  11
ENDBRANCH   1  10
TORSDOF 2
ENDMDL
MODEL 2
REMARK VINA RESULT:    -4.549      4.331      5.627
REMARK INTER + INTRA:          -5.262
REMARK INTER:                  -5.078
REMARK INTRA:                  -0.184
REMARK UNBOUND:                -0.182
REMARK  Name = 1550473
REMARK  2 active torsions:
REMARK  status: ('A' for Active; 'I' for Inactive)
REMARK    1  A    between atoms: N_1  and  C_4
REMARK    2  A    between atoms: C_4  and  C_5
REMARK                            x       y       z     vdW  Elec       q    Type
REMARK                         _______ _______ _______ _____ _____    ______ ____
ROOT
ATOM      1  N   UNL     1      -0.703   0.899   2.999  0.00  0.00    -0.354 N 
ATOM      2  N   UNL     1      -1.695   2.848   2.239  0.00  0.00    -0.372 N 
ATOM      3  N   UNL     1      -0.975   2.746   4.415  0.00  0.00    -0.372 N 
ATOM      4  C   UNL     1      -1.118   2.152   3.226  0.00  0.00    +0.166 C 
ATOM      5  H   UNL     1      -0.868   0.495   2.084  0.00  0.00    +0.163 HD
ATOM      6  H   UNL     1      -2.015   3.797   2.379  0.00  0.00    +0.159 HD
ATOM      7  H   UNL     1      -1.817   2.459   1.312  0.00  0.00    +0.159 HD
ATOM      8  H   UNL     1      -0.552   2.273   5.203  0.00  0.00    +0.159 HD
ATOM      9  H   UNL     1      -1.299   3.691   4.578  0.00  0.00    +0.159 HD
ENDROOT
BRANCH   1  10
ATOM     10  C   UNL     1      -0.013   0.074   3.990  0.00  0.00    +0.151 C 
BRANCH  10  11
ATOM     11  C   UNL     1       1.465   0.110   3.716  0.00  0.00    -0.028 A 
ATOM     12  C   UNL     1       2.331   0.804   4.574  0.00  0.00    +0.005 A 
ATOM     13  C   UNL     1       2.006  -0.552   2.604  0.00  0.00    +0.005 A 
ATOM     14  C   UNL     1       3.708   0.813   4.337  0.00  0.00    +0.000 A 
ATOM     15  C   UNL     1       3.381  -0.540   2.370  0.00  0.00    +0.000 A 
ATOM     16  C   UNL     1       4.232   0.140   3.238  0.00  0.00    +0.000 A 
ENDBRANCH  10  11
ENDBRANCH   1  10
TORSDOF 2
ENDMDL
MODEL 3
REMARK VINA RESULT:    -4.486     24.957     25.932
REMARK INTER + INTRA:          -5.192
REMARK INTER:                  -5.059
REMARK INTRA:                  -0.133
REMARK UNBOUND:                -0.182
REMARK  Name = 1550473
REMARK  2 active torsions:
REMARK  status: ('A' for Active; 'I' for Inactive)
REMARK    1  A    between atoms: N_1  and  C_4
REMARK    2  A    between atoms: C_4  and  C_5
REMARK                            x       y       z     vdW  Elec       q    Type
REMARK                         _______ _______ _______ _____ _____    ______ ____
ROOT
ATOM      1  N   UNL     1      11.216  -1.883 -18.452  0.00  0.00    -0.354 N 
ATOM      2  N   UNL     1      11.316  -3.862 -17.253  0.00  0.00    -0.372 N 
ATOM      3  N   UNL     1      12.514  -2.052 -16.508  0.00  0.00    -0.372 N 
ATOM      4  C   UNL     1      11.683  -2.584 -17.411  0.00  0.00    +0.166 C 
ATOM      5  H   UNL     1      10.614  -2.353 -19.118  0.00  0.00    +0.163 HD
ATOM      6  H   UNL     1      11.650  -4.415 -16.476  0.00  0.00    +0.159 HD
ATOM      7  H   UNL     1      10.678  -4.316 -17.895  0.00  0.00    +0.159 HD
ATOM      8  H   UNL     1      12.833  -1.095 -16.573  0.00  0.00    +0.159 HD
ATOM      9  H   UNL     1      12.867  -2.593 -15.729  0.00  0.00    +0.159 HD
ENDROOT
BRANCH   1  10
ATOM     10  C   UNL     1      11.512  -0.470 -18.685  0.00  0.00    +0.151 C 
BRANCH  10  11
ATOM     11  C   UNL     1      10.221   0.300 -18.738  0.00  0.00    -0.028 A 
ATOM     12  C   UNL     1      10.020   1.286 -19.714  0.00  0.00    +0.005 A 
ATOM     13  C   UNL     1       9.193   0.043 -17.817  0.00  0.00    +0.005 A 
ATOM     14  C   UNL     1       8.810   1.980 -19.782  0.00  0.00    +0.000 A 
ATOM     15  C   UNL     1       7.987   0.739 -17.888  0.00  0.00    +0.000 A 
ATOM     16  C   UNL     1       7.794   1.706 -18.872  0.00  0.00    +0.000 A 
ENDBRANCH  10  11
ENDBRANCH   1  10
TORSDOF 2
ENDMDL
MODEL 4
REMARK VINA RESULT:    -4.464     12.092     13.504
REMARK INTER + INTRA:          -5.167
REMARK INTER:                  -5.021
REMARK INTRA:                  -0.146
REMARK UNBOUND:                -0.182
REMARK  Name = 1550473
REMARK  2 active torsions:
REMARK  status: ('A' for Active; 'I' for Inactive)
REMARK    1  A    between atoms: N_1  and  C_4
REMARK    2  A    between atoms: C_4  and  C_5
REMARK                            x       y       z     vdW  Elec       q    Type
REMARK                         _______ _______ _______ _____ _____    ______ ____
ROOT
ATOM      1  N   UNL     1       4.302  13.717   5.705  0.00  0.00    -0.354 N 
ATOM      2  N   UNL     1       5.889  13.061   7.260  0.00  0.00    -0.372 N 
ATOM      3  N   UNL     1       4.751  11.449   6.088  0.00  0.00    -0.372 N 
ATOM      4  C   UNL     1       4.969  12.744   6.340  0.00  0.00    +0.166 C 
ATOM      5  H   UNL     1       4.492  14.678   5.964  0.00  0.00    +0.163 HD
ATOM      6  H   UNL     1       6.410  12.348   7.753  0.00  0.00    +0.159 HD
ATOM      7  H   UNL     1       6.109  14.023   7.483  0.00  0.00    +0.159 HD
ATOM      8  H   UNL     1       4.066  11.143   5.410  0.00  0.00    +0.159 HD
ATOM      9  H   UNL     1       5.255  10.721   6.579  0.00  0.00    +0.159 HD
ENDROOT
BRANCH   1  10
ATOM     10  C   UNL     1       3.320  13.480   4.649  0.00  0.00    +0.151 C 
BRANCH  10  11
ATOM     11  C   UNL     1       1.974  13.965   5.112  0.00  0.00    -0.028 A 
ATOM     12  C   UNL     1       0.837  13.156   4.970  0.00  0.00    +0.005 A 
ATOM     13  C   UNL     1       1.830  15.232   5.700  0.00  0.00    +0.005 A 
ATOM     14  C   UNL     1      -0.408  13.595   5.427  0.00  0.00    +0.000 A 
ATOM     15  C   UNL     1       0.585  15.666   6.154  0.00  0.00    +0.000 A 
ATOM     16  C   UNL     1      -0.533  14.846   6.020  0.00  0.00    +0.000 A 
ENDBRANCH  10  11
ENDBRANCH   1  10
TORSDOF 2
ENDMDL
MODEL 5
REMARK VINA RESULT:    -4.439      3.231      4.659
REMARK INTER + INTRA:          -5.140
REMARK INTER:                  -5.002
REMARK INTRA:                  -0.137
REMARK UNBOUND:                -0.182
REMARK  Name = 1550473
REMARK  2 active torsions:
REMARK  status: ('A' for Active; 'I' for Inactive)
REMARK    1  A    between atoms: N_1  and  C_4
REMARK    2  A    between atoms: C_4  and  C_5
REMARK                            x       y       z     vdW  Elec       q    Type
REMARK                         _______ _______ _______ _____ _____    ______ ____
ROOT
ATOM      1  N   UNL     1       2.639   2.593   6.332  0.00  0.00    -0.354 N 
ATOM      2  N   UNL     1       3.921   3.435   8.067  0.00  0.00    -0.372 N 
ATOM      3  N   UNL     1       2.332   1.847   8.533  0.00  0.00    -0.372 N 
ATOM      4  C   UNL     1       2.954   2.618   7.634  0.00  0.00    +0.166 C 
ATOM      5  H   UNL     1       3.127   3.224   5.707  0.00  0.00    +0.163 HD
ATOM      6  H   UNL     1       4.183   3.473   9.043  0.00  0.00    +0.159 HD
ATOM      7  H   UNL     1       4.439   4.032   7.433  0.00  0.00    +0.159 HD
ATOM      8  H   UNL     1       1.589   1.213   8.271  0.00  0.00    +0.159 HD
ATOM      9  H   UNL     1       2.572   1.879   9.516  0.00  0.00    +0.159 HD
ENDROOT
BRANCH   1  10
ATOM     10  C   UNL     1       1.638   1.701   5.750  0.00  0.00    +0.151 C 
BRANCH  10  11
ATOM     11  C   UNL     1       2.262   0.937   4.614  0.00  0.00    -0.028 A 
ATOM     12  C   UNL     1       3.646   0.997   4.392  0.00  0.00    +0.005 A 
ATOM     13  C   UNL     1       1.476   0.149   3.761  0.00  0.00    +0.005 A 
ATOM     14  C   UNL     1       4.230   0.264   3.356  0.00  0.00    +0.000 A 
ATOM     15  C   UNL     1       2.063  -0.580   2.727  0.00  0.00    +0.000 A 
ATOM     16  C   UNL     1       3.440  -0.524   2.526  0.00  0.00    +0.000 A 
ENDBRANCH  10  11
ENDBRANCH   1  10
TORSDOF 2
ENDMDL
MODEL 6
REMARK VINA RESULT:    -4.383     21.236     22.423
REMARK INTER + INTRA:          -5.077
REMARK INTER:                  -4.929
REMARK INTRA:                  -0.148
REMARK UNBOUND:                -0.182
REMARK  Name = 1550473
REMARK  2 active torsions:
REMARK  status: ('A' for Active; 'I' for Inactive)
REMARK    1  A    between atoms: N_1  and  C_4
REMARK    2  A    between atoms: C_4  and  C_5
REMARK                            x       y       z     vdW  Elec       q    Type
REMARK                         _______ _______ _______ _____ _____    ______ ____
ROOT
ATOM      1  N   UNL     1       2.154  -9.866 -14.617  0.00  0.00    -0.354 N 
ATOM      2  N   UNL     1       3.706  -9.452 -16.286  0.00  0.00    -0.372 N 
ATOM      3  N   UNL     1       3.121  -7.746 -14.868  0.00  0.00    -0.372 N 
ATOM      4  C   UNL     1       2.983  -9.021 -15.245  0.00  0.00    +0.166 C 
ATOM      5  H   UNL     1       2.073 -10.812 -14.971  0.00  0.00    +0.163 HD
ATOM      6  H   UNL     1       4.343  -8.839 -16.777  0.00  0.00    +0.159 HD
ATOM      7  H   UNL     1       3.657 -10.411 -16.608  0.00  0.00    +0.159 HD
ATOM      8  H   UNL     1       2.599  -7.357 -14.094  0.00  0.00    +0.159 HD
ATOM      9  H   UNL     1       3.744  -7.114 -15.354  0.00  0.00    +0.159 HD
ENDROOT
BRANCH   1  10
ATOM     10  C   UNL     1       1.363  -9.511 -13.441  0.00  0.00    +0.151 C 
BRANCH  10  11
ATOM     11  C   UNL     1       1.995 -10.123 -12.221  0.00  0.00    -0.028 A 
ATOM     12  C   UNL     1       1.430 -11.258 -11.620  0.00  0.00    +0.005 A 
ATOM     13  C   UNL     1       3.161  -9.577 -11.665  0.00  0.00    +0.005 A 
ATOM     14  C   UNL     1       2.034 -11.845 -10.505  0.00  0.00    +0.000 A 
ATOM     15  C   UNL     1       3.760 -10.165 -10.551  0.00  0.00    +0.000 A 
ATOM     16  C   UNL     1       3.198 -11.300  -9.973  0.00  0.00    +0.000 A 
ENDBRANCH  10  11
ENDBRANCH   1  10
TORSDOF 2
ENDMDL
MODEL 7
REMARK VINA RESULT:    -4.379      1.354      2.107
REMARK INTER + INTRA:          -5.072
REMARK INTER:                  -4.946
REMARK INTRA:                  -0.126
REMARK UNBOUND:                -0.182
REMARK  Name = 1550473
REMARK  2 active torsions:
REMARK  status: ('A' for Active; 'I' for Inactive)
REMARK    1  A    between atoms: N_1  and  C_4
REMARK    2  A    between atoms: C_4  and  C_5
REMARK                            x       y       z     vdW  Elec       q    Type
REMARK                         _______ _______ _______ _____ _____    ______ ____
ROOT
ATOM      1  N   UNL     1       3.900  -1.316   7.366  0.00  0.00    -0.354 N 
ATOM      2  N   UNL     1       3.598  -3.503   6.666  0.00  0.00    -0.372 N 
ATOM      3  N   UNL     1       3.720  -3.066   8.915  0.00  0.00    -0.372 N 
ATOM      4  C   UNL     1       3.741  -2.615   7.656  0.00  0.00    +0.166 C 
ATOM      5  H   UNL     1       3.938  -1.042   6.391  0.00  0.00    +0.163 HD
ATOM      6  H   UNL     1       3.473  -4.489   6.854  0.00  0.00    +0.159 HD
ATOM      7  H   UNL     1       3.590  -3.221   5.693  0.00  0.00    +0.159 HD
ATOM      8  H   UNL     1       3.829  -2.447   9.707  0.00  0.00    +0.159 HD
ATOM      9  H   UNL     1       3.607  -4.050   9.123  0.00  0.00    +0.159 HD
ENDROOT
BRANCH   1  10
ATOM     10  C   UNL     1       4.011  -0.261   8.371  0.00  0.00    +0.151 C 
BRANCH  10  11
ATOM     11  C   UNL     1       3.704   1.064   7.729  0.00  0.00    -0.028 A 
ATOM     12  C   UNL     1       3.118   1.119   6.456  0.00  0.00    +0.005 A 
ATOM     13  C   UNL     1       3.993   2.267   8.391  0.00  0.00    +0.005 A 
ATOM     14  C   UNL     1       2.805   2.349   5.872  0.00  0.00    +0.000 A 
ATOM     15  C   UNL     1       3.680   3.493   7.803  0.00  0.00    +0.000 A 
ATOM     16  C   UNL     1       3.084   3.533   6.545  0.00  0.00    +0.000 A 
ENDBRANCH  10  11
ENDBRANCH   1  10
TORSDOF 2
ENDMDL
MODEL 8
REMARK VINA RESULT:    -4.323     22.154     24.027
REMARK INTER + INTRA:          -5.010
REMARK INTER:                  -4.879
REMARK INTRA:                  -0.130
REMARK UNBOUND:                -0.182
REMARK  Name = 1550473
REMARK  2 active torsions:
REMARK  status: ('A' for Active; 'I' for Inactive)
REMARK    1  A    between atoms: N_1  and  C_4
REMARK    2  A    between atoms: C_4  and  C_5
REMARK                            x       y       z     vdW  Elec       q    Type
REMARK                         _______ _______ _______ _____ _____    ______ ____
ROOT
ATOM      1  N   UNL     1       4.339 -10.834 -16.043  0.00  0.00    -0.354 N 
ATOM      2  N   UNL     1       5.652  -9.893 -17.702  0.00  0.00    -0.372 N 
ATOM      3  N   UNL     1       3.385 -10.029 -18.026  0.00  0.00    -0.372 N 
ATOM      4  C   UNL     1       4.447 -10.258 -17.247  0.00  0.00    +0.166 C 
ATOM      5  H   UNL     1       5.186 -11.008 -15.514  0.00  0.00    +0.163 HD
ATOM      6  H   UNL     1       5.765  -9.453 -18.605  0.00  0.00    +0.159 HD
ATOM      7  H   UNL     1       6.492 -10.027 -17.152  0.00  0.00    +0.159 HD
ATOM      8  H   UNL     1       2.448 -10.286 -17.743  0.00  0.00    +0.159 HD
ATOM      9  H   UNL     1       3.479  -9.600 -18.938  0.00  0.00    +0.159 HD
ENDROOT
BRANCH   1  10
ATOM     10  C   UNL     1       3.067 -11.220 -15.433  0.00  0.00    +0.151 C 
BRANCH  10  11
ATOM     11  C   UNL     1       3.010 -10.677 -14.032  0.00  0.00    -0.028 A 
ATOM     12  C   UNL     1       3.319 -11.497 -12.937  0.00  0.00    +0.005 A 
ATOM     13  C   UNL     1       2.652  -9.341 -13.792  0.00  0.00    +0.005 A 
ATOM     14  C   UNL     1       3.295 -10.985 -11.637  0.00  0.00    +0.000 A 
ATOM     15  C   UNL     1       2.629  -8.834 -12.493  0.00  0.00    +0.000 A 
ATOM     16  C   UNL     1       2.953  -9.656 -11.416  0.00  0.00    +0.000 A 
ENDBRANCH  10  11
ENDBRANCH   1  10
TORSDOF 2
ENDMDL
MODEL 9
REMARK VINA RESULT:    -4.318      2.439      3.562
REMARK INTER + INTRA:          -5.004
REMARK INTER:                  -4.899
REMARK INTRA:                  -0.105
REMARK UNBOUND:                -0.182
REMARK  Name = 1550473
REMARK  2 active torsions:
REMARK  status: ('A' for Active; 'I' for Inactive)
REMARK    1  A    between atoms: N_1  and  C_4
REMARK    2  A    between atoms: C_4  and  C_5
REMARK                            x       y       z     vdW  Elec       q    Type
REMARK                         _______ _______ _______ _____ _____    ______ ____
ROOT
ATOM      1  N   UNL     1       3.172  -3.602   5.866  0.00  0.00    -0.354 N 
ATOM      2  N   UNL     1       2.589  -5.826   5.587  0.00  0.00    -0.372 N 
ATOM      3  N   UNL     1       3.516  -5.164   7.579  0.00  0.00    -0.372 N 
ATOM      4  C   UNL     1       3.097  -4.849   6.348  0.00  0.00    +0.166 C 
ATOM      5  H   UNL     1       2.865  -3.434   4.915  0.00  0.00    +0.163 HD
ATOM      6  H   UNL     1       2.516  -6.776   5.925  0.00  0.00    +0.159 HD
ATOM      7  H   UNL     1       2.241  -5.646   4.653  0.00  0.00    +0.159 HD
ATOM      8  H   UNL     1       3.915  -4.474   8.201  0.00  0.00    +0.159 HD
ATOM      9  H   UNL     1       3.463  -6.112   7.930  0.00  0.00    +0.159 HD
ENDROOT
BRANCH   1  10
ATOM     10  C   UNL     1       3.659  -2.456   6.633  0.00  0.00    +0.151 C 
BRANCH  10  11
ATOM     11  C   UNL     1       3.735  -1.257   5.730  0.00  0.00    -0.028 A 
ATOM     12  C   UNL     1       4.475  -1.307   4.539  0.00  0.00    +0.005 A 
ATOM     13  C   UNL     1       3.064  -0.068   6.056  0.00  0.00    +0.005 A 
ATOM     14  C   UNL     1       4.521  -0.203   3.685  0.00  0.00    +0.000 A 
ATOM     15  C   UNL     1       3.113   1.033   5.200  0.00  0.00    +0.000 A 
ATOM     16  C   UNL     1       3.840   0.964   4.014  0.00  0.00    +0.000 A 
ENDBRANCH  10  11
ENDBRANCH   1  10
TORSDOF 2
ENDMDL
