MODEL 1
REMARK VINA RESULT:    -4.864      0.000      0.000
REMARK INTER + INTRA:          -5.592
REMARK INTER:                  -5.433
REMARK INTRA:                  -0.159
REMARK UNBOUND:                -0.159
REMARK  Name = 1550473
REMARK  2 active torsions:
REMARK  status: ('A' for Active; 'I' for Inactive)
REMARK    1  A    between atoms: N_1  and  C_4
REMARK    2  A    between atoms: C_4  and  C_5
REMARK                            x       y       z     vdW  Elec       q    Type
REMARK                         _______ _______ _______ _____ _____    ______ ____
ROOT
ATOM      1  N   UNL     1      -9.328   3.534 -12.748  0.00  0.00    -0.354 N 
ATOM      2  N   UNL     1     -11.227   2.689 -11.725  0.00  0.00    -0.372 N 
ATOM      3  N   UNL     1     -11.228   2.977 -14.001  0.00  0.00    -0.372 N 
ATOM      4  C   UNL     1     -10.583   3.072 -12.834  0.00  0.00    +0.166 C 
ATOM      5  H   UNL     1      -8.905   3.610 -11.830  0.00  0.00    +0.163 HD
ATOM      6  H   UNL     1     -12.173   2.334 -11.759  0.00  0.00    +0.159 HD
ATOM      7  H   UNL     1     -10.785   2.723 -10.814  0.00  0.00    +0.159 HD
ATOM      8  H   UNL     1     -10.800   3.255 -14.874  0.00  0.00    +0.159 HD
ATOM      9  H   UNL     1     -12.179   2.634 -14.054  0.00  0.00    +0.159 HD
ENDROOT
BRANCH   1  10
ATOM     10  C   UNL     1      -8.520   3.926 -13.901  0.00  0.00    +0.151 C 
BRANCH  10  11
ATOM     11  C   UNL     1      -7.719   2.741 -14.365  0.00  0.00    -0.028 A 
ATOM     12  C   UNL     1      -6.592   2.318 -13.647  0.00  0.00    +0.005 A 
ATOM     13  C   UNL     1      -8.086   2.033 -15.520  0.00  0.00    +0.005 A 
ATOM     14  C   UNL     1      -5.865   1.199 -14.061  0.00  0.00    +0.000 A 
ATOM     15  C   UNL     1      -7.358   0.917 -15.931  0.00  0.00    +0.000 A 
ATOM     16  C   UNL     1      -6.249   0.499 -15.200  0.00  0.00    +0.000 A 
ENDBRANCH  10  11
ENDBRANCH   1  10
TORSDOF 2
ENDMDL
MODEL 2
REMARK VINA RESULT:    -4.761     18.681     20.481
REMARK INTER + INTRA:          -5.477
REMARK INTER:                  -5.333
REMARK INTRA:                  -0.144
REMARK UNBOUND:                -0.159
REMARK  Name = 1550473
REMARK  2 active torsions:
REMARK  status: ('A' for Active; 'I' for Inactive)
REMARK    1  A    between atoms: N_1  and  C_4
REMARK    2  A    between atoms: C_4  and  C_5
REMARK                            x       y       z     vdW  Elec       q    Type
REMARK                         _______ _______ _______ _____ _____    ______ ____
ROOT
ATOM      1  N   UNL     1     -19.886  -4.389  -0.087  0.00  0.00    -0.354 N 
ATOM      2  N   UNL     1     -18.970  -5.121  -2.085  0.00  0.00    -0.372 N 
ATOM      3  N   UNL     1     -19.573  -6.673  -0.507  0.00  0.00    -0.372 N 
ATOM      4  C   UNL     1     -19.482  -5.392  -0.878  0.00  0.00    +0.166 C 
ATOM      5  H   UNL     1     -19.762  -3.438  -0.415  0.00  0.00    +0.163 HD
ATOM      6  H   UNL     1     -18.660  -5.857  -2.705  0.00  0.00    +0.159 HD
ATOM      7  H   UNL     1     -18.890  -4.171  -2.428  0.00  0.00    +0.159 HD
ATOM      8  H   UNL     1     -19.945  -6.945   0.394  0.00  0.00    +0.159 HD
ATOM      9  H   UNL     1     -19.257  -7.423  -1.109  0.00  0.00    +0.159 HD
ENDROOT
BRANCH   1  10
ATOM     10  C   UNL     1     -20.507  -4.580   1.222  0.00  0.00    +0.151 C 
BRANCH  10  11
ATOM     11  C   UNL     1     -19.755  -3.774   2.245  0.00  0.00    -0.028 A 
ATOM     12  C   UNL     1     -20.326  -2.621   2.804  0.00  0.00    +0.005 A 
ATOM     13  C   UNL     1     -18.473  -4.162   2.664  0.00  0.00    +0.005 A 
ATOM     14  C   UNL     1     -19.639  -1.890   3.776  0.00  0.00    +0.000 A 
ATOM     15  C   UNL     1     -17.791  -3.428   3.635  0.00  0.00    +0.000 A 
ATOM     16  C   UNL     1     -18.375  -2.294   4.192  0.00  0.00    +0.000 A 
ENDBRANCH  10  11
ENDBRANCH   1  10
TORSDOF 2
ENDMDL
MODEL 3
REMARK VINA RESULT:    -4.708     19.357     20.290
REMARK INTER + INTRA:          -5.417
REMARK INTER:                  -5.272
REMARK INTRA:                  -0.146
REMARK UNBOUND:                -0.159
REMARK  Name = 1550473
REMARK  2 active torsions:
REMARK  status: ('A' for Active; 'I' for Inactive)
REMARK    1  A    between atoms: N_1  and  C_4
REMARK    2  A    between atoms: C_4  and  C_5
REMARK                            x       y       z     vdW  Elec       q    Type
REMARK                         _______ _______ _______ _____ _____    ______ ____
ROOT
ATOM      1  N   UNL     1     -18.904  -4.900   2.320  0.00  0.00    -0.354 N 
ATOM      2  N   UNL     1     -17.624  -3.179   3.192  0.00  0.00    -0.372 N 
ATOM      3  N   UNL     1     -19.909  -2.972   3.196  0.00  0.00    -0.372 N 
ATOM      4  C   UNL     1     -18.823  -3.694   2.897  0.00  0.00    +0.166 C 
ATOM      5  H   UNL     1     -18.043  -5.383   2.091  0.00  0.00    +0.163 HD
ATOM      6  H   UNL     1     -17.531  -2.273   3.631  0.00  0.00    +0.159 HD
ATOM      7  H   UNL     1     -16.766  -3.684   3.005  0.00  0.00    +0.159 HD
ATOM      8  H   UNL     1     -20.843  -3.302   2.994  0.00  0.00    +0.159 HD
ATOM      9  H   UNL     1     -19.836  -2.058   3.625  0.00  0.00    +0.159 HD
ENDROOT
BRANCH   1  10
ATOM     10  C   UNL     1     -20.163  -5.574   2.007  0.00  0.00    +0.151 C 
BRANCH  10  11
ATOM     11  C   UNL     1     -20.268  -5.751   0.517  0.00  0.00    -0.028 A 
ATOM     12  C   UNL     1     -19.359  -6.570  -0.168  0.00  0.00    +0.005 A 
ATOM     13  C   UNL     1     -21.278  -5.108  -0.214  0.00  0.00    +0.005 A 
ATOM     14  C   UNL     1     -19.474  -6.760  -1.547  0.00  0.00    +0.000 A 
ATOM     15  C   UNL     1     -21.389  -5.299  -1.592  0.00  0.00    +0.000 A 
ATOM     16  C   UNL     1     -20.488  -6.126  -2.257  0.00  0.00    +0.000 A 
ENDBRANCH  10  11
ENDBRANCH   1  10
TORSDOF 2
ENDMDL
MODEL 4
REMARK VINA RESULT:    -4.703     27.996     29.092
REMARK INTER + INTRA:          -5.412
REMARK INTER:                  -5.304
REMARK INTRA:                  -0.108
REMARK UNBOUND:                -0.159
REMARK  Name = 1550473
REMARK  2 active torsions:
REMARK  status: ('A' for Active; 'I' for Inactive)
REMARK    1  A    between atoms: N_1  and  C_4
REMARK    2  A    between atoms: C_4  and  C_5
REMARK                            x       y       z     vdW  Elec       q    Type
REMARK                         _______ _______ _______ _____ _____    ______ ____
ROOT
ATOM      1  N   UNL     1       6.059   8.173  11.707  0.00  0.00    -0.354 N 
ATOM      2  N   UNL     1       4.413   9.452  12.716  0.00  0.00    -0.372 N 
ATOM      3  N   UNL     1       6.023  10.504  11.466  0.00  0.00    -0.372 N 
ATOM      4  C   UNL     1       5.511   9.370  11.955  0.00  0.00    +0.166 C 
ATOM      5  H   UNL     1       5.640   7.354  12.132  0.00  0.00    +0.163 HD
ATOM      6  H   UNL     1       3.975  10.341  12.918  0.00  0.00    +0.159 HD
ATOM      7  H   UNL     1       3.969   8.627  13.102  0.00  0.00    +0.159 HD
ATOM      8  H   UNL     1       6.854  10.511  10.889  0.00  0.00    +0.159 HD
ATOM      9  H   UNL     1       5.606  11.404  11.666  0.00  0.00    +0.159 HD
ENDROOT
BRANCH   1  10
ATOM     10  C   UNL     1       7.224   7.970  10.847  0.00  0.00    +0.151 C 
BRANCH  10  11
ATOM     11  C   UNL     1       7.057   6.681  10.091  0.00  0.00    -0.028 A 
ATOM     12  C   UNL     1       7.140   6.661   8.691  0.00  0.00    +0.005 A 
ATOM     13  C   UNL     1       6.821   5.475  10.769  0.00  0.00    +0.005 A 
ATOM     14  C   UNL     1       7.014   5.459   7.990  0.00  0.00    +0.000 A 
ATOM     15  C   UNL     1       6.696   4.277  10.065  0.00  0.00    +0.000 A 
ATOM     16  C   UNL     1       6.795   4.269   8.676  0.00  0.00    +0.000 A 
ENDBRANCH  10  11
ENDBRANCH   1  10
TORSDOF 2
ENDMDL
MODEL 5
REMARK VINA RESULT:    -4.663      4.931      6.239
REMARK INTER + INTRA:          -5.367
REMARK INTER:                  -5.185
REMARK INTRA:                  -0.182
REMARK UNBOUND:                -0.159
REMARK  Name = 1550473
REMARK  2 active torsions:
REMARK  status: ('A' for Active; 'I' for Inactive)
REMARK    1  A    between atoms: N_1  and  C_4
REMARK    2  A    between atoms: C_4  and  C_5
REMARK                            x       y       z     vdW  Elec       q    Type
REMARK                         _______ _______ _______ _____ _____    ______ ____
ROOT
ATOM      1  N   UNL     1      -2.007   3.452 -14.205  0.00  0.00    -0.354 N 
ATOM      2  N   UNL     1      -0.657   4.222 -12.487  0.00  0.00    -0.372 N 
ATOM      3  N   UNL     1      -1.995   5.717 -13.601  0.00  0.00    -0.372 N 
ATOM      4  C   UNL     1      -1.563   4.461 -13.443  0.00  0.00    +0.166 C 
ATOM      5  H   UNL     1      -1.617   2.529 -14.055  0.00  0.00    +0.163 HD
ATOM      6  H   UNL     1      -0.307   4.963 -11.895  0.00  0.00    +0.159 HD
ATOM      7  H   UNL     1      -0.304   3.290 -12.309  0.00  0.00    +0.159 HD
ATOM      8  H   UNL     1      -2.674   5.964 -14.309  0.00  0.00    +0.159 HD
ATOM      9  H   UNL     1      -1.647   6.474 -13.026  0.00  0.00    +0.159 HD
ENDROOT
BRANCH   1  10
ATOM     10  C   UNL     1      -3.031   3.596 -15.237  0.00  0.00    +0.151 C 
BRANCH  10  11
ATOM     11  C   UNL     1      -4.351   3.127 -14.689  0.00  0.00    -0.028 A 
ATOM     12  C   UNL     1      -4.659   1.759 -14.648  0.00  0.00    +0.005 A 
ATOM     13  C   UNL     1      -5.295   4.045 -14.203  0.00  0.00    +0.005 A 
ATOM     14  C   UNL     1      -5.872   1.321 -14.111  0.00  0.00    +0.000 A 
ATOM     15  C   UNL     1      -6.505   3.603 -13.668  0.00  0.00    +0.000 A 
ATOM     16  C   UNL     1      -6.792   2.241 -13.620  0.00  0.00    +0.000 A 
ENDBRANCH  10  11
ENDBRANCH   1  10
TORSDOF 2
ENDMDL
MODEL 6
REMARK VINA RESULT:    -4.637     23.257     24.530
REMARK INTER + INTRA:          -5.339
REMARK INTER:                  -5.219
REMARK INTRA:                  -0.120
REMARK UNBOUND:                -0.159
REMARK  Name = 1550473
REMARK  2 active torsions:
REMARK  status: ('A' for Active; 'I' for Inactive)
REMARK    1  A    between atoms: N_1  and  C_4
REMARK    2  A    between atoms: C_4  and  C_5
REMARK                            x       y       z     vdW  Elec       q    Type
REMARK                         _______ _______ _______ _____ _____    ______ ____
ROOT
ATOM      1  N   UNL     1      13.670   6.187  -3.843  0.00  0.00    -0.354 N 
ATOM      2  N   UNL     1      14.832   4.543  -2.698  0.00  0.00    -0.372 N 
ATOM      3  N   UNL     1      13.266   3.916  -4.253  0.00  0.00    -0.372 N 
ATOM      4  C   UNL     1      13.913   4.891  -3.607  0.00  0.00    +0.166 C 
ATOM      5  H   UNL     1      14.173   6.878  -3.298  0.00  0.00    +0.163 HD
ATOM      6  H   UNL     1      15.040   3.573  -2.502  0.00  0.00    +0.159 HD
ATOM      7  H   UNL     1      15.366   5.236  -2.188  0.00  0.00    +0.159 HD
ATOM      8  H   UNL     1      12.556   4.112  -4.947  0.00  0.00    +0.159 HD
ATOM      9  H   UNL     1      13.451   2.939  -4.062  0.00  0.00    +0.159 HD
ENDROOT
BRANCH   1  10
ATOM     10  C   UNL     1      12.728   6.673  -4.850  0.00  0.00    +0.151 C 
BRANCH  10  11
ATOM     11  C   UNL     1      12.668   8.174  -4.783  0.00  0.00    -0.028 A 
ATOM     12  C   UNL     1      13.709   8.902  -4.191  0.00  0.00    +0.005 A 
ATOM     13  C   UNL     1      11.574   8.874  -5.316  0.00  0.00    +0.005 A 
ATOM     14  C   UNL     1      13.668  10.298  -4.156  0.00  0.00    +0.000 A 
ATOM     15  C   UNL     1      11.537  10.268  -5.278  0.00  0.00    +0.000 A 
ATOM     16  C   UNL     1      12.585  10.980  -4.700  0.00  0.00    +0.000 A 
ENDBRANCH  10  11
ENDBRANCH   1  10
TORSDOF 2
ENDMDL
MODEL 7
REMARK VINA RESULT:    -4.516     17.971     19.374
REMARK INTER + INTRA:          -5.203
REMARK INTER:                  -5.078
REMARK INTRA:                  -0.125
REMARK UNBOUND:                -0.159
REMARK  Name = 1550473
REMARK  2 active torsions:
REMARK  status: ('A' for Active; 'I' for Inactive)
REMARK    1  A    between atoms: N_1  and  C_4
REMARK    2  A    between atoms: C_4  and  C_5
REMARK                            x       y       z     vdW  Elec       q    Type
REMARK                         _______ _______ _______ _____ _____    ______ ____
ROOT
ATOM      1  N   UNL     1     -21.343  -5.666  -4.049  0.00  0.00    -0.354 N 
ATOM      2  N   UNL     1     -21.235  -6.069  -6.327  0.00  0.00    -0.372 N 
ATOM      3  N   UNL     1     -23.215  -5.347  -5.422  0.00  0.00    -0.372 N 
ATOM      4  C   UNL     1     -21.935  -5.691  -5.251  0.00  0.00    +0.166 C 
ATOM      5  H   UNL     1     -20.378  -5.968  -3.981  0.00  0.00    +0.163 HD
ATOM      6  H   UNL     1     -21.653  -6.095  -7.248  0.00  0.00    +0.159 HD
ATOM      7  H   UNL     1     -20.257  -6.326  -6.264  0.00  0.00    +0.159 HD
ATOM      8  H   UNL     1     -23.800  -5.057  -4.649  0.00  0.00    +0.159 HD
ATOM      9  H   UNL     1     -23.655  -5.377  -6.334  0.00  0.00    +0.159 HD
ENDROOT
BRANCH   1  10
ATOM     10  C   UNL     1     -22.002  -5.218  -2.823  0.00  0.00    +0.151 C 
BRANCH  10  11
ATOM     11  C   UNL     1     -21.184  -5.655  -1.639  0.00  0.00    -0.028 A 
ATOM     12  C   UNL     1     -21.606  -5.359  -0.334  0.00  0.00    +0.005 A 
ATOM     13  C   UNL     1     -19.989  -6.370  -1.815  0.00  0.00    +0.005 A 
ATOM     14  C   UNL     1     -20.862  -5.790   0.767  0.00  0.00    +0.000 A 
ATOM     15  C   UNL     1     -19.249  -6.798  -0.713  0.00  0.00    +0.000 A 
ATOM     16  C   UNL     1     -19.687  -6.510   0.578  0.00  0.00    +0.000 A 
ENDBRANCH  10  11
ENDBRANCH   1  10
TORSDOF 2
ENDMDL
MODEL 8
REMARK VINA RESULT:    -4.504      4.011      5.444
REMARK INTER + INTRA:          -5.190
REMARK INTER:                  -5.076
REMARK INTRA:                  -0.114
REMARK UNBOUND:                -0.159
REMARK  Name = 1550473
REMARK  2 active torsions:
REMARK  status: ('A' for Active; 'I' for Inactive)
REMARK    1  A    between atoms: N_1  and  C_4
REMARK    2  A    between atoms: C_4  and  C_5
REMARK                            x       y       z     vdW  Elec       q    Type
REMARK                         _______ _______ _______ _____ _____    ______ ____
ROOT
ATOM      1  N   UNL     1      -3.689   3.730 -14.143  0.00  0.00    -0.354 N 
ATOM      2  N   UNL     1      -1.405   4.094 -14.279  0.00  0.00    -0.372 N 
ATOM      3  N   UNL     1      -2.396   4.024 -12.210  0.00  0.00    -0.372 N 
ATOM      4  C   UNL     1      -2.512   3.947 -13.540  0.00  0.00    +0.166 C 
ATOM      5  H   UNL     1      -3.715   3.713 -15.156  0.00  0.00    +0.163 HD
ATOM      6  H   UNL     1      -0.503   4.255 -13.852  0.00  0.00    +0.159 HD
ATOM      7  H   UNL     1      -1.427   4.030 -15.289  0.00  0.00    +0.159 HD
ATOM      8  H   UNL     1      -3.194   3.928 -11.597  0.00  0.00    +0.159 HD
ATOM      9  H   UNL     1      -1.503   4.196 -11.765  0.00  0.00    +0.159 HD
ENDROOT
BRANCH   1  10
ATOM     10  C   UNL     1      -4.944   3.503 -13.428  0.00  0.00    +0.151 C 
BRANCH  10  11
ATOM     11  C   UNL     1      -5.815   2.588 -14.244  0.00  0.00    -0.028 A 
ATOM     12  C   UNL     1      -7.022   3.051 -14.788  0.00  0.00    +0.005 A 
ATOM     13  C   UNL     1      -5.436   1.258 -14.480  0.00  0.00    +0.005 A 
ATOM     14  C   UNL     1      -7.816   2.210 -15.570  0.00  0.00    +0.000 A 
ATOM     15  C   UNL     1      -6.233   0.421 -15.262  0.00  0.00    +0.000 A 
ATOM     16  C   UNL     1      -7.421   0.898 -15.808  0.00  0.00    +0.000 A 
ENDBRANCH  10  11
ENDBRANCH   1  10
TORSDOF 2
ENDMDL
MODEL 9
REMARK VINA RESULT:    -4.473     19.709     20.743
REMARK INTER + INTRA:          -5.155
REMARK INTER:                  -5.062
REMARK INTRA:                  -0.093
REMARK UNBOUND:                -0.159
REMARK  Name = 1550473
REMARK  2 active torsions:
REMARK  status: ('A' for Active; 'I' for Inactive)
REMARK    1  A    between atoms: N_1  and  C_4
REMARK    2  A    between atoms: C_4  and  C_5
REMARK                            x       y       z     vdW  Elec       q    Type
REMARK                         _______ _______ _______ _____ _____    ______ ____
ROOT
ATOM      1  N   UNL     1     -19.169  -4.041   2.439  0.00  0.00    -0.354 N 
ATOM      2  N   UNL     1     -20.796  -5.145   1.215  0.00  0.00    -0.372 N 
ATOM      3  N   UNL     1     -18.931  -6.305   1.881  0.00  0.00    -0.372 N 
ATOM      4  C   UNL     1     -19.619  -5.159   1.853  0.00  0.00    +0.166 C 
ATOM      5  H   UNL     1     -19.724  -3.197   2.356  0.00  0.00    +0.163 HD
ATOM      6  H   UNL     1     -21.163  -5.973   0.766  0.00  0.00    +0.159 HD
ATOM      7  H   UNL     1     -21.370  -4.312   1.173  0.00  0.00    +0.159 HD
ATOM      8  H   UNL     1     -18.034  -6.380   2.341  0.00  0.00    +0.159 HD
ATOM      9  H   UNL     1     -19.277  -7.142   1.427  0.00  0.00    +0.159 HD
ENDROOT
BRANCH   1  10
ATOM     10  C   UNL     1     -17.926  -3.964   3.205  0.00  0.00    +0.151 C 
BRANCH  10  11
ATOM     11  C   UNL     1     -17.651  -2.526   3.550  0.00  0.00    -0.028 A 
ATOM     12  C   UNL     1     -18.431  -1.863   4.509  0.00  0.00    +0.005 A 
ATOM     13  C   UNL     1     -16.608  -1.824   2.927  0.00  0.00    +0.005 A 
ATOM     14  C   UNL     1     -18.157  -0.536   4.852  0.00  0.00    +0.000 A 
ATOM     15  C   UNL     1     -16.338  -0.500   3.272  0.00  0.00    +0.000 A 
ATOM     16  C   UNL     1     -17.111   0.143   4.236  0.00  0.00    +0.000 A 
ENDBRANCH  10  11
ENDBRANCH   1  10
TORSDOF 2
ENDMDL
