MODEL 1
REMARK VINA RESULT:    -6.723      0.000      0.000
REMARK INTER + INTRA:          -7.642
REMARK INTER:                  -7.509
REMARK INTRA:                  -0.134
REMARK UNBOUND:                -0.134
REMARK  Name = 1550473
REMARK  2 active torsions:
REMARK  status: ('A' for Active; 'I' for Inactive)
REMARK    1  A    between atoms: N_1  and  C_4
REMARK    2  A    between atoms: C_4  and  C_5
REMARK                            x       y       z     vdW  Elec       q    Type
REMARK                         _______ _______ _______ _____ _____    ______ ____
ROOT
ATOM      1  N   UNL     1      -1.472  -5.954  -7.918  0.00  0.00    -0.354 N 
ATOM      2  N   UNL     1       0.004  -6.146  -9.692  0.00  0.00    -0.372 N 
ATOM      3  N   UNL     1       0.729  -6.685  -7.583  0.00  0.00    -0.372 N 
ATOM      4  C   UNL     1      -0.254  -6.261  -8.384  0.00  0.00    +0.166 C 
ATOM      5  H   UNL     1      -2.165  -5.610  -8.573  0.00  0.00    +0.163 HD
ATOM      6  H   UNL     1       0.913  -6.373 -10.073  0.00  0.00    +0.159 HD
ATOM      7  H   UNL     1      -0.704  -5.846 -10.351  0.00  0.00    +0.159 HD
ATOM      8  H   UNL     1       0.600  -6.787  -6.585  0.00  0.00    +0.159 HD
ATOM      9  H   UNL     1       1.649  -6.906  -7.943  0.00  0.00    +0.159 HD
ENDROOT
BRANCH   1  10
ATOM     10  C   UNL     1      -1.872  -6.096  -6.519  0.00  0.00    +0.151 C 
BRANCH  10  11
ATOM     11  C   UNL     1      -2.693  -4.902  -6.120  0.00  0.00    -0.028 A 
ATOM     12  C   UNL     1      -3.871  -5.064  -5.375  0.00  0.00    +0.005 A 
ATOM     13  C   UNL     1      -2.296  -3.604  -6.477  0.00  0.00    +0.005 A 
ATOM     14  C   UNL     1      -4.618  -3.952  -4.978  0.00  0.00    +0.000 A 
ATOM     15  C   UNL     1      -3.045  -2.497  -6.079  0.00  0.00    +0.000 A 
ATOM     16  C   UNL     1      -4.205  -2.671  -5.328  0.00  0.00    +0.000 A 
ENDBRANCH  10  11
ENDBRANCH   1  10
TORSDOF 2
ENDMDL
MODEL 2
REMARK VINA RESULT:    -6.485      1.254      2.153
REMARK INTER + INTRA:          -7.376
REMARK INTER:                  -7.256
REMARK INTRA:                  -0.121
REMARK UNBOUND:                -0.134
REMARK  Name = 1550473
REMARK  2 active torsions:
REMARK  status: ('A' for Active; 'I' for Inactive)
REMARK    1  A    between atoms: N_1  and  C_4
REMARK    2  A    between atoms: C_4  and  C_5
REMARK                            x       y       z     vdW  Elec       q    Type
REMARK                         _______ _______ _______ _____ _____    ______ ____
ROOT
ATOM      1  N   UNL     1      -1.085  -5.299  -5.996  0.00  0.00    -0.354 N 
ATOM      2  N   UNL     1       1.124  -5.822  -6.456  0.00  0.00    -0.372 N 
ATOM      3  N   UNL     1      -0.538  -6.997  -7.515  0.00  0.00    -0.372 N 
ATOM      4  C   UNL     1      -0.182  -6.038  -6.654  0.00  0.00    +0.166 C 
ATOM      5  H   UNL     1      -0.751  -4.607  -5.334  0.00  0.00    +0.163 HD
ATOM      6  H   UNL     1       1.828  -6.361  -6.941  0.00  0.00    +0.159 HD
ATOM      7  H   UNL     1       1.455  -5.099  -5.828  0.00  0.00    +0.159 HD
ATOM      8  H   UNL     1      -1.508  -7.214  -7.704  0.00  0.00    +0.159 HD
ATOM      9  H   UNL     1       0.152  -7.556  -8.001  0.00  0.00    +0.159 HD
ENDROOT
BRANCH   1  10
ATOM     10  C   UNL     1      -2.530  -5.418  -6.180  0.00  0.00    +0.151 C 
BRANCH  10  11
ATOM     11  C   UNL     1      -3.177  -4.099  -5.857  0.00  0.00    -0.028 A 
ATOM     12  C   UNL     1      -2.641  -2.902  -6.355  0.00  0.00    +0.005 A 
ATOM     13  C   UNL     1      -4.329  -4.040  -5.058  0.00  0.00    +0.005 A 
ATOM     14  C   UNL     1      -3.258  -1.680  -6.080  0.00  0.00    +0.000 A 
ATOM     15  C   UNL     1      -4.942  -2.817  -4.785  0.00  0.00    +0.000 A 
ATOM     16  C   UNL     1      -4.408  -1.638  -5.298  0.00  0.00    +0.000 A 
ENDBRANCH  10  11
ENDBRANCH   1  10
TORSDOF 2
ENDMDL
MODEL 3
REMARK VINA RESULT:    -6.178      1.500      2.489
REMARK INTER + INTRA:          -7.034
REMARK INTER:                  -7.027
REMARK INTRA:                  -0.007
REMARK UNBOUND:                -0.134
REMARK  Name = 1550473
REMARK  2 active torsions:
REMARK  status: ('A' for Active; 'I' for Inactive)
REMARK    1  A    between atoms: N_1  and  C_4
REMARK    2  A    between atoms: C_4  and  C_5
REMARK                            x       y       z     vdW  Elec       q    Type
REMARK                         _______ _______ _______ _____ _____    ______ ____
ROOT
ATOM      1  N   UNL     1       0.428  -6.995  -7.956  0.00  0.00    -0.354 N 
ATOM      2  N   UNL     1       0.554  -7.990 -10.044  0.00  0.00    -0.372 N 
ATOM      3  N   UNL     1      -0.336  -5.882  -9.871  0.00  0.00    -0.372 N 
ATOM      4  C   UNL     1       0.213  -6.947  -9.278  0.00  0.00    +0.166 C 
ATOM      5  H   UNL     1       0.820  -7.843  -7.563  0.00  0.00    +0.163 HD
ATOM      6  H   UNL     1       0.407  -7.981 -11.045  0.00  0.00    +0.159 HD
ATOM      7  H   UNL     1       0.988  -8.818  -9.655  0.00  0.00    +0.159 HD
ATOM      8  H   UNL     1      -0.621  -5.065  -9.348  0.00  0.00    +0.159 HD
ATOM      9  H   UNL     1      -0.502  -5.858 -10.870  0.00  0.00    +0.159 HD
ENDROOT
BRANCH   1  10
ATOM     10  C   UNL     1       0.143  -5.892  -7.040  0.00  0.00    +0.151 C 
BRANCH  10  11
ATOM     11  C   UNL     1      -1.298  -5.965  -6.617  0.00  0.00    -0.028 A 
ATOM     12  C   UNL     1      -1.975  -7.194  -6.605  0.00  0.00    +0.005 A 
ATOM     13  C   UNL     1      -1.991  -4.811  -6.221  0.00  0.00    +0.005 A 
ATOM     14  C   UNL     1      -3.305  -7.267  -6.183  0.00  0.00    +0.000 A 
ATOM     15  C   UNL     1      -3.319  -4.888  -5.802  0.00  0.00    +0.000 A 
ATOM     16  C   UNL     1      -3.975  -6.116  -5.780  0.00  0.00    +0.000 A 
ENDBRANCH  10  11
ENDBRANCH   1  10
TORSDOF 2
ENDMDL
MODEL 4
REMARK VINA RESULT:    -6.144      1.409      2.011
REMARK INTER + INTRA:          -6.996
REMARK INTER:                  -6.869
REMARK INTRA:                  -0.127
REMARK UNBOUND:                -0.134
REMARK  Name = 1550473
REMARK  2 active torsions:
REMARK  status: ('A' for Active; 'I' for Inactive)
REMARK    1  A    between atoms: N_1  and  C_4
REMARK    2  A    between atoms: C_4  and  C_5
REMARK                            x       y       z     vdW  Elec       q    Type
REMARK                         _______ _______ _______ _____ _____    ______ ____
ROOT
ATOM      1  N   UNL     1      -1.572  -5.136  -6.927  0.00  0.00    -0.354 N 
ATOM      2  N   UNL     1      -0.162  -6.974  -6.934  0.00  0.00    -0.372 N 
ATOM      3  N   UNL     1       0.481  -5.087  -5.798  0.00  0.00    -0.372 N 
ATOM      4  C   UNL     1      -0.425  -5.718  -6.552  0.00  0.00    +0.166 C 
ATOM      5  H   UNL     1      -2.204  -5.658  -7.524  0.00  0.00    +0.163 HD
ATOM      6  H   UNL     1       0.693  -7.440  -6.664  0.00  0.00    +0.159 HD
ATOM      7  H   UNL     1      -0.816  -7.509  -7.492  0.00  0.00    +0.159 HD
ATOM      8  H   UNL     1       0.345  -4.136  -5.482  0.00  0.00    +0.159 HD
ATOM      9  H   UNL     1       1.348  -5.533  -5.527  0.00  0.00    +0.159 HD
ENDROOT
BRANCH   1  10
ATOM     10  C   UNL     1      -1.979  -3.793  -6.520  0.00  0.00    +0.151 C 
BRANCH  10  11
ATOM     11  C   UNL     1      -3.277  -3.879  -5.767  0.00  0.00    -0.028 A 
ATOM     12  C   UNL     1      -3.804  -5.126  -5.397  0.00  0.00    +0.005 A 
ATOM     13  C   UNL     1      -3.983  -2.719  -5.414  0.00  0.00    +0.005 A 
ATOM     14  C   UNL     1      -4.995  -5.206  -4.672  0.00  0.00    +0.000 A 
ATOM     15  C   UNL     1      -5.172  -2.803  -4.691  0.00  0.00    +0.000 A 
ATOM     16  C   UNL     1      -5.677  -4.046  -4.317  0.00  0.00    +0.000 A 
ENDBRANCH  10  11
ENDBRANCH   1  10
TORSDOF 2
ENDMDL
MODEL 5
REMARK VINA RESULT:    -5.794      3.763      5.606
REMARK INTER + INTRA:          -6.605
REMARK INTER:                  -6.438
REMARK INTRA:                  -0.168
REMARK UNBOUND:                -0.134
REMARK  Name = 1550473
REMARK  2 active torsions:
REMARK  status: ('A' for Active; 'I' for Inactive)
REMARK    1  A    between atoms: N_1  and  C_4
REMARK    2  A    between atoms: C_4  and  C_5
REMARK                            x       y       z     vdW  Elec       q    Type
REMARK                         _______ _______ _______ _____ _____    ______ ____
ROOT
ATOM      1  N   UNL     1       0.417  -6.967  -8.429  0.00  0.00    -0.354 N 
ATOM      2  N   UNL     1       1.201  -5.747  -6.623  0.00  0.00    -0.372 N 
ATOM      3  N   UNL     1      -1.037  -6.241  -6.741  0.00  0.00    -0.372 N 
ATOM      4  C   UNL     1       0.186  -6.326  -7.276  0.00  0.00    +0.166 C 
ATOM      5  H   UNL     1       1.362  -6.970  -8.797  0.00  0.00    +0.163 HD
ATOM      6  H   UNL     1       1.057  -5.259  -5.749  0.00  0.00    +0.159 HD
ATOM      7  H   UNL     1       2.151  -5.791  -6.970  0.00  0.00    +0.159 HD
ATOM      8  H   UNL     1      -1.846  -6.652  -7.187  0.00  0.00    +0.159 HD
ATOM      9  H   UNL     1      -1.203  -5.748  -5.873  0.00  0.00    +0.159 HD
ENDROOT
BRANCH   1  10
ATOM     10  C   UNL     1      -0.609  -7.677  -9.191  0.00  0.00    +0.151 C 
BRANCH  10  11
ATOM     11  C   UNL     1      -0.833  -6.965 -10.496  0.00  0.00    -0.028 A 
ATOM     12  C   UNL     1      -0.133  -7.354 -11.648  0.00  0.00    +0.005 A 
ATOM     13  C   UNL     1      -1.747  -5.905 -10.589  0.00  0.00    +0.005 A 
ATOM     14  C   UNL     1      -0.363  -6.712 -12.868  0.00  0.00    +0.000 A 
ATOM     15  C   UNL     1      -1.973  -5.267 -11.809  0.00  0.00    +0.000 A 
ATOM     16  C   UNL     1      -1.282  -5.672 -12.948  0.00  0.00    +0.000 A 
ENDBRANCH  10  11
ENDBRANCH   1  10
TORSDOF 2
ENDMDL
MODEL 6
REMARK VINA RESULT:    -5.710      1.904      2.958
REMARK INTER + INTRA:          -6.511
REMARK INTER:                  -6.459
REMARK INTRA:                  -0.052
REMARK UNBOUND:                -0.134
REMARK  Name = 1550473
REMARK  2 active torsions:
REMARK  status: ('A' for Active; 'I' for Inactive)
REMARK    1  A    between atoms: N_1  and  C_4
REMARK    2  A    between atoms: C_4  and  C_5
REMARK                            x       y       z     vdW  Elec       q    Type
REMARK                         _______ _______ _______ _____ _____    ______ ____
ROOT
ATOM      1  N   UNL     1      -1.138  -7.158 -10.015  0.00  0.00    -0.354 N 
ATOM      2  N   UNL     1       0.608  -6.372 -11.318  0.00  0.00    -0.372 N 
ATOM      3  N   UNL     1       1.086  -7.689  -9.501  0.00  0.00    -0.372 N 
ATOM      4  C   UNL     1       0.175  -7.079 -10.268  0.00  0.00    +0.166 C 
ATOM      5  H   UNL     1      -1.775  -6.648 -10.616  0.00  0.00    +0.163 HD
ATOM      6  H   UNL     1       1.592  -6.298 -11.536  0.00  0.00    +0.159 HD
ATOM      7  H   UNL     1      -0.034  -5.901 -11.945  0.00  0.00    +0.159 HD
ATOM      8  H   UNL     1       0.825  -8.233  -8.690  0.00  0.00    +0.159 HD
ATOM      9  H   UNL     1       2.077  -7.616  -9.696  0.00  0.00    +0.159 HD
ENDROOT
BRANCH   1  10
ATOM     10  C   UNL     1      -1.716  -7.945  -8.928  0.00  0.00    +0.151 C 
BRANCH  10  11
ATOM     11  C   UNL     1      -2.217  -7.014  -7.858  0.00  0.00    -0.028 A 
ATOM     12  C   UNL     1      -1.592  -5.777  -7.642  0.00  0.00    +0.005 A 
ATOM     13  C   UNL     1      -3.319  -7.360  -7.062  0.00  0.00    +0.005 A 
ATOM     14  C   UNL     1      -2.075  -4.899  -6.669  0.00  0.00    +0.000 A 
ATOM     15  C   UNL     1      -3.797  -6.481  -6.091  0.00  0.00    +0.000 A 
ATOM     16  C   UNL     1      -3.177  -5.249  -5.897  0.00  0.00    +0.000 A 
ENDBRANCH  10  11
ENDBRANCH   1  10
TORSDOF 2
ENDMDL
MODEL 7
REMARK VINA RESULT:    -5.363      4.555      8.134
REMARK INTER + INTRA:          -6.123
REMARK INTER:                  -5.983
REMARK INTRA:                  -0.141
REMARK UNBOUND:                -0.134
REMARK  Name = 1550473
REMARK  2 active torsions:
REMARK  status: ('A' for Active; 'I' for Inactive)
REMARK    1  A    between atoms: N_1  and  C_4
REMARK    2  A    between atoms: C_4  and  C_5
REMARK                            x       y       z     vdW  Elec       q    Type
REMARK                         _______ _______ _______ _____ _____    ______ ____
ROOT
ATOM      1  N   UNL     1       0.312  -7.856 -10.020  0.00  0.00    -0.354 N 
ATOM      2  N   UNL     1       0.642  -6.879  -7.946  0.00  0.00    -0.372 N 
ATOM      3  N   UNL     1      -0.842  -5.911  -9.405  0.00  0.00    -0.372 N 
ATOM      4  C   UNL     1       0.034  -6.886  -9.138  0.00  0.00    +0.166 C 
ATOM      5  H   UNL     1       1.007  -8.549  -9.769  0.00  0.00    +0.163 HD
ATOM      6  H   UNL     1       0.450  -6.162  -7.260  0.00  0.00    +0.159 HD
ATOM      7  H   UNL     1       1.303  -7.599  -7.681  0.00  0.00    +0.159 HD
ATOM      8  H   UNL     1      -1.330  -5.857 -10.289  0.00  0.00    +0.159 HD
ATOM      9  H   UNL     1      -1.039  -5.178  -8.735  0.00  0.00    +0.159 HD
ENDROOT
BRANCH   1  10
ATOM     10  C   UNL     1      -0.335  -7.986 -11.324  0.00  0.00    +0.151 C 
BRANCH  10  11
ATOM     11  C   UNL     1       0.717  -8.204 -12.375  0.00  0.00    -0.028 A 
ATOM     12  C   UNL     1       1.979  -7.604 -12.255  0.00  0.00    +0.005 A 
ATOM     13  C   UNL     1       0.461  -9.015 -13.492  0.00  0.00    +0.005 A 
ATOM     14  C   UNL     1       2.968  -7.831 -13.216  0.00  0.00    +0.000 A 
ATOM     15  C   UNL     1       1.450  -9.239 -14.449  0.00  0.00    +0.000 A 
ATOM     16  C   UNL     1       2.704  -8.648 -14.310  0.00  0.00    +0.000 A 
ENDBRANCH  10  11
ENDBRANCH   1  10
TORSDOF 2
ENDMDL
MODEL 8
REMARK VINA RESULT:    -5.218      3.456      4.295
REMARK INTER + INTRA:          -5.962
REMARK INTER:                  -5.798
REMARK INTRA:                  -0.164
REMARK UNBOUND:                -0.134
REMARK  Name = 1550473
REMARK  2 active torsions:
REMARK  status: ('A' for Active; 'I' for Inactive)
REMARK    1  A    between atoms: N_1  and  C_4
REMARK    2  A    between atoms: C_4  and  C_5
REMARK                            x       y       z     vdW  Elec       q    Type
REMARK                         _______ _______ _______ _____ _____    ______ ____
ROOT
ATOM      1  N   UNL     1       0.289  -6.300 -10.663  0.00  0.00    -0.354 N 
ATOM      2  N   UNL     1       2.066  -7.336 -11.728  0.00  0.00    -0.372 N 
ATOM      3  N   UNL     1       0.003  -8.338 -11.785  0.00  0.00    -0.372 N 
ATOM      4  C   UNL     1       0.772  -7.320 -11.386  0.00  0.00    +0.166 C 
ATOM      5  H   UNL     1       0.930  -5.574 -10.366  0.00  0.00    +0.163 HD
ATOM      6  H   UNL     1       2.458  -8.090 -12.276  0.00  0.00    +0.159 HD
ATOM      7  H   UNL     1       2.695  -6.586 -11.469  0.00  0.00    +0.159 HD
ATOM      8  H   UNL     1      -0.981  -8.389 -11.554  0.00  0.00    +0.159 HD
ATOM      9  H   UNL     1       0.379  -9.108 -12.323  0.00  0.00    +0.159 HD
ENDROOT
BRANCH   1  10
ATOM     10  C   UNL     1      -1.116  -6.161 -10.284  0.00  0.00    +0.151 C 
BRANCH  10  11
ATOM     11  C   UNL     1      -1.285  -6.600  -8.855  0.00  0.00    -0.028 A 
ATOM     12  C   UNL     1      -0.289  -6.330  -7.905  0.00  0.00    +0.005 A 
ATOM     13  C   UNL     1      -2.441  -7.281  -8.444  0.00  0.00    +0.005 A 
ATOM     14  C   UNL     1      -0.458  -6.710  -6.572  0.00  0.00    +0.000 A 
ATOM     15  C   UNL     1      -2.606  -7.660  -7.112  0.00  0.00    +0.000 A 
ATOM     16  C   UNL     1      -1.616  -7.372  -6.176  0.00  0.00    +0.000 A 
ENDBRANCH  10  11
ENDBRANCH   1  10
TORSDOF 2
ENDMDL
MODEL 9
REMARK VINA RESULT:    -5.038      6.644     10.137
REMARK INTER + INTRA:          -5.761
REMARK INTER:                  -5.590
REMARK INTRA:                  -0.171
REMARK UNBOUND:                -0.134
REMARK  Name = 1550473
REMARK  2 active torsions:
REMARK  status: ('A' for Active; 'I' for Inactive)
REMARK    1  A    between atoms: N_1  and  C_4
REMARK    2  A    between atoms: C_4  and  C_5
REMARK                            x       y       z     vdW  Elec       q    Type
REMARK                         _______ _______ _______ _____ _____    ______ ____
ROOT
ATOM      1  N   UNL     1       1.658  -8.879 -11.729  0.00  0.00    -0.354 N 
ATOM      2  N   UNL     1       1.240  -7.781  -9.733  0.00  0.00    -0.372 N 
ATOM      3  N   UNL     1       1.103  -6.602 -11.697  0.00  0.00    -0.372 N 
ATOM      4  C   UNL     1       1.336  -7.759 -11.068  0.00  0.00    +0.166 C 
ATOM      5  H   UNL     1       1.852  -9.716 -11.192  0.00  0.00    +0.163 HD
ATOM      6  H   UNL     1       0.995  -6.952  -9.207  0.00  0.00    +0.159 HD
ATOM      7  H   UNL     1       1.390  -8.630  -9.202  0.00  0.00    +0.159 HD
ATOM      8  H   UNL     1       1.165  -6.517 -12.702  0.00  0.00    +0.159 HD
ATOM      9  H   UNL     1       0.869  -5.759 -11.187  0.00  0.00    +0.159 HD
ENDROOT
BRANCH   1  10
ATOM     10  C   UNL     1       1.737  -8.974 -13.185  0.00  0.00    +0.151 C 
BRANCH  10  11
ATOM     11  C   UNL     1       3.174  -9.150 -13.589  0.00  0.00    -0.028 A 
ATOM     12  C   UNL     1       3.676 -10.423 -13.898  0.00  0.00    +0.005 A 
ATOM     13  C   UNL     1       4.038  -8.047 -13.671  0.00  0.00    +0.005 A 
ATOM     14  C   UNL     1       5.004 -10.583 -14.303  0.00  0.00    +0.000 A 
ATOM     15  C   UNL     1       5.363  -8.211 -14.074  0.00  0.00    +0.000 A 
ATOM     16  C   UNL     1       5.845  -9.479 -14.392  0.00  0.00    +0.000 A 
ENDBRANCH  10  11
ENDBRANCH   1  10
TORSDOF 2
ENDMDL
