MODEL 1
REMARK VINA RESULT:    -5.123      0.000      0.000
REMARK INTER + INTRA:          -5.891
REMARK INTER:                  -5.722
REMARK INTRA:                  -0.169
REMARK UNBOUND:                -0.169
REMARK  Name = 1550473
REMARK  2 active torsions:
REMARK  status: ('A' for Active; 'I' for Inactive)
REMARK    1  A    between atoms: N_1  and  C_4
REMARK    2  A    between atoms: C_4  and  C_5
REMARK                            x       y       z     vdW  Elec       q    Type
REMARK                         _______ _______ _______ _____ _____    ______ ____
ROOT
ATOM      1  N   UNL     1      -4.800   6.273  -5.946  0.00  0.00    -0.354 N 
ATOM      2  N   UNL     1      -4.393   8.083  -4.558  0.00  0.00    -0.372 N 
ATOM      3  N   UNL     1      -3.037   6.238  -4.403  0.00  0.00    -0.372 N 
ATOM      4  C   UNL     1      -4.078   6.851  -4.977  0.00  0.00    +0.166 C 
ATOM      5  H   UNL     1      -5.596   6.779  -6.319  0.00  0.00    +0.163 HD
ATOM      6  H   UNL     1      -3.864   8.545  -3.832  0.00  0.00    +0.159 HD
ATOM      7  H   UNL     1      -5.161   8.603  -4.965  0.00  0.00    +0.159 HD
ATOM      8  H   UNL     1      -2.751   5.306  -4.670  0.00  0.00    +0.159 HD
ATOM      9  H   UNL     1      -2.502   6.681  -3.666  0.00  0.00    +0.159 HD
ENDROOT
BRANCH   1  10
ATOM     10  C   UNL     1      -4.507   4.958  -6.511  0.00  0.00    +0.151 C 
BRANCH  10  11
ATOM     11  C   UNL     1      -5.569   3.987  -6.073  0.00  0.00    -0.028 A 
ATOM     12  C   UNL     1      -6.833   3.993  -6.681  0.00  0.00    +0.005 A 
ATOM     13  C   UNL     1      -5.315   3.055  -5.055  0.00  0.00    +0.005 A 
ATOM     14  C   UNL     1      -7.810   3.071  -6.295  0.00  0.00    +0.000 A 
ATOM     15  C   UNL     1      -6.293   2.138  -4.672  0.00  0.00    +0.000 A 
ATOM     16  C   UNL     1      -7.539   2.144  -5.294  0.00  0.00    +0.000 A 
ENDBRANCH  10  11
ENDBRANCH   1  10
TORSDOF 2
ENDMDL
MODEL 2
REMARK VINA RESULT:    -5.054      2.279      3.368
REMARK INTER + INTRA:          -5.814
REMARK INTER:                  -5.649
REMARK INTRA:                  -0.165
REMARK UNBOUND:                -0.169
REMARK  Name = 1550473
REMARK  2 active torsions:
REMARK  status: ('A' for Active; 'I' for Inactive)
REMARK    1  A    between atoms: N_1  and  C_4
REMARK    2  A    between atoms: C_4  and  C_5
REMARK                            x       y       z     vdW  Elec       q    Type
REMARK                         _______ _______ _______ _____ _____    ______ ____
ROOT
ATOM      1  N   UNL     1      -4.085   4.452  -7.984  0.00  0.00    -0.354 N 
ATOM      2  N   UNL     1      -3.820   4.599 -10.280  0.00  0.00    -0.372 N 
ATOM      3  N   UNL     1      -5.149   6.137  -9.216  0.00  0.00    -0.372 N 
ATOM      4  C   UNL     1      -4.355   5.064  -9.144  0.00  0.00    +0.166 C 
ATOM      5  H   UNL     1      -3.500   3.624  -8.000  0.00  0.00    +0.163 HD
ATOM      6  H   UNL     1      -4.003   5.042 -11.170  0.00  0.00    +0.159 HD
ATOM      7  H   UNL     1      -3.198   3.799 -10.288  0.00  0.00    +0.159 HD
ATOM      8  H   UNL     1      -5.589   6.534  -8.396  0.00  0.00    +0.159 HD
ATOM      9  H   UNL     1      -5.353   6.588 -10.099  0.00  0.00    +0.159 HD
ENDROOT
BRANCH   1  10
ATOM     10  C   UNL     1      -4.574   4.910  -6.684  0.00  0.00    +0.151 C 
BRANCH  10  11
ATOM     11  C   UNL     1      -5.603   3.938  -6.176  0.00  0.00    -0.028 A 
ATOM     12  C   UNL     1      -5.281   3.027  -5.160  0.00  0.00    +0.005 A 
ATOM     13  C   UNL     1      -6.904   3.927  -6.703  0.00  0.00    +0.005 A 
ATOM     14  C   UNL     1      -6.246   2.145  -4.666  0.00  0.00    +0.000 A 
ATOM     15  C   UNL     1      -7.863   3.044  -6.209  0.00  0.00    +0.000 A 
ATOM     16  C   UNL     1      -7.535   2.155  -5.189  0.00  0.00    +0.000 A 
ENDBRANCH  10  11
ENDBRANCH   1  10
TORSDOF 2
ENDMDL
MODEL 3
REMARK VINA RESULT:    -4.884      2.928      4.628
REMARK INTER + INTRA:          -5.625
REMARK INTER:                  -5.486
REMARK INTRA:                  -0.138
REMARK UNBOUND:                -0.169
REMARK  Name = 1550473
REMARK  2 active torsions:
REMARK  status: ('A' for Active; 'I' for Inactive)
REMARK    1  A    between atoms: N_1  and  C_4
REMARK    2  A    between atoms: C_4  and  C_5
REMARK                            x       y       z     vdW  Elec       q    Type
REMARK                         _______ _______ _______ _____ _____    ______ ____
ROOT
ATOM      1  N   UNL     1      -6.165   3.674  -6.070  0.00  0.00    -0.354 N 
ATOM      2  N   UNL     1      -6.079   1.803  -4.707  0.00  0.00    -0.372 N 
ATOM      3  N   UNL     1      -5.107   3.750  -3.980  0.00  0.00    -0.372 N 
ATOM      4  C   UNL     1      -5.783   3.090  -4.926  0.00  0.00    +0.166 C 
ATOM      5  H   UNL     1      -6.648   3.111  -6.760  0.00  0.00    +0.163 HD
ATOM      6  H   UNL     1      -5.807   1.336  -3.853  0.00  0.00    +0.159 HD
ATOM      7  H   UNL     1      -6.602   1.255  -5.379  0.00  0.00    +0.159 HD
ATOM      8  H   UNL     1      -4.848   4.722  -4.087  0.00  0.00    +0.159 HD
ATOM      9  H   UNL     1      -4.816   3.297  -3.123  0.00  0.00    +0.159 HD
ENDROOT
BRANCH   1  10
ATOM     10  C   UNL     1      -5.940   5.084  -6.383  0.00  0.00    +0.151 C 
BRANCH  10  11
ATOM     11  C   UNL     1      -5.305   5.190  -7.742  0.00  0.00    -0.028 A 
ATOM     12  C   UNL     1      -4.534   4.135  -8.252  0.00  0.00    +0.005 A 
ATOM     13  C   UNL     1      -5.474   6.340  -8.527  0.00  0.00    +0.005 A 
ATOM     14  C   UNL     1      -3.969   4.220  -9.526  0.00  0.00    +0.000 A 
ATOM     15  C   UNL     1      -4.908   6.422  -9.799  0.00  0.00    +0.000 A 
ATOM     16  C   UNL     1      -4.157   5.361 -10.299  0.00  0.00    +0.000 A 
ENDBRANCH  10  11
ENDBRANCH   1  10
TORSDOF 2
ENDMDL
MODEL 4
REMARK VINA RESULT:    -4.795     20.702     22.175
REMARK INTER + INTRA:          -5.525
REMARK INTER:                  -5.381
REMARK INTRA:                  -0.144
REMARK UNBOUND:                -0.169
REMARK  Name = 1550473
REMARK  2 active torsions:
REMARK  status: ('A' for Active; 'I' for Inactive)
REMARK    1  A    between atoms: N_1  and  C_4
REMARK    2  A    between atoms: C_4  and  C_5
REMARK                            x       y       z     vdW  Elec       q    Type
REMARK                         _______ _______ _______ _____ _____    ______ ____
ROOT
ATOM      1  N   UNL     1      -7.824 -16.025  -0.697  0.00  0.00    -0.354 N 
ATOM      2  N   UNL     1      -7.191 -17.199  -2.590  0.00  0.00    -0.372 N 
ATOM      3  N   UNL     1      -5.875 -15.463  -1.869  0.00  0.00    -0.372 N 
ATOM      4  C   UNL     1      -6.965 -16.219  -1.706  0.00  0.00    +0.166 C 
ATOM      5  H   UNL     1      -8.648 -16.613  -0.646  0.00  0.00    +0.163 HD
ATOM      6  H   UNL     1      -6.558 -17.372  -3.360  0.00  0.00    +0.159 HD
ATOM      7  H   UNL     1      -7.991 -17.815  -2.510  0.00  0.00    +0.159 HD
ATOM      8  H   UNL     1      -5.651 -14.703  -1.240  0.00  0.00    +0.159 HD
ATOM      9  H   UNL     1      -5.236 -15.613  -2.640  0.00  0.00    +0.159 HD
ENDROOT
BRANCH   1  10
ATOM     10  C   UNL     1      -7.643 -15.021   0.350  0.00  0.00    +0.151 C 
BRANCH  10  11
ATOM     11  C   UNL     1      -7.725 -15.691   1.694  0.00  0.00    -0.028 A 
ATOM     12  C   UNL     1      -6.807 -16.690   2.048  0.00  0.00    +0.005 A 
ATOM     13  C   UNL     1      -8.716 -15.327   2.619  0.00  0.00    +0.005 A 
ATOM     14  C   UNL     1      -6.865 -17.292   3.308  0.00  0.00    +0.000 A 
ATOM     15  C   UNL     1      -8.771 -15.931   3.875  0.00  0.00    +0.000 A 
ATOM     16  C   UNL     1      -7.844 -16.911   4.220  0.00  0.00    +0.000 A 
ENDBRANCH  10  11
ENDBRANCH   1  10
TORSDOF 2
ENDMDL
MODEL 5
REMARK VINA RESULT:    -4.757      2.310      3.150
REMARK INTER + INTRA:          -5.483
REMARK INTER:                  -5.321
REMARK INTRA:                  -0.162
REMARK UNBOUND:                -0.169
REMARK  Name = 1550473
REMARK  2 active torsions:
REMARK  status: ('A' for Active; 'I' for Inactive)
REMARK    1  A    between atoms: N_1  and  C_4
REMARK    2  A    between atoms: C_4  and  C_5
REMARK                            x       y       z     vdW  Elec       q    Type
REMARK                         _______ _______ _______ _____ _____    ______ ____
ROOT
ATOM      1  N   UNL     1      -4.754   4.846  -6.867  0.00  0.00    -0.354 N 
ATOM      2  N   UNL     1      -4.092   3.739  -8.790  0.00  0.00    -0.372 N 
ATOM      3  N   UNL     1      -2.966   3.332  -6.832  0.00  0.00    -0.372 N 
ATOM      4  C   UNL     1      -3.940   3.979  -7.482  0.00  0.00    +0.166 C 
ATOM      5  H   UNL     1      -5.453   5.327  -7.421  0.00  0.00    +0.163 HD
ATOM      6  H   UNL     1      -3.494   3.087  -9.281  0.00  0.00    +0.159 HD
ATOM      7  H   UNL     1      -4.821   4.186  -9.332  0.00  0.00    +0.159 HD
ATOM      8  H   UNL     1      -2.795   3.473  -5.846  0.00  0.00    +0.159 HD
ATOM      9  H   UNL     1      -2.350   2.684  -7.308  0.00  0.00    +0.159 HD
ENDROOT
BRANCH   1  10
ATOM     10  C   UNL     1      -4.707   5.138  -5.435  0.00  0.00    +0.151 C 
BRANCH  10  11
ATOM     11  C   UNL     1      -5.890   4.497  -4.764  0.00  0.00    -0.028 A 
ATOM     12  C   UNL     1      -5.887   3.125  -4.472  0.00  0.00    +0.005 A 
ATOM     13  C   UNL     1      -7.016   5.257  -4.412  0.00  0.00    +0.005 A 
ATOM     14  C   UNL     1      -6.973   2.535  -3.822  0.00  0.00    +0.000 A 
ATOM     15  C   UNL     1      -8.099   4.664  -3.764  0.00  0.00    +0.000 A 
ATOM     16  C   UNL     1      -8.076   3.303  -3.467  0.00  0.00    +0.000 A 
ENDBRANCH  10  11
ENDBRANCH   1  10
TORSDOF 2
ENDMDL
MODEL 6
REMARK VINA RESULT:    -4.711     21.449     22.816
REMARK INTER + INTRA:          -5.431
REMARK INTER:                  -5.300
REMARK INTRA:                  -0.131
REMARK UNBOUND:                -0.169
REMARK  Name = 1550473
REMARK  2 active torsions:
REMARK  status: ('A' for Active; 'I' for Inactive)
REMARK    1  A    between atoms: N_1  and  C_4
REMARK    2  A    between atoms: C_4  and  C_5
REMARK                            x       y       z     vdW  Elec       q    Type
REMARK                         _______ _______ _______ _____ _____    ______ ____
ROOT
ATOM      1  N   UNL     1       4.282 -13.984   0.800  0.00  0.00    -0.354 N 
ATOM      2  N   UNL     1       2.733 -14.815   2.309  0.00  0.00    -0.372 N 
ATOM      3  N   UNL     1       3.448 -12.647   2.535  0.00  0.00    -0.372 N 
ATOM      4  C   UNL     1       3.498 -13.807   1.873  0.00  0.00    +0.166 C 
ATOM      5  H   UNL     1       4.297 -14.897   0.361  0.00  0.00    +0.163 HD
ATOM      6  H   UNL     1       2.129 -14.710   3.113  0.00  0.00    +0.159 HD
ATOM      7  H   UNL     1       2.716 -15.713   1.840  0.00  0.00    +0.159 HD
ATOM      8  H   UNL     1       4.006 -11.849   2.260  0.00  0.00    +0.159 HD
ATOM      9  H   UNL     1       2.859 -12.526   3.349  0.00  0.00    +0.159 HD
ENDROOT
BRANCH   1  10
ATOM     10  C   UNL     1       5.112 -12.935   0.213  0.00  0.00    +0.151 C 
BRANCH  10  11
ATOM     11  C   UNL     1       6.352 -13.557  -0.368  0.00  0.00    -0.028 A 
ATOM     12  C   UNL     1       6.483 -14.952  -0.438  0.00  0.00    +0.005 A 
ATOM     13  C   UNL     1       7.397 -12.757  -0.856  0.00  0.00    +0.005 A 
ATOM     14  C   UNL     1       7.621 -15.530  -1.005  0.00  0.00    +0.000 A 
ATOM     15  C   UNL     1       8.532 -13.339  -1.421  0.00  0.00    +0.000 A 
ATOM     16  C   UNL     1       8.643 -14.725  -1.497  0.00  0.00    +0.000 A 
ENDBRANCH  10  11
ENDBRANCH   1  10
TORSDOF 2
ENDMDL
MODEL 7
REMARK VINA RESULT:    -4.647      2.862      4.341
REMARK INTER + INTRA:          -5.359
REMARK INTER:                  -5.218
REMARK INTRA:                  -0.141
REMARK UNBOUND:                -0.169
REMARK  Name = 1550473
REMARK  2 active torsions:
REMARK  status: ('A' for Active; 'I' for Inactive)
REMARK    1  A    between atoms: N_1  and  C_4
REMARK    2  A    between atoms: C_4  and  C_5
REMARK                            x       y       z     vdW  Elec       q    Type
REMARK                         _______ _______ _______ _____ _____    ______ ____
ROOT
ATOM      1  N   UNL     1      -6.025   3.919  -5.034  0.00  0.00    -0.354 N 
ATOM      2  N   UNL     1      -7.941   3.319  -3.880  0.00  0.00    -0.372 N 
ATOM      3  N   UNL     1      -6.473   1.677  -4.521  0.00  0.00    -0.372 N 
ATOM      4  C   UNL     1      -6.800   2.973  -4.486  0.00  0.00    +0.166 C 
ATOM      5  H   UNL     1      -6.343   4.881  -5.000  0.00  0.00    +0.163 HD
ATOM      6  H   UNL     1      -8.545   2.628  -3.454  0.00  0.00    +0.159 HD
ATOM      7  H   UNL     1      -8.235   4.286  -3.807  0.00  0.00    +0.159 HD
ATOM      8  H   UNL     1      -5.627   1.349  -4.968  0.00  0.00    +0.159 HD
ATOM      9  H   UNL     1      -7.069   0.969  -4.111  0.00  0.00    +0.159 HD
ENDROOT
BRANCH   1  10
ATOM     10  C   UNL     1      -4.736   3.653  -5.670  0.00  0.00    +0.151 C 
BRANCH  10  11
ATOM     11  C   UNL     1      -4.726   4.278  -7.038  0.00  0.00    -0.028 A 
ATOM     12  C   UNL     1      -5.612   5.319  -7.352  0.00  0.00    +0.005 A 
ATOM     13  C   UNL     1      -3.828   3.837  -8.023  0.00  0.00    +0.005 A 
ATOM     14  C   UNL     1      -5.582   5.919  -8.613  0.00  0.00    +0.000 A 
ATOM     15  C   UNL     1      -3.802   4.439  -9.281  0.00  0.00    +0.000 A 
ATOM     16  C   UNL     1      -4.678   5.482  -9.575  0.00  0.00    +0.000 A 
ENDBRANCH  10  11
ENDBRANCH   1  10
TORSDOF 2
ENDMDL
MODEL 8
REMARK VINA RESULT:    -4.562     21.713     22.583
REMARK INTER + INTRA:          -5.264
REMARK INTER:                  -5.146
REMARK INTRA:                  -0.119
REMARK UNBOUND:                -0.169
REMARK  Name = 1550473
REMARK  2 active torsions:
REMARK  status: ('A' for Active; 'I' for Inactive)
REMARK    1  A    between atoms: N_1  and  C_4
REMARK    2  A    between atoms: C_4  and  C_5
REMARK                            x       y       z     vdW  Elec       q    Type
REMARK                         _______ _______ _______ _____ _____    ______ ____
ROOT
ATOM      1  N   UNL     1       4.308 -13.314   1.248  0.00  0.00    -0.354 N 
ATOM      2  N   UNL     1       2.586 -12.936   2.750  0.00  0.00    -0.372 N 
ATOM      3  N   UNL     1       3.243 -15.095   2.336  0.00  0.00    -0.372 N 
ATOM      4  C   UNL     1       3.390 -13.787   2.101  0.00  0.00    +0.166 C 
ATOM      5  H   UNL     1       4.349 -12.313   1.091  0.00  0.00    +0.163 HD
ATOM      6  H   UNL     1       1.887 -13.263   3.402  0.00  0.00    +0.159 HD
ATOM      7  H   UNL     1       2.660 -11.934   2.626  0.00  0.00    +0.159 HD
ATOM      8  H   UNL     1       3.815 -15.790   1.874  0.00  0.00    +0.159 HD
ATOM      9  H   UNL     1       2.541 -15.443   2.976  0.00  0.00    +0.159 HD
ENDROOT
BRANCH   1  10
ATOM     10  C   UNL     1       5.268 -14.152   0.532  0.00  0.00    +0.151 C 
BRANCH  10  11
ATOM     11  C   UNL     1       6.548 -13.384   0.345  0.00  0.00    -0.028 A 
ATOM     12  C   UNL     1       7.246 -12.883   1.454  0.00  0.00    +0.005 A 
ATOM     13  C   UNL     1       7.070 -13.159  -0.938  0.00  0.00    +0.005 A 
ATOM     14  C   UNL     1       8.450 -12.195   1.282  0.00  0.00    +0.000 A 
ATOM     15  C   UNL     1       8.272 -12.471  -1.105  0.00  0.00    +0.000 A 
ATOM     16  C   UNL     1       8.963 -11.991   0.006  0.00  0.00    +0.000 A 
ENDBRANCH  10  11
ENDBRANCH   1  10
TORSDOF 2
ENDMDL
MODEL 9
REMARK VINA RESULT:    -4.552      2.323      2.831
REMARK INTER + INTRA:          -5.253
REMARK INTER:                  -5.316
REMARK INTRA:                   0.063
REMARK UNBOUND:                -0.169
REMARK  Name = 1550473
REMARK  2 active torsions:
REMARK  status: ('A' for Active; 'I' for Inactive)
REMARK    1  A    between atoms: N_1  and  C_4
REMARK    2  A    between atoms: C_4  and  C_5
REMARK                            x       y       z     vdW  Elec       q    Type
REMARK                         _______ _______ _______ _____ _____    ______ ____
ROOT
ATOM      1  N   UNL     1      -5.162   4.001  -6.855  0.00  0.00    -0.354 N 
ATOM      2  N   UNL     1      -2.996   3.350  -6.356  0.00  0.00    -0.372 N 
ATOM      3  N   UNL     1      -3.838   5.246  -5.375  0.00  0.00    -0.372 N 
ATOM      4  C   UNL     1      -4.013   4.206  -6.197  0.00  0.00    +0.166 C 
ATOM      5  H   UNL     1      -5.220   3.210  -7.486  0.00  0.00    +0.163 HD
ATOM      6  H   UNL     1      -2.118   3.477  -5.870  0.00  0.00    +0.159 HD
ATOM      7  H   UNL     1      -3.073   2.535  -6.952  0.00  0.00    +0.159 HD
ATOM      8  H   UNL     1      -4.565   5.931  -5.217  0.00  0.00    +0.159 HD
ATOM      9  H   UNL     1      -2.963   5.397  -4.889  0.00  0.00    +0.159 HD
ENDROOT
BRANCH   1  10
ATOM     10  C   UNL     1      -6.348   4.843  -6.710  0.00  0.00    +0.151 C 
BRANCH  10  11
ATOM     11  C   UNL     1      -7.002   4.547  -5.389  0.00  0.00    -0.028 A 
ATOM     12  C   UNL     1      -7.547   5.584  -4.617  0.00  0.00    +0.005 A 
ATOM     13  C   UNL     1      -7.086   3.232  -4.906  0.00  0.00    +0.005 A 
ATOM     14  C   UNL     1      -8.182   5.306  -3.404  0.00  0.00    +0.000 A 
ATOM     15  C   UNL     1      -7.719   2.959  -3.694  0.00  0.00    +0.000 A 
ATOM     16  C   UNL     1      -8.269   3.996  -2.944  0.00  0.00    +0.000 A 
ENDBRANCH  10  11
ENDBRANCH   1  10
TORSDOF 2
ENDMDL
