MODEL 1
REMARK VINA RESULT:    -5.429      0.000      0.000
REMARK INTER + INTRA:          -6.219
REMARK INTER:                  -6.063
REMARK INTRA:                  -0.156
REMARK UNBOUND:                -0.156
REMARK  Name = 1550473
REMARK  2 active torsions:
REMARK  status: ('A' for Active; 'I' for Inactive)
REMARK    1  A    between atoms: N_1  and  C_4
REMARK    2  A    between atoms: C_4  and  C_5
REMARK                            x       y       z     vdW  Elec       q    Type
REMARK                         _______ _______ _______ _____ _____    ______ ____
ROOT
ATOM      1  N   UNL     1      -4.042   2.374  -3.491  0.00  0.00    -0.354 N 
ATOM      2  N   UNL     1      -2.837   2.184  -1.522  0.00  0.00    -0.372 N 
ATOM      3  N   UNL     1      -3.363   0.279  -2.688  0.00  0.00    -0.372 N 
ATOM      4  C   UNL     1      -3.422   1.611  -2.580  0.00  0.00    +0.166 C 
ATOM      5  H   UNL     1      -4.078   3.375  -3.336  0.00  0.00    +0.163 HD
ATOM      6  H   UNL     1      -2.359   1.634  -0.820  0.00  0.00    +0.159 HD
ATOM      7  H   UNL     1      -2.835   3.188  -1.393  0.00  0.00    +0.159 HD
ATOM      8  H   UNL     1      -3.790  -0.215  -3.460  0.00  0.00    +0.159 HD
ATOM      9  H   UNL     1      -2.899  -0.289  -1.990  0.00  0.00    +0.159 HD
ENDROOT
BRANCH   1  10
ATOM     10  C   UNL     1      -4.664   1.853  -4.707  0.00  0.00    +0.151 C 
BRANCH  10  11
ATOM     11  C   UNL     1      -3.969   2.441  -5.904  0.00  0.00    -0.028 A 
ATOM     12  C   UNL     1      -4.509   3.553  -6.566  0.00  0.00    +0.005 A 
ATOM     13  C   UNL     1      -2.766   1.894  -6.378  0.00  0.00    +0.005 A 
ATOM     14  C   UNL     1      -3.849   4.117  -7.660  0.00  0.00    +0.000 A 
ATOM     15  C   UNL     1      -2.110   2.460  -7.471  0.00  0.00    +0.000 A 
ATOM     16  C   UNL     1      -2.650   3.573  -8.110  0.00  0.00    +0.000 A 
ENDBRANCH  10  11
ENDBRANCH   1  10
TORSDOF 2
ENDMDL
MODEL 2
REMARK VINA RESULT:    -5.337      5.018      6.724
REMARK INTER + INTRA:          -6.117
REMARK INTER:                  -5.986
REMARK INTRA:                  -0.131
REMARK UNBOUND:                -0.156
REMARK  Name = 1550473
REMARK  2 active torsions:
REMARK  status: ('A' for Active; 'I' for Inactive)
REMARK    1  A    between atoms: N_1  and  C_4
REMARK    2  A    between atoms: C_4  and  C_5
REMARK                            x       y       z     vdW  Elec       q    Type
REMARK                         _______ _______ _______ _____ _____    ______ ____
ROOT
ATOM      1  N   UNL     1      -5.203   4.968 -10.534  0.00  0.00    -0.354 N 
ATOM      2  N   UNL     1      -7.216   4.574 -11.608  0.00  0.00    -0.372 N 
ATOM      3  N   UNL     1      -5.263   4.315 -12.784  0.00  0.00    -0.372 N 
ATOM      4  C   UNL     1      -5.879   4.621 -11.637  0.00  0.00    +0.166 C 
ATOM      5  H   UNL     1      -5.730   5.218  -9.705  0.00  0.00    +0.163 HD
ATOM      6  H   UNL     1      -7.754   4.312 -12.423  0.00  0.00    +0.159 HD
ATOM      7  H   UNL     1      -7.739   4.779 -10.765  0.00  0.00    +0.159 HD
ATOM      8  H   UNL     1      -4.256   4.338 -12.873  0.00  0.00    +0.159 HD
ATOM      9  H   UNL     1      -5.784   4.062 -13.614  0.00  0.00    +0.159 HD
ENDROOT
BRANCH   1  10
ATOM     10  C   UNL     1      -3.744   4.999 -10.445  0.00  0.00    +0.151 C 
BRANCH  10  11
ATOM     11  C   UNL     1      -3.319   4.387  -9.139  0.00  0.00    -0.028 A 
ATOM     12  C   UNL     1      -2.040   3.829  -8.997  0.00  0.00    +0.005 A 
ATOM     13  C   UNL     1      -4.188   4.366  -8.037  0.00  0.00    +0.005 A 
ATOM     14  C   UNL     1      -1.633   3.287  -7.776  0.00  0.00    +0.000 A 
ATOM     15  C   UNL     1      -3.779   3.823  -6.820  0.00  0.00    +0.000 A 
ATOM     16  C   UNL     1      -2.500   3.286  -6.688  0.00  0.00    +0.000 A 
ENDBRANCH  10  11
ENDBRANCH   1  10
TORSDOF 2
ENDMDL
MODEL 3
REMARK VINA RESULT:    -4.957      8.150      9.494
REMARK INTER + INTRA:          -5.692
REMARK INTER:                  -5.542
REMARK INTRA:                  -0.150
REMARK UNBOUND:                -0.156
REMARK  Name = 1550473
REMARK  2 active torsions:
REMARK  status: ('A' for Active; 'I' for Inactive)
REMARK    1  A    between atoms: N_1  and  C_4
REMARK    2  A    between atoms: C_4  and  C_5
REMARK                            x       y       z     vdW  Elec       q    Type
REMARK                         _______ _______ _______ _____ _____    ______ ____
ROOT
ATOM      1  N   UNL     1      -5.380   5.169 -11.982  0.00  0.00    -0.354 N 
ATOM      2  N   UNL     1      -6.604   3.237 -12.346  0.00  0.00    -0.372 N 
ATOM      3  N   UNL     1      -7.722   5.194 -11.914  0.00  0.00    -0.372 N 
ATOM      4  C   UNL     1      -6.563   4.548 -12.078  0.00  0.00    +0.166 C 
ATOM      5  H   UNL     1      -4.536   4.617 -12.087  0.00  0.00    +0.163 HD
ATOM      6  H   UNL     1      -7.482   2.742 -12.428  0.00  0.00    +0.159 HD
ATOM      7  H   UNL     1      -5.761   2.697 -12.496  0.00  0.00    +0.159 HD
ATOM      8  H   UNL     1      -7.759   6.182 -11.704  0.00  0.00    +0.159 HD
ATOM      9  H   UNL     1      -8.611   4.713 -11.980  0.00  0.00    +0.159 HD
ENDROOT
BRANCH   1  10
ATOM     10  C   UNL     1      -5.226   6.603 -11.746  0.00  0.00    +0.151 C 
BRANCH  10  11
ATOM     11  C   UNL     1      -4.612   7.238 -12.963  0.00  0.00    -0.028 A 
ATOM     12  C   UNL     1      -3.587   6.587 -13.665  0.00  0.00    +0.005 A 
ATOM     13  C   UNL     1      -5.054   8.488 -13.423  0.00  0.00    +0.005 A 
ATOM     14  C   UNL     1      -3.037   7.163 -14.813  0.00  0.00    +0.000 A 
ATOM     15  C   UNL     1      -4.502   9.060 -14.569  0.00  0.00    +0.000 A 
ATOM     16  C   UNL     1      -3.495   8.396 -15.265  0.00  0.00    +0.000 A 
ENDBRANCH  10  11
ENDBRANCH   1  10
TORSDOF 2
ENDMDL
MODEL 4
REMARK VINA RESULT:    -4.812     21.907     22.929
REMARK INTER + INTRA:          -5.530
REMARK INTER:                  -5.392
REMARK INTRA:                  -0.139
REMARK UNBOUND:                -0.156
REMARK  Name = 1550473
REMARK  2 active torsions:
REMARK  status: ('A' for Active; 'I' for Inactive)
REMARK    1  A    between atoms: N_1  and  C_4
REMARK    2  A    between atoms: C_4  and  C_5
REMARK                            x       y       z     vdW  Elec       q    Type
REMARK                         _______ _______ _______ _____ _____    ______ ____
ROOT
ATOM      1  N   UNL     1      17.072   8.068  -1.101  0.00  0.00    -0.354 N 
ATOM      2  N   UNL     1      15.025   8.141  -2.183  0.00  0.00    -0.372 N 
ATOM      3  N   UNL     1      15.453   9.659  -0.516  0.00  0.00    -0.372 N 
ATOM      4  C   UNL     1      15.863   8.624  -1.258  0.00  0.00    +0.166 C 
ATOM      5  H   UNL     1      17.311   7.267  -1.674  0.00  0.00    +0.163 HD
ATOM      6  H   UNL     1      14.108   8.542  -2.326  0.00  0.00    +0.159 HD
ATOM      7  H   UNL     1      15.285   7.369  -2.786  0.00  0.00    +0.159 HD
ATOM      8  H   UNL     1      16.036  10.066   0.203  0.00  0.00    +0.159 HD
ATOM      9  H   UNL     1      14.535  10.067  -0.637  0.00  0.00    +0.159 HD
ENDROOT
BRANCH   1  10
ATOM     10  C   UNL     1      18.079   8.553  -0.159  0.00  0.00    +0.151 C 
BRANCH  10  11
ATOM     11  C   UNL     1      18.446   7.441   0.784  0.00  0.00    -0.028 A 
ATOM     12  C   UNL     1      19.789   7.191   1.103  0.00  0.00    +0.005 A 
ATOM     13  C   UNL     1      17.455   6.636   1.366  0.00  0.00    +0.005 A 
ATOM     14  C   UNL     1      20.128   6.178   2.002  0.00  0.00    +0.000 A 
ATOM     15  C   UNL     1      17.798   5.624   2.262  0.00  0.00    +0.000 A 
ATOM     16  C   UNL     1      19.134   5.397   2.582  0.00  0.00    +0.000 A 
ENDBRANCH  10  11
ENDBRANCH   1  10
TORSDOF 2
ENDMDL
MODEL 5
REMARK VINA RESULT:    -4.654     15.665     16.690
REMARK INTER + INTRA:          -5.354
REMARK INTER:                  -5.234
REMARK INTRA:                  -0.120
REMARK UNBOUND:                -0.156
REMARK  Name = 1550473
REMARK  2 active torsions:
REMARK  status: ('A' for Active; 'I' for Inactive)
REMARK    1  A    between atoms: N_1  and  C_4
REMARK    2  A    between atoms: C_4  and  C_5
REMARK                            x       y       z     vdW  Elec       q    Type
REMARK                         _______ _______ _______ _____ _____    ______ ____
ROOT
ATOM      1  N   UNL     1      -3.573 -13.535  -9.104  0.00  0.00    -0.354 N 
ATOM      2  N   UNL     1      -1.377 -13.090  -9.691  0.00  0.00    -0.372 N 
ATOM      3  N   UNL     1      -2.145 -15.248  -9.826  0.00  0.00    -0.372 N 
ATOM      4  C   UNL     1      -2.379 -13.963  -9.537  0.00  0.00    +0.166 C 
ATOM      5  H   UNL     1      -3.677 -12.554  -8.873  0.00  0.00    +0.163 HD
ATOM      6  H   UNL     1      -0.467 -13.383 -10.019  0.00  0.00    +0.159 HD
ATOM      7  H   UNL     1      -1.498 -12.102  -9.503  0.00  0.00    +0.159 HD
ATOM      8  H   UNL     1      -2.858 -15.958  -9.725  0.00  0.00    +0.159 HD
ATOM      9  H   UNL     1      -1.237 -15.562 -10.145  0.00  0.00    +0.159 HD
ENDROOT
BRANCH   1  10
ATOM     10  C   UNL     1      -4.745 -14.396  -8.953  0.00  0.00    +0.151 C 
BRANCH  10  11
ATOM     11  C   UNL     1      -5.948 -13.542  -8.662  0.00  0.00    -0.028 A 
ATOM     12  C   UNL     1      -5.998 -12.210  -9.100  0.00  0.00    +0.005 A 
ATOM     13  C   UNL     1      -7.042 -14.060  -7.953  0.00  0.00    +0.005 A 
ATOM     14  C   UNL     1      -7.127 -11.425  -8.855  0.00  0.00    +0.000 A 
ATOM     15  C   UNL     1      -8.168 -13.272  -7.710  0.00  0.00    +0.000 A 
ATOM     16  C   UNL     1      -8.211 -11.956  -8.163  0.00  0.00    +0.000 A 
ENDBRANCH  10  11
ENDBRANCH   1  10
TORSDOF 2
ENDMDL
MODEL 6
REMARK VINA RESULT:    -4.649      2.564      3.298
REMARK INTER + INTRA:          -5.348
REMARK INTER:                  -5.269
REMARK INTRA:                  -0.079
REMARK UNBOUND:                -0.156
REMARK  Name = 1550473
REMARK  2 active torsions:
REMARK  status: ('A' for Active; 'I' for Inactive)
REMARK    1  A    between atoms: N_1  and  C_4
REMARK    2  A    between atoms: C_4  and  C_5
REMARK                            x       y       z     vdW  Elec       q    Type
REMARK                         _______ _______ _______ _____ _____    ______ ____
ROOT
ATOM      1  N   UNL     1      -5.461   3.167  -5.951  0.00  0.00    -0.354 N 
ATOM      2  N   UNL     1      -6.992   4.903  -6.031  0.00  0.00    -0.372 N 
ATOM      3  N   UNL     1      -5.249   5.029  -4.544  0.00  0.00    -0.372 N 
ATOM      4  C   UNL     1      -5.889   4.356  -5.506  0.00  0.00    +0.166 C 
ATOM      5  H   UNL     1      -6.008   2.693  -6.661  0.00  0.00    +0.163 HD
ATOM      6  H   UNL     1      -7.337   5.800  -5.718  0.00  0.00    +0.159 HD
ATOM      7  H   UNL     1      -7.510   4.449  -6.773  0.00  0.00    +0.159 HD
ATOM      8  H   UNL     1      -4.413   4.668  -4.103  0.00  0.00    +0.159 HD
ATOM      9  H   UNL     1      -5.585   5.923  -4.209  0.00  0.00    +0.159 HD
ENDROOT
BRANCH   1  10
ATOM     10  C   UNL     1      -4.242   2.509  -5.484  0.00  0.00    +0.151 C 
BRANCH  10  11
ATOM     11  C   UNL     1      -3.223   2.521  -6.590  0.00  0.00    -0.028 A 
ATOM     12  C   UNL     1      -3.069   3.652  -7.404  0.00  0.00    +0.005 A 
ATOM     13  C   UNL     1      -2.404   1.405  -6.825  0.00  0.00    +0.005 A 
ATOM     14  C   UNL     1      -2.102   3.674  -8.412  0.00  0.00    +0.000 A 
ATOM     15  C   UNL     1      -1.441   1.431  -7.833  0.00  0.00    +0.000 A 
ATOM     16  C   UNL     1      -1.288   2.566  -8.625  0.00  0.00    +0.000 A 
ENDBRANCH  10  11
ENDBRANCH   1  10
TORSDOF 2
ENDMDL
MODEL 7
REMARK VINA RESULT:    -4.638     25.000     27.832
REMARK INTER + INTRA:          -5.336
REMARK INTER:                  -5.169
REMARK INTRA:                  -0.167
REMARK UNBOUND:                -0.156
REMARK  Name = 1550473
REMARK  2 active torsions:
REMARK  status: ('A' for Active; 'I' for Inactive)
REMARK    1  A    between atoms: N_1  and  C_4
REMARK    2  A    between atoms: C_4  and  C_5
REMARK                            x       y       z     vdW  Elec       q    Type
REMARK                         _______ _______ _______ _____ _____    ______ ____
ROOT
ATOM      1  N   UNL     1      -3.065   5.240  20.781  0.00  0.00    -0.354 N 
ATOM      2  N   UNL     1      -1.682   5.235  18.923  0.00  0.00    -0.372 N 
ATOM      3  N   UNL     1      -3.295   6.858  19.101  0.00  0.00    -0.372 N 
ATOM      4  C   UNL     1      -2.691   5.780  19.613  0.00  0.00    +0.166 C 
ATOM      5  H   UNL     1      -2.587   4.405  21.100  0.00  0.00    +0.163 HD
ATOM      6  H   UNL     1      -1.375   5.623  18.041  0.00  0.00    +0.159 HD
ATOM      7  H   UNL     1      -1.176   4.428  19.267  0.00  0.00    +0.159 HD
ATOM      8  H   UNL     1      -4.067   7.313  19.570  0.00  0.00    +0.159 HD
ATOM      9  H   UNL     1      -3.010   7.253  18.214  0.00  0.00    +0.159 HD
ENDROOT
BRANCH   1  10
ATOM     10  C   UNL     1      -4.117   5.788  21.636  0.00  0.00    +0.151 C 
BRANCH  10  11
ATOM     11  C   UNL     1      -3.504   6.759  22.607  0.00  0.00    -0.028 A 
ATOM     12  C   UNL     1      -2.528   6.332  23.520  0.00  0.00    +0.005 A 
ATOM     13  C   UNL     1      -3.890   8.108  22.616  0.00  0.00    +0.005 A 
ATOM     14  C   UNL     1      -1.937   7.239  24.403  0.00  0.00    +0.000 A 
ATOM     15  C   UNL     1      -3.298   9.010  23.500  0.00  0.00    +0.000 A 
ATOM     16  C   UNL     1      -2.320   8.576  24.391  0.00  0.00    +0.000 A 
ENDBRANCH  10  11
ENDBRANCH   1  10
TORSDOF 2
ENDMDL
MODEL 8
REMARK VINA RESULT:    -4.570      1.831      2.110
REMARK INTER + INTRA:          -5.260
REMARK INTER:                  -5.080
REMARK INTRA:                  -0.180
REMARK UNBOUND:                -0.156
REMARK  Name = 1550473
REMARK  2 active torsions:
REMARK  status: ('A' for Active; 'I' for Inactive)
REMARK    1  A    between atoms: N_1  and  C_4
REMARK    2  A    between atoms: C_4  and  C_5
REMARK                            x       y       z     vdW  Elec       q    Type
REMARK                         _______ _______ _______ _____ _____    ______ ____
ROOT
ATOM      1  N   UNL     1      -5.985   3.866  -4.033  0.00  0.00    -0.354 N 
ATOM      2  N   UNL     1      -5.570   4.210  -1.780  0.00  0.00    -0.372 N 
ATOM      3  N   UNL     1      -5.855   2.064  -2.540  0.00  0.00    -0.372 N 
ATOM      4  C   UNL     1      -5.807   3.375  -2.799  0.00  0.00    +0.166 C 
ATOM      5  H   UNL     1      -5.967   4.871  -4.158  0.00  0.00    +0.163 HD
ATOM      6  H   UNL     1      -5.428   3.869  -0.839  0.00  0.00    +0.159 HD
ATOM      7  H   UNL     1      -5.507   5.212  -1.916  0.00  0.00    +0.159 HD
ATOM      8  H   UNL     1      -6.035   1.381  -3.264  0.00  0.00    +0.159 HD
ATOM      9  H   UNL     1      -5.727   1.704  -1.603  0.00  0.00    +0.159 HD
ENDROOT
BRANCH   1  10
ATOM     10  C   UNL     1      -6.195   3.038  -5.220  0.00  0.00    +0.151 C 
BRANCH  10  11
ATOM     11  C   UNL     1      -4.883   2.858  -5.931  0.00  0.00    -0.028 A 
ATOM     12  C   UNL     1      -4.364   3.881  -6.739  0.00  0.00    +0.005 A 
ATOM     13  C   UNL     1      -4.149   1.669  -5.796  0.00  0.00    +0.005 A 
ATOM     14  C   UNL     1      -3.131   3.725  -7.376  0.00  0.00    +0.000 A 
ATOM     15  C   UNL     1      -2.918   1.517  -6.435  0.00  0.00    +0.000 A 
ATOM     16  C   UNL     1      -2.408   2.547  -7.222  0.00  0.00    +0.000 A 
ENDBRANCH  10  11
ENDBRANCH   1  10
TORSDOF 2
ENDMDL
MODEL 9
REMARK VINA RESULT:    -4.425     29.771     31.194
REMARK INTER + INTRA:          -5.098
REMARK INTER:                  -4.962
REMARK INTRA:                  -0.136
REMARK UNBOUND:                -0.156
REMARK  Name = 1550473
REMARK  2 active torsions:
REMARK  status: ('A' for Active; 'I' for Inactive)
REMARK    1  A    between atoms: N_1  and  C_4
REMARK    2  A    between atoms: C_4  and  C_5
REMARK                            x       y       z     vdW  Elec       q    Type
REMARK                         _______ _______ _______ _____ _____    ______ ____
ROOT
ATOM      1  N   UNL     1      -3.071  10.197  25.641  0.00  0.00    -0.354 N 
ATOM      2  N   UNL     1      -3.870  11.496  27.384  0.00  0.00    -0.372 N 
ATOM      3  N   UNL     1      -2.026  10.178  27.738  0.00  0.00    -0.372 N 
ATOM      4  C   UNL     1      -2.982  10.614  26.911  0.00  0.00    +0.166 C 
ATOM      5  H   UNL     1      -3.837  10.543  25.074  0.00  0.00    +0.163 HD
ATOM      6  H   UNL     1      -3.826  11.832  28.337  0.00  0.00    +0.159 HD
ATOM      7  H   UNL     1      -4.607  11.875  26.802  0.00  0.00    +0.159 HD
ATOM      8  H   UNL     1      -1.329   9.507  27.444  0.00  0.00    +0.159 HD
ATOM      9  H   UNL     1      -1.972  10.493  28.699  0.00  0.00    +0.159 HD
ENDROOT
BRANCH   1  10
ATOM     10  C   UNL     1      -2.123   9.280  25.013  0.00  0.00    +0.151 C 
BRANCH  10  11
ATOM     11  C   UNL     1      -2.859   8.053  24.549  0.00  0.00    -0.028 A 
ATOM     12  C   UNL     1      -2.187   7.043  23.845  0.00  0.00    +0.005 A 
ATOM     13  C   UNL     1      -4.228   7.893  24.815  0.00  0.00    +0.005 A 
ATOM     14  C   UNL     1      -2.864   5.890  23.440  0.00  0.00    +0.000 A 
ATOM     15  C   UNL     1      -4.900   6.741  24.409  0.00  0.00    +0.000 A 
ATOM     16  C   UNL     1      -4.218   5.738  23.724  0.00  0.00    +0.000 A 
ENDBRANCH  10  11
ENDBRANCH   1  10
TORSDOF 2
ENDMDL
