MODEL 1
REMARK VINA RESULT:    -4.766      0.000      0.000
REMARK INTER + INTRA:          -5.482
REMARK INTER:                  -5.323
REMARK INTRA:                  -0.159
REMARK UNBOUND:                -0.159
REMARK  Name = 1550473
REMARK  2 active torsions:
REMARK  status: ('A' for Active; 'I' for Inactive)
REMARK    1  A    between atoms: N_1  and  C_4
REMARK    2  A    between atoms: C_4  and  C_5
REMARK                            x       y       z     vdW  Elec       q    Type
REMARK                         _______ _______ _______ _____ _____    ______ ____
ROOT
ATOM      1  N   UNL     1       0.939  12.272  -1.287  0.00  0.00    -0.354 N 
ATOM      2  N   UNL     1      -0.944  12.889  -2.486  0.00  0.00    -0.372 N 
ATOM      3  N   UNL     1      -0.774  13.518  -0.286  0.00  0.00    -0.372 N 
ATOM      4  C   UNL     1      -0.248  12.890  -1.342  0.00  0.00    +0.166 C 
ATOM      5  H   UNL     1       1.269  11.789  -2.115  0.00  0.00    +0.163 HD
ATOM      6  H   UNL     1      -1.841  13.349  -2.558  0.00  0.00    +0.159 HD
ATOM      7  H   UNL     1      -0.591  12.444  -3.324  0.00  0.00    +0.159 HD
ATOM      8  H   UNL     1      -0.302  13.550   0.608  0.00  0.00    +0.159 HD
ATOM      9  H   UNL     1      -1.676  13.975  -0.335  0.00  0.00    +0.159 HD
ENDROOT
BRANCH   1  10
ATOM     10  C   UNL     1       1.801  12.261  -0.107  0.00  0.00    +0.151 C 
BRANCH  10  11
ATOM     11  C   UNL     1       1.793  10.883   0.494  0.00  0.00    -0.028 A 
ATOM     12  C   UNL     1       1.778  10.713   1.887  0.00  0.00    +0.005 A 
ATOM     13  C   UNL     1       1.794   9.742  -0.323  0.00  0.00    +0.005 A 
ATOM     14  C   UNL     1       1.740   9.433   2.445  0.00  0.00    +0.000 A 
ATOM     15  C   UNL     1       1.756   8.466   0.238  0.00  0.00    +0.000 A 
ATOM     16  C   UNL     1       1.727   8.312   1.622  0.00  0.00    +0.000 A 
ENDBRANCH  10  11
ENDBRANCH   1  10
TORSDOF 2
ENDMDL
MODEL 2
REMARK VINA RESULT:    -4.603     27.498     29.002
REMARK INTER + INTRA:          -5.300
REMARK INTER:                  -5.166
REMARK INTRA:                  -0.134
REMARK UNBOUND:                -0.159
REMARK  Name = 1550473
REMARK  2 active torsions:
REMARK  status: ('A' for Active; 'I' for Inactive)
REMARK    1  A    between atoms: N_1  and  C_4
REMARK    2  A    between atoms: C_4  and  C_5
REMARK                            x       y       z     vdW  Elec       q    Type
REMARK                         _______ _______ _______ _____ _____    ______ ____
ROOT
ATOM      1  N   UNL     1       1.932 -12.397 -14.257  0.00  0.00    -0.354 N 
ATOM      2  N   UNL     1       1.598 -10.420 -13.097  0.00  0.00    -0.372 N 
ATOM      3  N   UNL     1       3.019 -10.423 -14.899  0.00  0.00    -0.372 N 
ATOM      4  C   UNL     1       2.187 -11.092 -14.094  0.00  0.00    +0.166 C 
ATOM      5  H   UNL     1       1.316 -12.854 -13.594  0.00  0.00    +0.163 HD
ATOM      6  H   UNL     1       1.768  -9.434 -12.952  0.00  0.00    +0.159 HD
ATOM      7  H   UNL     1       0.947 -10.869 -12.464  0.00  0.00    +0.159 HD
ATOM      8  H   UNL     1       3.500 -10.873 -15.666  0.00  0.00    +0.159 HD
ATOM      9  H   UNL     1       3.211  -9.438 -14.762  0.00  0.00    +0.159 HD
ENDROOT
BRANCH   1  10
ATOM     10  C   UNL     1       2.480 -13.208 -15.343  0.00  0.00    +0.151 C 
BRANCH  10  11
ATOM     11  C   UNL     1       1.355 -13.674 -16.225  0.00  0.00    -0.028 A 
ATOM     12  C   UNL     1       1.620 -14.405 -17.391  0.00  0.00    +0.005 A 
ATOM     13  C   UNL     1       0.020 -13.391 -15.896  0.00  0.00    +0.005 A 
ATOM     14  C   UNL     1       0.574 -14.863 -18.195  0.00  0.00    +0.000 A 
ATOM     15  C   UNL     1      -1.022 -13.850 -16.701  0.00  0.00    +0.000 A 
ATOM     16  C   UNL     1      -0.745 -14.588 -17.850  0.00  0.00    +0.000 A 
ENDBRANCH  10  11
ENDBRANCH   1  10
TORSDOF 2
ENDMDL
MODEL 3
REMARK VINA RESULT:    -4.593     25.227     26.652
REMARK INTER + INTRA:          -5.289
REMARK INTER:                  -5.245
REMARK INTRA:                  -0.044
REMARK UNBOUND:                -0.159
REMARK  Name = 1550473
REMARK  2 active torsions:
REMARK  status: ('A' for Active; 'I' for Inactive)
REMARK    1  A    between atoms: N_1  and  C_4
REMARK    2  A    between atoms: C_4  and  C_5
REMARK                            x       y       z     vdW  Elec       q    Type
REMARK                         _______ _______ _______ _____ _____    ______ ____
ROOT
ATOM      1  N   UNL     1      -6.709 -10.509 -10.028  0.00  0.00    -0.354 N 
ATOM      2  N   UNL     1      -5.427  -8.896  -8.970  0.00  0.00    -0.372 N 
ATOM      3  N   UNL     1      -5.916 -10.836  -7.847  0.00  0.00    -0.372 N 
ATOM      4  C   UNL     1      -6.026 -10.093  -8.953  0.00  0.00    +0.166 C 
ATOM      5  H   UNL     1      -6.780  -9.886 -10.824  0.00  0.00    +0.163 HD
ATOM      6  H   UNL     1      -4.902  -8.557  -8.175  0.00  0.00    +0.159 HD
ATOM      7  H   UNL     1      -5.461  -8.295  -9.784  0.00  0.00    +0.159 HD
ATOM      8  H   UNL     1      -6.350 -11.746  -7.768  0.00  0.00    +0.159 HD
ATOM      9  H   UNL     1      -5.405 -10.509  -7.037  0.00  0.00    +0.159 HD
ENDROOT
BRANCH   1  10
ATOM     10  C   UNL     1      -7.353 -11.818 -10.131  0.00  0.00    +0.151 C 
BRANCH  10  11
ATOM     11  C   UNL     1      -6.492 -12.723 -10.969  0.00  0.00    -0.028 A 
ATOM     12  C   UNL     1      -7.007 -13.324 -12.127  0.00  0.00    +0.005 A 
ATOM     13  C   UNL     1      -5.159 -12.981 -10.613  0.00  0.00    +0.005 A 
ATOM     14  C   UNL     1      -6.200 -14.141 -12.922  0.00  0.00    +0.000 A 
ATOM     15  C   UNL     1      -4.357 -13.798 -11.408  0.00  0.00    +0.000 A 
ATOM     16  C   UNL     1      -4.876 -14.376 -12.564  0.00  0.00    +0.000 A 
ENDBRANCH  10  11
ENDBRANCH   1  10
TORSDOF 2
ENDMDL
MODEL 4
REMARK VINA RESULT:    -4.418     25.951     27.328
REMARK INTER + INTRA:          -5.093
REMARK INTER:                  -4.995
REMARK INTRA:                  -0.098
REMARK UNBOUND:                -0.159
REMARK  Name = 1550473
REMARK  2 active torsions:
REMARK  status: ('A' for Active; 'I' for Inactive)
REMARK    1  A    between atoms: N_1  and  C_4
REMARK    2  A    between atoms: C_4  and  C_5
REMARK                            x       y       z     vdW  Elec       q    Type
REMARK                         _______ _______ _______ _____ _____    ______ ____
ROOT
ATOM      1  N   UNL     1      -6.906 -10.955 -10.289  0.00  0.00    -0.354 N 
ATOM      2  N   UNL     1      -7.248  -8.833  -9.426  0.00  0.00    -0.372 N 
ATOM      3  N   UNL     1      -5.211  -9.841  -9.114  0.00  0.00    -0.372 N 
ATOM      4  C   UNL     1      -6.450  -9.891  -9.614  0.00  0.00    +0.166 C 
ATOM      5  H   UNL     1      -7.865 -10.943 -10.616  0.00  0.00    +0.163 HD
ATOM      6  H   UNL     1      -6.931  -8.014  -8.924  0.00  0.00    +0.159 HD
ATOM      7  H   UNL     1      -8.191  -8.805  -9.794  0.00  0.00    +0.159 HD
ATOM      8  H   UNL     1      -4.561 -10.609  -9.217  0.00  0.00    +0.159 HD
ATOM      9  H   UNL     1      -4.879  -9.035  -8.599  0.00  0.00    +0.159 HD
ENDROOT
BRANCH   1  10
ATOM     10  C   UNL     1      -6.099 -12.135 -10.595  0.00  0.00    +0.151 C 
BRANCH  10  11
ATOM     11  C   UNL     1      -6.940 -13.119 -11.361  0.00  0.00    -0.028 A 
ATOM     12  C   UNL     1      -8.060 -13.716 -10.763  0.00  0.00    +0.005 A 
ATOM     13  C   UNL     1      -6.626 -13.455 -12.687  0.00  0.00    +0.005 A 
ATOM     14  C   UNL     1      -8.859 -14.607 -11.483  0.00  0.00    +0.000 A 
ATOM     15  C   UNL     1      -7.426 -14.346 -13.402  0.00  0.00    +0.000 A 
ATOM     16  C   UNL     1      -8.543 -14.919 -12.801  0.00  0.00    +0.000 A 
ENDBRANCH  10  11
ENDBRANCH   1  10
TORSDOF 2
ENDMDL
MODEL 5
REMARK VINA RESULT:    -4.402     26.931     28.055
REMARK INTER + INTRA:          -5.076
REMARK INTER:                  -4.945
REMARK INTRA:                  -0.131
REMARK UNBOUND:                -0.159
REMARK  Name = 1550473
REMARK  2 active torsions:
REMARK  status: ('A' for Active; 'I' for Inactive)
REMARK    1  A    between atoms: N_1  and  C_4
REMARK    2  A    between atoms: C_4  and  C_5
REMARK                            x       y       z     vdW  Elec       q    Type
REMARK                         _______ _______ _______ _____ _____    ______ ____
ROOT
ATOM      1  N   UNL     1       1.553 -12.816 -14.622  0.00  0.00    -0.354 N 
ATOM      2  N   UNL     1      -0.197 -12.999 -16.128  0.00  0.00    -0.372 N 
ATOM      3  N   UNL     1       0.329 -10.931 -15.285  0.00  0.00    -0.372 N 
ATOM      4  C   UNL     1       0.573 -12.245 -15.335  0.00  0.00    +0.166 C 
ATOM      5  H   UNL     1       1.668 -13.821 -14.680  0.00  0.00    +0.163 HD
ATOM      6  H   UNL     1      -0.942 -12.596 -16.680  0.00  0.00    +0.159 HD
ATOM      7  H   UNL     1      -0.051 -13.997 -16.219  0.00  0.00    +0.159 HD
ATOM      8  H   UNL     1       0.870 -10.307 -14.702  0.00  0.00    +0.159 HD
ATOM      9  H   UNL     1      -0.420 -10.510 -15.822  0.00  0.00    +0.159 HD
ENDROOT
BRANCH   1  10
ATOM     10  C   UNL     1       2.482 -12.076 -13.769  0.00  0.00    +0.151 C 
BRANCH  10  11
ATOM     11  C   UNL     1       3.878 -12.579 -14.011  0.00  0.00    -0.028 A 
ATOM     12  C   UNL     1       4.984 -11.749 -13.780  0.00  0.00    +0.005 A 
ATOM     13  C   UNL     1       4.102 -13.888 -14.466  0.00  0.00    +0.005 A 
ATOM     14  C   UNL     1       6.283 -12.226 -13.975  0.00  0.00    +0.000 A 
ATOM     15  C   UNL     1       5.400 -14.360 -14.660  0.00  0.00    +0.000 A 
ATOM     16  C   UNL     1       6.490 -13.529 -14.413  0.00  0.00    +0.000 A 
ENDBRANCH  10  11
ENDBRANCH   1  10
TORSDOF 2
ENDMDL
MODEL 6
REMARK VINA RESULT:    -4.397      8.121      9.514
REMARK INTER + INTRA:          -5.070
REMARK INTER:                  -4.927
REMARK INTRA:                  -0.143
REMARK UNBOUND:                -0.159
REMARK  Name = 1550473
REMARK  2 active torsions:
REMARK  status: ('A' for Active; 'I' for Inactive)
REMARK    1  A    between atoms: N_1  and  C_4
REMARK    2  A    between atoms: C_4  and  C_5
REMARK                            x       y       z     vdW  Elec       q    Type
REMARK                         _______ _______ _______ _____ _____    ______ ____
ROOT
ATOM      1  N   UNL     1      -3.710  10.002   9.450  0.00  0.00    -0.354 N 
ATOM      2  N   UNL     1      -5.738  11.091   9.199  0.00  0.00    -0.372 N 
ATOM      3  N   UNL     1      -4.011  12.189  10.237  0.00  0.00    -0.372 N 
ATOM      4  C   UNL     1      -4.472  11.089   9.632  0.00  0.00    +0.166 C 
ATOM      5  H   UNL     1      -4.127   9.189   9.011  0.00  0.00    +0.163 HD
ATOM      6  H   UNL     1      -6.336  11.898   9.319  0.00  0.00    +0.159 HD
ATOM      7  H   UNL     1      -6.139  10.294   8.720  0.00  0.00    +0.159 HD
ATOM      8  H   UNL     1      -3.066  12.249  10.592  0.00  0.00    +0.159 HD
ATOM      9  H   UNL     1      -4.598  13.002  10.377  0.00  0.00    +0.159 HD
ENDROOT
BRANCH   1  10
ATOM     10  C   UNL     1      -2.303   9.916   9.836  0.00  0.00    +0.151 C 
BRANCH  10  11
ATOM     11  C   UNL     1      -1.449   9.974   8.599  0.00  0.00    -0.028 A 
ATOM     12  C   UNL     1      -1.301  11.177   7.892  0.00  0.00    +0.005 A 
ATOM     13  C   UNL     1      -0.782   8.832   8.132  0.00  0.00    +0.005 A 
ATOM     14  C   UNL     1      -0.485  11.238   6.760  0.00  0.00    +0.000 A 
ATOM     15  C   UNL     1       0.032   8.897   7.001  0.00  0.00    +0.000 A 
ATOM     16  C   UNL     1       0.182  10.101   6.317  0.00  0.00    +0.000 A 
ENDBRANCH  10  11
ENDBRANCH   1  10
TORSDOF 2
ENDMDL
MODEL 7
REMARK VINA RESULT:    -4.356      8.118      9.471
REMARK INTER + INTRA:          -5.024
REMARK INTER:                  -4.903
REMARK INTRA:                  -0.120
REMARK UNBOUND:                -0.159
REMARK  Name = 1550473
REMARK  2 active torsions:
REMARK  status: ('A' for Active; 'I' for Inactive)
REMARK    1  A    between atoms: N_1  and  C_4
REMARK    2  A    between atoms: C_4  and  C_5
REMARK                            x       y       z     vdW  Elec       q    Type
REMARK                         _______ _______ _______ _____ _____    ______ ____
ROOT
ATOM      1  N   UNL     1       6.896   4.667  -5.226  0.00  0.00    -0.354 N 
ATOM      2  N   UNL     1       6.203   3.397  -7.035  0.00  0.00    -0.372 N 
ATOM      3  N   UNL     1       6.960   2.326  -5.152  0.00  0.00    -0.372 N 
ATOM      4  C   UNL     1       6.692   3.470  -5.791  0.00  0.00    +0.166 C 
ATOM      5  H   UNL     1       6.701   5.497  -5.774  0.00  0.00    +0.163 HD
ATOM      6  H   UNL     1       6.035   2.508  -7.486  0.00  0.00    +0.159 HD
ATOM      7  H   UNL     1       5.966   4.228  -7.563  0.00  0.00    +0.159 HD
ATOM      8  H   UNL     1       7.336   2.312  -4.214  0.00  0.00    +0.159 HD
ATOM      9  H   UNL     1       6.810   1.426  -5.591  0.00  0.00    +0.159 HD
ENDROOT
BRANCH   1  10
ATOM     10  C   UNL     1       7.374   4.855  -3.858  0.00  0.00    +0.151 C 
BRANCH  10  11
ATOM     11  C   UNL     1       6.665   6.032  -3.247  0.00  0.00    -0.028 A 
ATOM     12  C   UNL     1       6.314   6.026  -1.889  0.00  0.00    +0.005 A 
ATOM     13  C   UNL     1       6.346   7.160  -4.020  0.00  0.00    +0.005 A 
ATOM     14  C   UNL     1       5.683   7.132  -1.314  0.00  0.00    +0.000 A 
ATOM     15  C   UNL     1       5.715   8.261  -3.443  0.00  0.00    +0.000 A 
ATOM     16  C   UNL     1       5.386   8.248  -2.089  0.00  0.00    +0.000 A 
ENDBRANCH  10  11
ENDBRANCH   1  10
TORSDOF 2
ENDMDL
MODEL 8
REMARK VINA RESULT:    -4.336     19.031     20.204
REMARK INTER + INTRA:          -5.002
REMARK INTER:                  -4.871
REMARK INTRA:                  -0.131
REMARK UNBOUND:                -0.159
REMARK  Name = 1550473
REMARK  2 active torsions:
REMARK  status: ('A' for Active; 'I' for Inactive)
REMARK    1  A    between atoms: N_1  and  C_4
REMARK    2  A    between atoms: C_4  and  C_5
REMARK                            x       y       z     vdW  Elec       q    Type
REMARK                         _______ _______ _______ _____ _____    ______ ____
ROOT
ATOM      1  N   UNL     1       3.727  12.561  19.199  0.00  0.00    -0.354 N 
ATOM      2  N   UNL     1       2.612  14.051  17.820  0.00  0.00    -0.372 N 
ATOM      3  N   UNL     1       2.597  14.413  20.085  0.00  0.00    -0.372 N 
ATOM      4  C   UNL     1       2.985  13.666  19.046  0.00  0.00    +0.166 C 
ATOM      5  H   UNL     1       3.963  12.022  18.374  0.00  0.00    +0.163 HD
ATOM      6  H   UNL     1       2.055  14.882  17.673  0.00  0.00    +0.159 HD
ATOM      7  H   UNL     1       2.888  13.536  16.993  0.00  0.00    +0.159 HD
ATOM      8  H   UNL     1       2.841  14.174  21.037  0.00  0.00    +0.159 HD
ATOM      9  H   UNL     1       2.030  15.242  19.960  0.00  0.00    +0.159 HD
ENDROOT
BRANCH   1  10
ATOM     10  C   UNL     1       4.231  12.086  20.486  0.00  0.00    +0.151 C 
BRANCH  10  11
ATOM     11  C   UNL     1       5.530  11.361  20.268  0.00  0.00    -0.028 A 
ATOM     12  C   UNL     1       6.049  11.204  18.974  0.00  0.00    +0.005 A 
ATOM     13  C   UNL     1       6.250  10.834  21.351  0.00  0.00    +0.005 A 
ATOM     14  C   UNL     1       7.271  10.557  18.774  0.00  0.00    +0.000 A 
ATOM     15  C   UNL     1       7.469  10.187  21.146  0.00  0.00    +0.000 A 
ATOM     16  C   UNL     1       7.980  10.051  19.858  0.00  0.00    +0.000 A 
ENDBRANCH  10  11
ENDBRANCH   1  10
TORSDOF 2
ENDMDL
MODEL 9
REMARK VINA RESULT:    -4.198      6.848      8.044
REMARK INTER + INTRA:          -4.848
REMARK INTER:                  -4.712
REMARK INTRA:                  -0.136
REMARK UNBOUND:                -0.159
REMARK  Name = 1550473
REMARK  2 active torsions:
REMARK  status: ('A' for Active; 'I' for Inactive)
REMARK    1  A    between atoms: N_1  and  C_4
REMARK    2  A    between atoms: C_4  and  C_5
REMARK                            x       y       z     vdW  Elec       q    Type
REMARK                         _______ _______ _______ _____ _____    ______ ____
ROOT
ATOM      1  N   UNL     1      -0.025  12.457   6.504  0.00  0.00    -0.354 N 
ATOM      2  N   UNL     1       0.875  12.197   4.386  0.00  0.00    -0.372 N 
ATOM      3  N   UNL     1      -1.238  13.067   4.594  0.00  0.00    -0.372 N 
ATOM      4  C   UNL     1      -0.138  12.576   5.174  0.00  0.00    +0.166 C 
ATOM      5  H   UNL     1       0.823  12.049   6.880  0.00  0.00    +0.163 HD
ATOM      6  H   UNL     1       0.820  12.279   3.380  0.00  0.00    +0.159 HD
ATOM      7  H   UNL     1       1.740  11.833   4.767  0.00  0.00    +0.159 HD
ATOM      8  H   UNL     1      -2.040  13.365   5.133  0.00  0.00    +0.159 HD
ATOM      9  H   UNL     1      -1.316  13.146   3.588  0.00  0.00    +0.159 HD
ENDROOT
BRANCH   1  10
ATOM     10  C   UNL     1      -1.049  12.890   7.454  0.00  0.00    +0.151 C 
BRANCH  10  11
ATOM     11  C   UNL     1      -1.555  11.693   8.210  0.00  0.00    -0.028 A 
ATOM     12  C   UNL     1      -2.579  11.831   9.158  0.00  0.00    +0.005 A 
ATOM     13  C   UNL     1      -1.019  10.417   7.979  0.00  0.00    +0.005 A 
ATOM     14  C   UNL     1      -3.071  10.715   9.839  0.00  0.00    +0.000 A 
ATOM     15  C   UNL     1      -1.512   9.305   8.661  0.00  0.00    +0.000 A 
ATOM     16  C   UNL     1      -2.539   9.454   9.590  0.00  0.00    +0.000 A 
ENDBRANCH  10  11
ENDBRANCH   1  10
TORSDOF 2
ENDMDL
