MODEL 1
REMARK VINA RESULT:    -6.059      0.000      0.000
REMARK INTER + INTRA:          -6.872
REMARK INTER:                  -6.768
REMARK INTRA:                  -0.104
REMARK UNBOUND:                -0.104
REMARK  Name = 1550473
REMARK  2 active torsions:
REMARK  status: ('A' for Active; 'I' for Inactive)
REMARK    1  A    between atoms: N_1  and  C_4
REMARK    2  A    between atoms: C_4  and  C_5
REMARK                            x       y       z     vdW  Elec       q    Type
REMARK                         _______ _______ _______ _____ _____    ______ ____
ROOT
ATOM      1  N   UNL     1      -3.892   2.990  -8.858  0.00  0.00    -0.354 N 
ATOM      2  N   UNL     1      -6.164   2.581  -8.669  0.00  0.00    -0.372 N 
ATOM      3  N   UNL     1      -4.800   2.114  -6.883  0.00  0.00    -0.372 N 
ATOM      4  C   UNL     1      -4.936   2.563  -8.136  0.00  0.00    +0.166 C 
ATOM      5  H   UNL     1      -4.058   3.289  -9.812  0.00  0.00    +0.163 HD
ATOM      6  H   UNL     1      -6.971   2.268  -8.146  0.00  0.00    +0.159 HD
ATOM      7  H   UNL     1      -6.333   2.924  -9.606  0.00  0.00    +0.159 HD
ATOM      8  H   UNL     1      -3.900   2.069  -6.425  0.00  0.00    +0.159 HD
ATOM      9  H   UNL     1      -5.595   1.786  -6.348  0.00  0.00    +0.159 HD
ENDROOT
BRANCH   1  10
ATOM     10  C   UNL     1      -2.523   3.062  -8.353  0.00  0.00    +0.151 C 
BRANCH  10  11
ATOM     11  C   UNL     1      -1.813   4.209  -9.018  0.00  0.00    -0.028 A 
ATOM     12  C   UNL     1      -1.220   5.221  -8.249  0.00  0.00    +0.005 A 
ATOM     13  C   UNL     1      -1.725   4.286 -10.416  0.00  0.00    +0.005 A 
ATOM     14  C   UNL     1      -0.535   6.271  -8.866  0.00  0.00    +0.000 A 
ATOM     15  C   UNL     1      -1.041   5.336 -11.028  0.00  0.00    +0.000 A 
ATOM     16  C   UNL     1      -0.444   6.327 -10.252  0.00  0.00    +0.000 A 
ENDBRANCH  10  11
ENDBRANCH   1  10
TORSDOF 2
ENDMDL
MODEL 2
REMARK VINA RESULT:    -5.977     11.635     12.868
REMARK INTER + INTRA:          -6.780
REMARK INTER:                  -6.628
REMARK INTRA:                  -0.152
REMARK UNBOUND:                -0.104
REMARK  Name = 1550473
REMARK  2 active torsions:
REMARK  status: ('A' for Active; 'I' for Inactive)
REMARK    1  A    between atoms: N_1  and  C_4
REMARK    2  A    between atoms: C_4  and  C_5
REMARK                            x       y       z     vdW  Elec       q    Type
REMARK                         _______ _______ _______ _____ _____    ______ ____
ROOT
ATOM      1  N   UNL     1      -0.067   9.888   3.305  0.00  0.00    -0.354 N 
ATOM      2  N   UNL     1      -0.095   9.111   5.487  0.00  0.00    -0.372 N 
ATOM      3  N   UNL     1      -1.874  10.343   4.726  0.00  0.00    -0.372 N 
ATOM      4  C   UNL     1      -0.681   9.788   4.492  0.00  0.00    +0.166 C 
ATOM      5  H   UNL     1       0.850   9.470   3.201  0.00  0.00    +0.163 HD
ATOM      6  H   UNL     1      -0.536   9.015   6.392  0.00  0.00    +0.159 HD
ATOM      7  H   UNL     1       0.801   8.655   5.365  0.00  0.00    +0.159 HD
ATOM      8  H   UNL     1      -2.367  10.872   4.018  0.00  0.00    +0.159 HD
ATOM      9  H   UNL     1      -2.326  10.268   5.628  0.00  0.00    +0.159 HD
ENDROOT
BRANCH   1  10
ATOM     10  C   UNL     1      -0.643  10.557   2.140  0.00  0.00    +0.151 C 
BRANCH  10  11
ATOM     11  C   UNL     1      -1.374   9.544   1.304  0.00  0.00    -0.028 A 
ATOM     12  C   UNL     1      -0.854   8.252   1.133  0.00  0.00    +0.005 A 
ATOM     13  C   UNL     1      -2.591   9.866   0.683  0.00  0.00    +0.005 A 
ATOM     14  C   UNL     1      -1.548   7.301   0.381  0.00  0.00    +0.000 A 
ATOM     15  C   UNL     1      -3.280   8.914  -0.068  0.00  0.00    +0.000 A 
ATOM     16  C   UNL     1      -2.759   7.631  -0.216  0.00  0.00    +0.000 A 
ENDBRANCH  10  11
ENDBRANCH   1  10
TORSDOF 2
ENDMDL
MODEL 3
REMARK VINA RESULT:    -5.776     11.006     12.180
REMARK INTER + INTRA:          -6.556
REMARK INTER:                  -6.390
REMARK INTRA:                  -0.166
REMARK UNBOUND:                -0.104
REMARK  Name = 1550473
REMARK  2 active torsions:
REMARK  status: ('A' for Active; 'I' for Inactive)
REMARK    1  A    between atoms: N_1  and  C_4
REMARK    2  A    between atoms: C_4  and  C_5
REMARK                            x       y       z     vdW  Elec       q    Type
REMARK                         _______ _______ _______ _____ _____    ______ ____
ROOT
ATOM      1  N   UNL     1      -2.090   8.878  -0.033  0.00  0.00    -0.354 N 
ATOM      2  N   UNL     1      -4.334   8.500  -0.464  0.00  0.00    -0.372 N 
ATOM      3  N   UNL     1      -3.061   6.783   0.370  0.00  0.00    -0.372 N 
ATOM      4  C   UNL     1      -3.146   8.054  -0.039  0.00  0.00    +0.166 C 
ATOM      5  H   UNL     1      -2.214   9.821  -0.384  0.00  0.00    +0.163 HD
ATOM      6  H   UNL     1      -5.150   7.903  -0.477  0.00  0.00    +0.159 HD
ATOM      7  H   UNL     1      -4.466   9.457  -0.771  0.00  0.00    +0.159 HD
ATOM      8  H   UNL     1      -2.192   6.384   0.697  0.00  0.00    +0.159 HD
ATOM      9  H   UNL     1      -3.863   6.166   0.353  0.00  0.00    +0.159 HD
ENDROOT
BRANCH   1  10
ATOM     10  C   UNL     1      -0.766   8.506   0.461  0.00  0.00    +0.151 C 
BRANCH  10  11
ATOM     11  C   UNL     1      -0.673   8.847   1.923  0.00  0.00    -0.028 A 
ATOM     12  C   UNL     1      -0.392   7.851   2.869  0.00  0.00    +0.005 A 
ATOM     13  C   UNL     1      -0.859  10.166   2.367  0.00  0.00    +0.005 A 
ATOM     14  C   UNL     1      -0.276   8.173   4.224  0.00  0.00    +0.000 A 
ATOM     15  C   UNL     1      -0.743  10.482   3.720  0.00  0.00    +0.000 A 
ATOM     16  C   UNL     1      -0.449   9.486   4.648  0.00  0.00    +0.000 A 
ENDBRANCH  10  11
ENDBRANCH   1  10
TORSDOF 2
ENDMDL
MODEL 4
REMARK VINA RESULT:    -5.599     11.608     12.755
REMARK INTER + INTRA:          -6.358
REMARK INTER:                  -6.185
REMARK INTRA:                  -0.173
REMARK UNBOUND:                -0.104
REMARK  Name = 1550473
REMARK  2 active torsions:
REMARK  status: ('A' for Active; 'I' for Inactive)
REMARK    1  A    between atoms: N_1  and  C_4
REMARK    2  A    between atoms: C_4  and  C_5
REMARK                            x       y       z     vdW  Elec       q    Type
REMARK                         _______ _______ _______ _____ _____    ______ ____
ROOT
ATOM      1  N   UNL     1      -0.542  10.216   2.733  0.00  0.00    -0.354 N 
ATOM      2  N   UNL     1      -0.473   8.663   4.450  0.00  0.00    -0.372 N 
ATOM      3  N   UNL     1      -1.941  10.420   4.602  0.00  0.00    -0.372 N 
ATOM      4  C   UNL     1      -0.988   9.778   3.918  0.00  0.00    +0.166 C 
ATOM      5  H   UNL     1       0.203   9.701   2.279  0.00  0.00    +0.163 HD
ATOM      6  H   UNL     1      -0.792   8.306   5.341  0.00  0.00    +0.159 HD
ATOM      7  H   UNL     1       0.240   8.125   3.972  0.00  0.00    +0.159 HD
ATOM      8  H   UNL     1      -2.366  11.271   4.258  0.00  0.00    +0.159 HD
ATOM      9  H   UNL     1      -2.265  10.085   5.501  0.00  0.00    +0.159 HD
ENDROOT
BRANCH   1  10
ATOM     10  C   UNL     1      -1.074  11.389   2.042  0.00  0.00    +0.151 C 
BRANCH  10  11
ATOM     11  C   UNL     1      -1.983  10.936   0.932  0.00  0.00    -0.028 A 
ATOM     12  C   UNL     1      -3.344  10.702   1.177  0.00  0.00    +0.005 A 
ATOM     13  C   UNL     1      -1.490  10.745  -0.368  0.00  0.00    +0.005 A 
ATOM     14  C   UNL     1      -4.194  10.311   0.140  0.00  0.00    +0.000 A 
ATOM     15  C   UNL     1      -2.342  10.353  -1.400  0.00  0.00    +0.000 A 
ATOM     16  C   UNL     1      -3.694  10.138  -1.146  0.00  0.00    +0.000 A 
ENDBRANCH  10  11
ENDBRANCH   1  10
TORSDOF 2
ENDMDL
MODEL 5
REMARK VINA RESULT:    -5.428      1.996      2.510
REMARK INTER + INTRA:          -6.168
REMARK INTER:                  -6.021
REMARK INTRA:                  -0.146
REMARK UNBOUND:                -0.104
REMARK  Name = 1550473
REMARK  2 active torsions:
REMARK  status: ('A' for Active; 'I' for Inactive)
REMARK    1  A    between atoms: N_1  and  C_4
REMARK    2  A    between atoms: C_4  and  C_5
REMARK                            x       y       z     vdW  Elec       q    Type
REMARK                         _______ _______ _______ _____ _____    ______ ____
ROOT
ATOM      1  N   UNL     1      -3.199   3.817 -11.355  0.00  0.00    -0.354 N 
ATOM      2  N   UNL     1      -5.004   4.322 -12.715  0.00  0.00    -0.372 N 
ATOM      3  N   UNL     1      -5.382   3.839 -10.503  0.00  0.00    -0.372 N 
ATOM      4  C   UNL     1      -4.518   3.989 -11.513  0.00  0.00    +0.166 C 
ATOM      5  H   UNL     1      -2.600   3.915 -12.166  0.00  0.00    +0.163 HD
ATOM      6  H   UNL     1      -5.995   4.461 -12.864  0.00  0.00    +0.159 HD
ATOM      7  H   UNL     1      -4.399   4.464 -13.514  0.00  0.00    +0.159 HD
ATOM      8  H   UNL     1      -5.080   3.583  -9.573  0.00  0.00    +0.159 HD
ATOM      9  H   UNL     1      -6.378   3.963 -10.636  0.00  0.00    +0.159 HD
ENDROOT
BRANCH   1  10
ATOM     10  C   UNL     1      -2.562   3.507 -10.076  0.00  0.00    +0.151 C 
BRANCH  10  11
ATOM     11  C   UNL     1      -1.631   4.628  -9.706  0.00  0.00    -0.028 A 
ATOM     12  C   UNL     1      -1.433   4.974  -8.361  0.00  0.00    +0.005 A 
ATOM     13  C   UNL     1      -0.940   5.344 -10.694  0.00  0.00    +0.005 A 
ATOM     14  C   UNL     1      -0.545   5.996  -8.015  0.00  0.00    +0.000 A 
ATOM     15  C   UNL     1      -0.055   6.364 -10.345  0.00  0.00    +0.000 A 
ATOM     16  C   UNL     1       0.144   6.688  -9.005  0.00  0.00    +0.000 A 
ENDBRANCH  10  11
ENDBRANCH   1  10
TORSDOF 2
ENDMDL
MODEL 6
REMARK VINA RESULT:    -5.104     10.947     12.250
REMARK INTER + INTRA:          -5.805
REMARK INTER:                  -5.667
REMARK INTRA:                  -0.138
REMARK UNBOUND:                -0.104
REMARK  Name = 1550473
REMARK  2 active torsions:
REMARK  status: ('A' for Active; 'I' for Inactive)
REMARK    1  A    between atoms: N_1  and  C_4
REMARK    2  A    between atoms: C_4  and  C_5
REMARK                            x       y       z     vdW  Elec       q    Type
REMARK                         _______ _______ _______ _____ _____    ______ ____
ROOT
ATOM      1  N   UNL     1      -7.988   5.036 -19.020  0.00  0.00    -0.354 N 
ATOM      2  N   UNL     1      -6.717   4.630 -20.913  0.00  0.00    -0.372 N 
ATOM      3  N   UNL     1      -5.911   3.962 -18.871  0.00  0.00    -0.372 N 
ATOM      4  C   UNL     1      -6.879   4.544 -19.587  0.00  0.00    +0.166 C 
ATOM      5  H   UNL     1      -8.671   5.492 -19.614  0.00  0.00    +0.163 HD
ATOM      6  H   UNL     1      -5.892   4.265 -21.369  0.00  0.00    +0.159 HD
ATOM      7  H   UNL     1      -7.422   5.046 -21.510  0.00  0.00    +0.159 HD
ATOM      8  H   UNL     1      -5.969   3.871 -17.866  0.00  0.00    +0.159 HD
ATOM      9  H   UNL     1      -5.072   3.601 -19.308  0.00  0.00    +0.159 HD
ENDROOT
BRANCH   1  10
ATOM     10  C   UNL     1      -8.286   4.945 -17.592  0.00  0.00    +0.151 C 
BRANCH  10  11
ATOM     11  C   UNL     1      -9.666   4.376 -17.413  0.00  0.00    -0.028 A 
ATOM     12  C   UNL     1     -10.490   4.820 -16.368  0.00  0.00    +0.005 A 
ATOM     13  C   UNL     1     -10.159   3.396 -18.288  0.00  0.00    +0.005 A 
ATOM     14  C   UNL     1     -11.783   4.314 -16.219  0.00  0.00    +0.000 A 
ATOM     15  C   UNL     1     -11.451   2.892 -18.136  0.00  0.00    +0.000 A 
ATOM     16  C   UNL     1     -12.263   3.353 -17.103  0.00  0.00    +0.000 A 
ENDBRANCH  10  11
ENDBRANCH   1  10
TORSDOF 2
ENDMDL
MODEL 7
REMARK VINA RESULT:    -5.038     11.439     13.097
REMARK INTER + INTRA:          -5.732
REMARK INTER:                  -5.628
REMARK INTRA:                  -0.104
REMARK UNBOUND:                -0.104
REMARK  Name = 1550473
REMARK  2 active torsions:
REMARK  status: ('A' for Active; 'I' for Inactive)
REMARK    1  A    between atoms: N_1  and  C_4
REMARK    2  A    between atoms: C_4  and  C_5
REMARK                            x       y       z     vdW  Elec       q    Type
REMARK                         _______ _______ _______ _____ _____    ______ ____
ROOT
ATOM      1  N   UNL     1      -9.923   4.572 -17.857  0.00  0.00    -0.354 N 
ATOM      2  N   UNL     1      -7.986   4.836 -19.100  0.00  0.00    -0.372 N 
ATOM      3  N   UNL     1      -7.844   4.841 -16.809  0.00  0.00    -0.372 N 
ATOM      4  C   UNL     1      -8.596   4.748 -17.911  0.00  0.00    +0.166 C 
ATOM      5  H   UNL     1     -10.440   4.540 -18.728  0.00  0.00    +0.163 HD
ATOM      6  H   UNL     1      -6.986   4.965 -19.172  0.00  0.00    +0.159 HD
ATOM      7  H   UNL     1      -8.499   4.757 -19.969  0.00  0.00    +0.159 HD
ATOM      8  H   UNL     1      -8.244   4.789 -15.882  0.00  0.00    +0.159 HD
ATOM      9  H   UNL     1      -6.843   4.982 -16.861  0.00  0.00    +0.159 HD
ENDROOT
BRANCH   1  10
ATOM     10  C   UNL     1     -10.676   4.411 -16.615  0.00  0.00    +0.151 C 
BRANCH  10  11
ATOM     11  C   UNL     1     -12.032   3.844 -16.933  0.00  0.00    -0.028 A 
ATOM     12  C   UNL     1     -13.192   4.594 -16.689  0.00  0.00    +0.005 A 
ATOM     13  C   UNL     1     -12.164   2.560 -17.483  0.00  0.00    +0.005 A 
ATOM     14  C   UNL     1     -14.450   4.081 -17.012  0.00  0.00    +0.000 A 
ATOM     15  C   UNL     1     -13.422   2.050 -17.804  0.00  0.00    +0.000 A 
ATOM     16  C   UNL     1     -14.565   2.812 -17.570  0.00  0.00    +0.000 A 
ENDBRANCH  10  11
ENDBRANCH   1  10
TORSDOF 2
ENDMDL
MODEL 8
REMARK VINA RESULT:    -5.030      3.481      5.521
REMARK INTER + INTRA:          -5.722
REMARK INTER:                  -5.604
REMARK INTRA:                  -0.118
REMARK UNBOUND:                -0.104
REMARK  Name = 1550473
REMARK  2 active torsions:
REMARK  status: ('A' for Active; 'I' for Inactive)
REMARK    1  A    between atoms: N_1  and  C_4
REMARK    2  A    between atoms: C_4  and  C_5
REMARK                            x       y       z     vdW  Elec       q    Type
REMARK                         _______ _______ _______ _____ _____    ______ ____
ROOT
ATOM      1  N   UNL     1      -3.502   4.573 -12.671  0.00  0.00    -0.354 N 
ATOM      2  N   UNL     1      -3.631   4.902 -14.960  0.00  0.00    -0.372 N 
ATOM      3  N   UNL     1      -3.114   6.684 -13.611  0.00  0.00    -0.372 N 
ATOM      4  C   UNL     1      -3.415   5.387 -13.731  0.00  0.00    +0.166 C 
ATOM      5  H   UNL     1      -3.763   3.606 -12.827  0.00  0.00    +0.163 HD
ATOM      6  H   UNL     1      -3.569   5.491 -15.779  0.00  0.00    +0.159 HD
ATOM      7  H   UNL     1      -3.847   3.925 -15.117  0.00  0.00    +0.159 HD
ATOM      8  H   UNL     1      -2.945   7.113 -12.711  0.00  0.00    +0.159 HD
ATOM      9  H   UNL     1      -3.058   7.293 -14.418  0.00  0.00    +0.159 HD
ENDROOT
BRANCH   1  10
ATOM     10  C   UNL     1      -3.232   4.990 -11.296  0.00  0.00    +0.151 C 
BRANCH  10  11
ATOM     11  C   UNL     1      -3.995   4.100 -10.354  0.00  0.00    -0.028 A 
ATOM     12  C   UNL     1      -5.366   3.873 -10.543  0.00  0.00    +0.005 A 
ATOM     13  C   UNL     1      -3.352   3.476  -9.274  0.00  0.00    +0.005 A 
ATOM     14  C   UNL     1      -6.069   3.023  -9.686  0.00  0.00    +0.000 A 
ATOM     15  C   UNL     1      -4.057   2.629  -8.420  0.00  0.00    +0.000 A 
ATOM     16  C   UNL     1      -5.416   2.400  -8.628  0.00  0.00    +0.000 A 
ENDBRANCH  10  11
ENDBRANCH   1  10
TORSDOF 2
ENDMDL
MODEL 9
REMARK VINA RESULT:    -4.937      8.420      9.434
REMARK INTER + INTRA:          -5.619
REMARK INTER:                  -5.453
REMARK INTRA:                  -0.166
REMARK UNBOUND:                -0.104
REMARK  Name = 1550473
REMARK  2 active torsions:
REMARK  status: ('A' for Active; 'I' for Inactive)
REMARK    1  A    between atoms: N_1  and  C_4
REMARK    2  A    between atoms: C_4  and  C_5
REMARK                            x       y       z     vdW  Elec       q    Type
REMARK                         _______ _______ _______ _____ _____    ______ ____
ROOT
ATOM      1  N   UNL     1      -3.680   8.013  -0.830  0.00  0.00    -0.354 N 
ATOM      2  N   UNL     1      -5.706   8.463  -1.857  0.00  0.00    -0.372 N 
ATOM      3  N   UNL     1      -4.834  10.008  -0.402  0.00  0.00    -0.372 N 
ATOM      4  C   UNL     1      -4.727   8.827  -1.021  0.00  0.00    +0.166 C 
ATOM      5  H   UNL     1      -3.673   7.118  -1.306  0.00  0.00    +0.163 HD
ATOM      6  H   UNL     1      -6.507   9.058  -2.025  0.00  0.00    +0.159 HD
ATOM      7  H   UNL     1      -5.674   7.589  -2.367  0.00  0.00    +0.159 HD
ATOM      8  H   UNL     1      -4.131  10.338   0.246  0.00  0.00    +0.159 HD
ATOM      9  H   UNL     1      -5.633  10.612  -0.547  0.00  0.00    +0.159 HD
ENDROOT
BRANCH   1  10
ATOM     10  C   UNL     1      -2.535   8.339   0.019  0.00  0.00    +0.151 C 
BRANCH  10  11
ATOM     11  C   UNL     1      -1.442   8.922  -0.834  0.00  0.00    -0.028 A 
ATOM     12  C   UNL     1      -1.150   8.371  -2.091  0.00  0.00    +0.005 A 
ATOM     13  C   UNL     1      -0.699  10.028  -0.395  0.00  0.00    +0.005 A 
ATOM     14  C   UNL     1      -0.155   8.931  -2.896  0.00  0.00    +0.000 A 
ATOM     15  C   UNL     1       0.294  10.583  -1.202  0.00  0.00    +0.000 A 
ATOM     16  C   UNL     1       0.564  10.036  -2.453  0.00  0.00    +0.000 A 
ENDBRANCH  10  11
ENDBRANCH   1  10
TORSDOF 2
ENDMDL
