MODEL 1
REMARK VINA RESULT:    -6.317      0.000      0.000
REMARK INTER + INTRA:          -7.133
REMARK INTER:                  -7.056
REMARK INTRA:                  -0.078
REMARK UNBOUND:                -0.078
REMARK  Name = 1550473
REMARK  2 active torsions:
REMARK  status: ('A' for Active; 'I' for Inactive)
REMARK    1  A    between atoms: N_1  and  C_4
REMARK    2  A    between atoms: C_4  and  C_5
REMARK                            x       y       z     vdW  Elec       q    Type
REMARK                         _______ _______ _______ _____ _____    ______ ____
ROOT
ATOM      1  N   UNL     1       2.134  -7.722 -14.431  0.00  0.00    -0.354 N 
ATOM      2  N   UNL     1       3.074  -6.555 -16.196  0.00  0.00    -0.372 N 
ATOM      3  N   UNL     1       4.384  -7.071 -14.385  0.00  0.00    -0.372 N 
ATOM      4  C   UNL     1       3.193  -7.124 -14.991  0.00  0.00    +0.166 C 
ATOM      5  H   UNL     1       1.251  -7.702 -14.929  0.00  0.00    +0.163 HD
ATOM      6  H   UNL     1       3.857  -6.099 -16.645  0.00  0.00    +0.159 HD
ATOM      7  H   UNL     1       2.203  -6.576 -16.712  0.00  0.00    +0.159 HD
ATOM      8  H   UNL     1       4.539  -7.476 -13.471  0.00  0.00    +0.159 HD
ATOM      9  H   UNL     1       5.177  -6.609 -14.813  0.00  0.00    +0.159 HD
ENDROOT
BRANCH   1  10
ATOM     10  C   UNL     1       2.172  -8.418 -13.146  0.00  0.00    +0.151 C 
BRANCH  10  11
ATOM     11  C   UNL     1       1.459  -7.586 -12.116  0.00  0.00    -0.028 A 
ATOM     12  C   UNL     1       1.011  -6.295 -12.430  0.00  0.00    +0.005 A 
ATOM     13  C   UNL     1       1.225  -8.085 -10.825  0.00  0.00    +0.005 A 
ATOM     14  C   UNL     1       0.322  -5.533 -11.482  0.00  0.00    +0.000 A 
ATOM     15  C   UNL     1       0.538  -7.321  -9.882  0.00  0.00    +0.000 A 
ATOM     16  C   UNL     1       0.085  -6.046 -10.212  0.00  0.00    +0.000 A 
ENDBRANCH  10  11
ENDBRANCH   1  10
TORSDOF 2
ENDMDL
MODEL 2
REMARK VINA RESULT:    -5.928     21.548     22.793
REMARK INTER + INTRA:          -6.699
REMARK INTER:                  -6.570
REMARK INTRA:                  -0.129
REMARK UNBOUND:                -0.078
REMARK  Name = 1550473
REMARK  2 active torsions:
REMARK  status: ('A' for Active; 'I' for Inactive)
REMARK    1  A    between atoms: N_1  and  C_4
REMARK    2  A    between atoms: C_4  and  C_5
REMARK                            x       y       z     vdW  Elec       q    Type
REMARK                         _______ _______ _______ _____ _____    ______ ____
ROOT
ATOM      1  N   UNL     1      10.725   2.871   7.259  0.00  0.00    -0.354 N 
ATOM      2  N   UNL     1      10.561   4.389   9.000  0.00  0.00    -0.372 N 
ATOM      3  N   UNL     1      10.064   2.185   9.401  0.00  0.00    -0.372 N 
ATOM      4  C   UNL     1      10.450   3.136   8.543  0.00  0.00    +0.166 C 
ATOM      5  H   UNL     1      10.983   3.641   6.653  0.00  0.00    +0.163 HD
ATOM      6  H   UNL     1      10.363   4.620   9.965  0.00  0.00    +0.159 HD
ATOM      7  H   UNL     1      10.864   5.149   8.403  0.00  0.00    +0.159 HD
ATOM      8  H   UNL     1       9.955   1.221   9.117  0.00  0.00    +0.159 HD
ATOM      9  H   UNL     1       9.850   2.398  10.367  0.00  0.00    +0.159 HD
ENDROOT
BRANCH   1  10
ATOM     10  C   UNL     1      10.687   1.531   6.675  0.00  0.00    +0.151 C 
BRANCH  10  11
ATOM     11  C   UNL     1       9.734   1.529   5.512  0.00  0.00    -0.028 A 
ATOM     12  C   UNL     1       8.640   2.406   5.487  0.00  0.00    +0.005 A 
ATOM     13  C   UNL     1       9.922   0.656   4.430  0.00  0.00    +0.005 A 
ATOM     14  C   UNL     1       7.771   2.426   4.393  0.00  0.00    +0.000 A 
ATOM     15  C   UNL     1       9.052   0.678   3.340  0.00  0.00    +0.000 A 
ATOM     16  C   UNL     1       7.978   1.565   3.321  0.00  0.00    +0.000 A 
ENDBRANCH  10  11
ENDBRANCH   1  10
TORSDOF 2
ENDMDL
MODEL 3
REMARK VINA RESULT:    -5.417     21.514     22.808
REMARK INTER + INTRA:          -6.127
REMARK INTER:                  -5.997
REMARK INTRA:                  -0.130
REMARK UNBOUND:                -0.078
REMARK  Name = 1550473
REMARK  2 active torsions:
REMARK  status: ('A' for Active; 'I' for Inactive)
REMARK    1  A    between atoms: N_1  and  C_4
REMARK    2  A    between atoms: C_4  and  C_5
REMARK                            x       y       z     vdW  Elec       q    Type
REMARK                         _______ _______ _______ _____ _____    ______ ____
ROOT
ATOM      1  N   UNL     1      11.160   1.232   7.493  0.00  0.00    -0.354 N 
ATOM      2  N   UNL     1      12.169  -0.145   9.058  0.00  0.00    -0.372 N 
ATOM      3  N   UNL     1      10.715   1.475   9.781  0.00  0.00    -0.372 N 
ATOM      4  C   UNL     1      11.340   0.865   8.769  0.00  0.00    +0.166 C 
ATOM      5  H   UNL     1      11.686   0.749   6.775  0.00  0.00    +0.163 HD
ATOM      6  H   UNL     1      12.322  -0.447  10.011  0.00  0.00    +0.159 HD
ATOM      7  H   UNL     1      12.659  -0.657   8.334  0.00  0.00    +0.159 HD
ATOM      8  H   UNL     1      10.080   2.248   9.630  0.00  0.00    +0.159 HD
ATOM      9  H   UNL     1      10.864   1.195  10.743  0.00  0.00    +0.159 HD
ENDROOT
BRANCH   1  10
ATOM     10  C   UNL     1      10.238   2.283   7.067  0.00  0.00    +0.151 C 
BRANCH  10  11
ATOM     11  C   UNL     1       9.638   1.903   5.742  0.00  0.00    -0.028 A 
ATOM     12  C   UNL     1      10.211   0.884   4.967  0.00  0.00    +0.005 A 
ATOM     13  C   UNL     1       8.493   2.555   5.258  0.00  0.00    +0.005 A 
ATOM     14  C   UNL     1       9.636   0.510   3.750  0.00  0.00    +0.000 A 
ATOM     15  C   UNL     1       7.923   2.179   4.042  0.00  0.00    +0.000 A 
ATOM     16  C   UNL     1       8.493   1.155   3.289  0.00  0.00    +0.000 A 
ENDBRANCH  10  11
ENDBRANCH   1  10
TORSDOF 2
ENDMDL
MODEL 4
REMARK VINA RESULT:    -5.249     22.287     23.341
REMARK INTER + INTRA:          -5.941
REMARK INTER:                  -5.835
REMARK INTRA:                  -0.105
REMARK UNBOUND:                -0.078
REMARK  Name = 1550473
REMARK  2 active torsions:
REMARK  status: ('A' for Active; 'I' for Inactive)
REMARK    1  A    between atoms: N_1  and  C_4
REMARK    2  A    between atoms: C_4  and  C_5
REMARK                            x       y       z     vdW  Elec       q    Type
REMARK                         _______ _______ _______ _____ _____    ______ ____
ROOT
ATOM      1  N   UNL     1      12.467  10.220   0.960  0.00  0.00    -0.354 N 
ATOM      2  N   UNL     1      13.195  11.593   2.677  0.00  0.00    -0.372 N 
ATOM      3  N   UNL     1      13.964   9.434   2.582  0.00  0.00    -0.372 N 
ATOM      4  C   UNL     1      13.205  10.404   2.063  0.00  0.00    +0.166 C 
ATOM      5  H   UNL     1      11.890  10.986   0.633  0.00  0.00    +0.163 HD
ATOM      6  H   UNL     1      13.744  11.763   3.509  0.00  0.00    +0.159 HD
ATOM      7  H   UNL     1      12.653  12.372   2.322  0.00  0.00    +0.159 HD
ATOM      8  H   UNL     1      14.011   8.512   2.170  0.00  0.00    +0.159 HD
ATOM      9  H   UNL     1      14.512   9.581   3.421  0.00  0.00    +0.159 HD
ENDROOT
BRANCH   1  10
ATOM     10  C   UNL     1      12.449   8.980   0.185  0.00  0.00    +0.151 C 
BRANCH  10  11
ATOM     11  C   UNL     1      11.221   8.961  -0.682  0.00  0.00    -0.028 A 
ATOM     12  C   UNL     1      10.376   7.842  -0.695  0.00  0.00    +0.005 A 
ATOM     13  C   UNL     1      10.894  10.060  -1.491  0.00  0.00    +0.005 A 
ATOM     14  C   UNL     1       9.219   7.835  -1.478  0.00  0.00    +0.000 A 
ATOM     15  C   UNL     1       9.739  10.049  -2.272  0.00  0.00    +0.000 A 
ATOM     16  C   UNL     1       8.900   8.938  -2.263  0.00  0.00    +0.000 A 
ENDBRANCH  10  11
ENDBRANCH   1  10
TORSDOF 2
ENDMDL
MODEL 5
REMARK VINA RESULT:    -5.087     10.640     11.729
REMARK INTER + INTRA:          -5.760
REMARK INTER:                  -5.627
REMARK INTRA:                  -0.133
REMARK UNBOUND:                -0.078
REMARK  Name = 1550473
REMARK  2 active torsions:
REMARK  status: ('A' for Active; 'I' for Inactive)
REMARK    1  A    between atoms: N_1  and  C_4
REMARK    2  A    between atoms: C_4  and  C_5
REMARK                            x       y       z     vdW  Elec       q    Type
REMARK                         _______ _______ _______ _____ _____    ______ ____
ROOT
ATOM      1  N   UNL     1      -9.262  -3.543  -9.627  0.00  0.00    -0.354 N 
ATOM      2  N   UNL     1      -9.753  -2.446 -11.606  0.00  0.00    -0.372 N 
ATOM      3  N   UNL     1     -10.462  -1.530  -9.626  0.00  0.00    -0.372 N 
ATOM      4  C   UNL     1      -9.824  -2.512 -10.271  0.00  0.00    +0.166 C 
ATOM      5  H   UNL     1      -8.820  -4.271 -10.176  0.00  0.00    +0.163 HD
ATOM      6  H   UNL     1     -10.164  -1.678 -12.120  0.00  0.00    +0.159 HD
ATOM      7  H   UNL     1      -9.270  -3.151 -12.150  0.00  0.00    +0.159 HD
ATOM      8  H   UNL     1     -10.555  -1.523  -8.619  0.00  0.00    +0.159 HD
ATOM      9  H   UNL     1     -10.890  -0.759 -10.123  0.00  0.00    +0.159 HD
ENDROOT
BRANCH   1  10
ATOM     10  C   UNL     1      -9.237  -3.682  -8.172  0.00  0.00    +0.151 C 
BRANCH  10  11
ATOM     11  C   UNL     1      -7.807  -3.743  -7.709  0.00  0.00    -0.028 A 
ATOM     12  C   UNL     1      -6.863  -2.825  -8.191  0.00  0.00    +0.005 A 
ATOM     13  C   UNL     1      -7.392  -4.713  -6.784  0.00  0.00    +0.005 A 
ATOM     14  C   UNL     1      -5.542  -2.862  -7.739  0.00  0.00    +0.000 A 
ATOM     15  C   UNL     1      -6.072  -4.748  -6.335  0.00  0.00    +0.000 A 
ATOM     16  C   UNL     1      -5.148  -3.821  -6.811  0.00  0.00    +0.000 A 
ENDBRANCH  10  11
ENDBRANCH   1  10
TORSDOF 2
ENDMDL
MODEL 6
REMARK VINA RESULT:    -5.065      3.716      5.123
REMARK INTER + INTRA:          -5.735
REMARK INTER:                  -5.599
REMARK INTRA:                  -0.136
REMARK UNBOUND:                -0.078
REMARK  Name = 1550473
REMARK  2 active torsions:
REMARK  status: ('A' for Active; 'I' for Inactive)
REMARK    1  A    between atoms: N_1  and  C_4
REMARK    2  A    between atoms: C_4  and  C_5
REMARK                            x       y       z     vdW  Elec       q    Type
REMARK                         _______ _______ _______ _____ _____    ______ ____
ROOT
ATOM      1  N   UNL     1      -0.876  -5.687 -10.277  0.00  0.00    -0.354 N 
ATOM      2  N   UNL     1      -2.024  -3.757  -9.710  0.00  0.00    -0.372 N 
ATOM      3  N   UNL     1      -0.692  -4.759  -8.133  0.00  0.00    -0.372 N 
ATOM      4  C   UNL     1      -1.189  -4.748  -9.375  0.00  0.00    +0.166 C 
ATOM      5  H   UNL     1      -1.310  -5.639 -11.192  0.00  0.00    +0.163 HD
ATOM      6  H   UNL     1      -2.276  -3.033  -9.052  0.00  0.00    +0.159 HD
ATOM      7  H   UNL     1      -2.421  -3.686 -10.640  0.00  0.00    +0.159 HD
ATOM      8  H   UNL     1      -0.061  -5.483  -7.816  0.00  0.00    +0.159 HD
ATOM      9  H   UNL     1      -0.941  -4.049  -7.456  0.00  0.00    +0.159 HD
ENDROOT
BRANCH   1  10
ATOM     10  C   UNL     1       0.065  -6.778 -10.030  0.00  0.00    +0.151 C 
BRANCH  10  11
ATOM     11  C   UNL     1       0.891  -7.004 -11.266  0.00  0.00    -0.028 A 
ATOM     12  C   UNL     1       1.025  -5.992 -12.228  0.00  0.00    +0.005 A 
ATOM     13  C   UNL     1       1.546  -8.227 -11.480  0.00  0.00    +0.005 A 
ATOM     14  C   UNL     1       1.816  -6.191 -13.362  0.00  0.00    +0.000 A 
ATOM     15  C   UNL     1       2.334  -8.422 -12.614  0.00  0.00    +0.000 A 
ATOM     16  C   UNL     1       2.471  -7.403 -13.553  0.00  0.00    +0.000 A 
ENDBRANCH  10  11
ENDBRANCH   1  10
TORSDOF 2
ENDMDL
MODEL 7
REMARK VINA RESULT:    -4.924     24.046     25.061
REMARK INTER + INTRA:          -5.578
REMARK INTER:                  -5.443
REMARK INTRA:                  -0.134
REMARK UNBOUND:                -0.078
REMARK  Name = 1550473
REMARK  2 active torsions:
REMARK  status: ('A' for Active; 'I' for Inactive)
REMARK    1  A    between atoms: N_1  and  C_4
REMARK    2  A    between atoms: C_4  and  C_5
REMARK                            x       y       z     vdW  Elec       q    Type
REMARK                         _______ _______ _______ _____ _____    ______ ____
ROOT
ATOM      1  N   UNL     1      12.054  10.392   0.793  0.00  0.00    -0.354 N 
ATOM      2  N   UNL     1      10.456  10.696  -0.855  0.00  0.00    -0.372 N 
ATOM      3  N   UNL     1      11.431   8.632  -0.622  0.00  0.00    -0.372 N 
ATOM      4  C   UNL     1      11.325   9.902  -0.218  0.00  0.00    +0.166 C 
ATOM      5  H   UNL     1      11.949  11.372   1.032  0.00  0.00    +0.163 HD
ATOM      6  H   UNL     1       9.890  10.354  -1.619  0.00  0.00    +0.159 HD
ATOM      7  H   UNL     1      10.320  11.663  -0.585  0.00  0.00    +0.159 HD
ATOM      8  H   UNL     1      12.072   7.983  -0.187  0.00  0.00    +0.159 HD
ATOM      9  H   UNL     1      10.881   8.274  -1.393  0.00  0.00    +0.159 HD
ENDROOT
BRANCH   1  10
ATOM     10  C   UNL     1      12.989   9.598   1.587  0.00  0.00    +0.151 C 
BRANCH  10  11
ATOM     11  C   UNL     1      12.637   9.734   3.043  0.00  0.00    -0.028 A 
ATOM     12  C   UNL     1      13.570   9.401   4.036  0.00  0.00    +0.005 A 
ATOM     13  C   UNL     1      11.373  10.200   3.436  0.00  0.00    +0.005 A 
ATOM     14  C   UNL     1      13.254   9.556   5.388  0.00  0.00    +0.000 A 
ATOM     15  C   UNL     1      11.061  10.353   4.787  0.00  0.00    +0.000 A 
ATOM     16  C   UNL     1      12.002  10.033   5.762  0.00  0.00    +0.000 A 
ENDBRANCH  10  11
ENDBRANCH   1  10
TORSDOF 2
ENDMDL
MODEL 8
REMARK VINA RESULT:    -4.905      3.701      4.862
REMARK INTER + INTRA:          -5.556
REMARK INTER:                  -5.435
REMARK INTRA:                  -0.121
REMARK UNBOUND:                -0.078
REMARK  Name = 1550473
REMARK  2 active torsions:
REMARK  status: ('A' for Active; 'I' for Inactive)
REMARK    1  A    between atoms: N_1  and  C_4
REMARK    2  A    between atoms: C_4  and  C_5
REMARK                            x       y       z     vdW  Elec       q    Type
REMARK                         _______ _______ _______ _____ _____    ______ ____
ROOT
ATOM      1  N   UNL     1      -1.891  -9.153 -14.712  0.00  0.00    -0.354 N 
ATOM      2  N   UNL     1      -3.987  -9.414 -15.660  0.00  0.00    -0.372 N 
ATOM      3  N   UNL     1      -2.643 -11.258 -15.414  0.00  0.00    -0.372 N 
ATOM      4  C   UNL     1      -2.826  -9.942 -15.256  0.00  0.00    +0.166 C 
ATOM      5  H   UNL     1      -2.078  -8.159 -14.647  0.00  0.00    +0.163 HD
ATOM      6  H   UNL     1      -4.713  -9.986 -16.071  0.00  0.00    +0.159 HD
ATOM      7  H   UNL     1      -4.190  -8.428 -15.552  0.00  0.00    +0.159 HD
ATOM      8  H   UNL     1      -1.786 -11.717 -15.135  0.00  0.00    +0.159 HD
ATOM      9  H   UNL     1      -3.353 -11.845 -15.834  0.00  0.00    +0.159 HD
ENDROOT
BRANCH   1  10
ATOM     10  C   UNL     1      -0.613  -9.637 -14.190  0.00  0.00    +0.151 C 
BRANCH  10  11
ATOM     11  C   UNL     1       0.244  -8.458 -13.818  0.00  0.00    -0.028 A 
ATOM     12  C   UNL     1       1.622  -8.617 -13.615  0.00  0.00    +0.005 A 
ATOM     13  C   UNL     1      -0.316  -7.180 -13.673  0.00  0.00    +0.005 A 
ATOM     14  C   UNL     1       2.424  -7.517 -13.298  0.00  0.00    +0.000 A 
ATOM     15  C   UNL     1       0.487  -6.084 -13.356  0.00  0.00    +0.000 A 
ATOM     16  C   UNL     1       1.857  -6.253 -13.171  0.00  0.00    +0.000 A 
ENDBRANCH  10  11
ENDBRANCH   1  10
TORSDOF 2
ENDMDL
MODEL 9
REMARK VINA RESULT:    -4.867      1.780      3.207
REMARK INTER + INTRA:          -5.514
REMARK INTER:                  -5.382
REMARK INTRA:                  -0.132
REMARK UNBOUND:                -0.078
REMARK  Name = 1550473
REMARK  2 active torsions:
REMARK  status: ('A' for Active; 'I' for Inactive)
REMARK    1  A    between atoms: N_1  and  C_4
REMARK    2  A    between atoms: C_4  and  C_5
REMARK                            x       y       z     vdW  Elec       q    Type
REMARK                         _______ _______ _______ _____ _____    ______ ____
ROOT
ATOM      1  N   UNL     1       0.791  -7.814 -12.162  0.00  0.00    -0.354 N 
ATOM      2  N   UNL     1       1.642  -9.951 -12.430  0.00  0.00    -0.372 N 
ATOM      3  N   UNL     1       2.783  -8.180 -13.340  0.00  0.00    -0.372 N 
ATOM      4  C   UNL     1       1.735  -8.633 -12.644  0.00  0.00    +0.166 C 
ATOM      5  H   UNL     1       0.005  -8.222 -11.668  0.00  0.00    +0.163 HD
ATOM      6  H   UNL     1       2.341 -10.593 -12.779  0.00  0.00    +0.159 HD
ATOM      7  H   UNL     1       0.880 -10.352 -11.897  0.00  0.00    +0.159 HD
ATOM      8  H   UNL     1       2.908  -7.197 -13.541  0.00  0.00    +0.159 HD
ATOM      9  H   UNL     1       3.487  -8.809 -13.707  0.00  0.00    +0.159 HD
ENDROOT
BRANCH   1  10
ATOM     10  C   UNL     1       0.826  -6.358 -12.293  0.00  0.00    +0.151 C 
BRANCH  10  11
ATOM     11  C   UNL     1       0.183  -5.740 -11.082  0.00  0.00    -0.028 A 
ATOM     12  C   UNL     1      -0.003  -6.492  -9.913  0.00  0.00    +0.005 A 
ATOM     13  C   UNL     1      -0.238  -4.402 -11.096  0.00  0.00    +0.005 A 
ATOM     14  C   UNL     1      -0.573  -5.909  -8.778  0.00  0.00    +0.000 A 
ATOM     15  C   UNL     1      -0.808  -3.824  -9.962  0.00  0.00    +0.000 A 
ATOM     16  C   UNL     1      -0.973  -4.578  -8.802  0.00  0.00    +0.000 A 
ENDBRANCH  10  11
ENDBRANCH   1  10
TORSDOF 2
ENDMDL
