MODEL 1
REMARK VINA RESULT:    -5.703      0.000      0.000
REMARK INTER + INTRA:          -6.487
REMARK INTER:                  -6.370
REMARK INTRA:                  -0.117
REMARK UNBOUND:                -0.117
REMARK  Name = 1550473
REMARK  2 active torsions:
REMARK  status: ('A' for Active; 'I' for Inactive)
REMARK    1  A    between atoms: N_1  and  C_4
REMARK    2  A    between atoms: C_4  and  C_5
REMARK                            x       y       z     vdW  Elec       q    Type
REMARK                         _______ _______ _______ _____ _____    ______ ____
ROOT
ATOM      1  N   UNL     1      13.540  -8.147   6.280  0.00  0.00    -0.354 N 
ATOM      2  N   UNL     1      12.100  -8.577   4.518  0.00  0.00    -0.372 N 
ATOM      3  N   UNL     1      11.719  -9.600   6.536  0.00  0.00    -0.372 N 
ATOM      4  C   UNL     1      12.461  -8.774   5.791  0.00  0.00    +0.166 C 
ATOM      5  H   UNL     1      14.078  -7.557   5.656  0.00  0.00    +0.163 HD
ATOM      6  H   UNL     1      11.289  -9.033   4.122  0.00  0.00    +0.159 HD
ATOM      7  H   UNL     1      12.613  -7.951   3.909  0.00  0.00    +0.159 HD
ATOM      8  H   UNL     1      11.942  -9.796   7.503  0.00  0.00    +0.159 HD
ATOM      9  H   UNL     1      10.910 -10.075   6.154  0.00  0.00    +0.159 HD
ENDROOT
BRANCH   1  10
ATOM     10  C   UNL     1      13.987  -8.251   7.668  0.00  0.00    +0.151 C 
BRANCH  10  11
ATOM     11  C   UNL     1      15.121  -7.289   7.892  0.00  0.00    -0.028 A 
ATOM     12  C   UNL     1      15.966  -6.926   6.833  0.00  0.00    +0.005 A 
ATOM     13  C   UNL     1      15.352  -6.733   9.160  0.00  0.00    +0.005 A 
ATOM     14  C   UNL     1      17.001  -6.010   7.034  0.00  0.00    +0.000 A 
ATOM     15  C   UNL     1      16.387  -5.820   9.356  0.00  0.00    +0.000 A 
ATOM     16  C   UNL     1      17.210  -5.456   8.293  0.00  0.00    +0.000 A 
ENDBRANCH  10  11
ENDBRANCH   1  10
TORSDOF 2
ENDMDL
MODEL 2
REMARK VINA RESULT:    -5.446      3.590      4.981
REMARK INTER + INTRA:          -6.200
REMARK INTER:                  -6.064
REMARK INTRA:                  -0.136
REMARK UNBOUND:                -0.117
REMARK  Name = 1550473
REMARK  2 active torsions:
REMARK  status: ('A' for Active; 'I' for Inactive)
REMARK    1  A    between atoms: N_1  and  C_4
REMARK    2  A    between atoms: C_4  and  C_5
REMARK                            x       y       z     vdW  Elec       q    Type
REMARK                         _______ _______ _______ _____ _____    ______ ____
ROOT
ATOM      1  N   UNL     1      17.625  -5.818   8.497  0.00  0.00    -0.354 N 
ATOM      2  N   UNL     1      17.371  -3.979   9.882  0.00  0.00    -0.372 N 
ATOM      3  N   UNL     1      15.817  -5.664   9.980  0.00  0.00    -0.372 N 
ATOM      4  C   UNL     1      16.937  -5.167   9.444  0.00  0.00    +0.166 C 
ATOM      5  H   UNL     1      18.449  -5.374   8.110  0.00  0.00    +0.163 HD
ATOM      6  H   UNL     1      16.875  -3.466  10.598  0.00  0.00    +0.159 HD
ATOM      7  H   UNL     1      18.221  -3.559   9.526  0.00  0.00    +0.159 HD
ATOM      8  H   UNL     1      15.433  -6.554   9.689  0.00  0.00    +0.159 HD
ATOM      9  H   UNL     1      15.300  -5.161  10.690  0.00  0.00    +0.159 HD
ENDROOT
BRANCH   1  10
ATOM     10  C   UNL     1      17.266  -7.142   7.990  0.00  0.00    +0.151 C 
BRANCH  10  11
ATOM     11  C   UNL     1      16.410  -6.983   6.764  0.00  0.00    -0.028 A 
ATOM     12  C   UNL     1      16.638  -5.930   5.867  0.00  0.00    +0.005 A 
ATOM     13  C   UNL     1      15.371  -7.887   6.491  0.00  0.00    +0.005 A 
ATOM     14  C   UNL     1      15.862  -5.800   4.713  0.00  0.00    +0.000 A 
ATOM     15  C   UNL     1      14.598  -7.753   5.338  0.00  0.00    +0.000 A 
ATOM     16  C   UNL     1      14.845  -6.710   4.448  0.00  0.00    +0.000 A 
ENDBRANCH  10  11
ENDBRANCH   1  10
TORSDOF 2
ENDMDL
MODEL 3
REMARK VINA RESULT:    -5.435      1.233      2.040
REMARK INTER + INTRA:          -6.187
REMARK INTER:                  -6.092
REMARK INTRA:                  -0.095
REMARK UNBOUND:                -0.117
REMARK  Name = 1550473
REMARK  2 active torsions:
REMARK  status: ('A' for Active; 'I' for Inactive)
REMARK    1  A    between atoms: N_1  and  C_4
REMARK    2  A    between atoms: C_4  and  C_5
REMARK                            x       y       z     vdW  Elec       q    Type
REMARK                         _______ _______ _______ _____ _____    ______ ____
ROOT
ATOM      1  N   UNL     1      13.905  -7.649   4.548  0.00  0.00    -0.354 N 
ATOM      2  N   UNL     1      11.689  -8.173   4.128  0.00  0.00    -0.372 N 
ATOM      3  N   UNL     1      13.082  -9.809   4.934  0.00  0.00    -0.372 N 
ATOM      4  C   UNL     1      12.907  -8.543   4.540  0.00  0.00    +0.166 C 
ATOM      5  H   UNL     1      13.716  -6.713   4.208  0.00  0.00    +0.163 HD
ATOM      6  H   UNL     1      10.915  -8.825   4.115  0.00  0.00    +0.159 HD
ATOM      7  H   UNL     1      11.491  -7.225   3.832  0.00  0.00    +0.159 HD
ATOM      8  H   UNL     1      13.978 -10.152   5.251  0.00  0.00    +0.159 HD
ATOM      9  H   UNL     1      12.323 -10.479   4.917  0.00  0.00    +0.159 HD
ENDROOT
BRANCH   1  10
ATOM     10  C   UNL     1      15.256  -7.935   5.028  0.00  0.00    +0.151 C 
BRANCH  10  11
ATOM     11  C   UNL     1      15.448  -7.284   6.370  0.00  0.00    -0.028 A 
ATOM     12  C   UNL     1      14.632  -7.636   7.455  0.00  0.00    +0.005 A 
ATOM     13  C   UNL     1      16.448  -6.319   6.564  0.00  0.00    +0.005 A 
ATOM     14  C   UNL     1      14.830  -7.053   8.710  0.00  0.00    +0.000 A 
ATOM     15  C   UNL     1      16.642  -5.739   7.818  0.00  0.00    +0.000 A 
ATOM     16  C   UNL     1      15.834  -6.109   8.891  0.00  0.00    +0.000 A 
ENDBRANCH  10  11
ENDBRANCH   1  10
TORSDOF 2
ENDMDL
MODEL 4
REMARK VINA RESULT:    -5.377      3.656      4.735
REMARK INTER + INTRA:          -6.122
REMARK INTER:                  -5.943
REMARK INTRA:                  -0.179
REMARK UNBOUND:                -0.117
REMARK  Name = 1550473
REMARK  2 active torsions:
REMARK  status: ('A' for Active; 'I' for Inactive)
REMARK    1  A    between atoms: N_1  and  C_4
REMARK    2  A    between atoms: C_4  and  C_5
REMARK                            x       y       z     vdW  Elec       q    Type
REMARK                         _______ _______ _______ _____ _____    ______ ____
ROOT
ATOM      1  N   UNL     1      17.711  -7.666   8.670  0.00  0.00    -0.354 N 
ATOM      2  N   UNL     1      16.978  -8.059  10.831  0.00  0.00    -0.372 N 
ATOM      3  N   UNL     1      16.878  -9.764   9.299  0.00  0.00    -0.372 N 
ATOM      4  C   UNL     1      17.193  -8.496   9.585  0.00  0.00    +0.166 C 
ATOM      5  H   UNL     1      17.901  -6.708   8.942  0.00  0.00    +0.163 HD
ATOM      6  H   UNL     1      16.591  -8.663  11.544  0.00  0.00    +0.159 HD
ATOM      7  H   UNL     1      17.211  -7.114  11.112  0.00  0.00    +0.159 HD
ATOM      8  H   UNL     1      17.011 -10.154   8.375  0.00  0.00    +0.159 HD
ATOM      9  H   UNL     1      16.479 -10.381   9.996  0.00  0.00    +0.159 HD
ENDROOT
BRANCH   1  10
ATOM     10  C   UNL     1      18.035  -8.059   7.299  0.00  0.00    +0.151 C 
BRANCH  10  11
ATOM     11  C   UNL     1      16.982  -7.517   6.372  0.00  0.00    -0.028 A 
ATOM     12  C   UNL     1      15.879  -8.303   6.009  0.00  0.00    +0.005 A 
ATOM     13  C   UNL     1      17.079  -6.215   5.857  0.00  0.00    +0.005 A 
ATOM     14  C   UNL     1      14.886  -7.790   5.172  0.00  0.00    +0.000 A 
ATOM     15  C   UNL     1      16.086  -5.706   5.021  0.00  0.00    +0.000 A 
ATOM     16  C   UNL     1      14.988  -6.492   4.681  0.00  0.00    +0.000 A 
ENDBRANCH  10  11
ENDBRANCH   1  10
TORSDOF 2
ENDMDL
MODEL 5
REMARK VINA RESULT:    -5.315      1.381      2.319
REMARK INTER + INTRA:          -6.053
REMARK INTER:                  -5.924
REMARK INTRA:                  -0.129
REMARK UNBOUND:                -0.117
REMARK  Name = 1550473
REMARK  2 active torsions:
REMARK  status: ('A' for Active; 'I' for Inactive)
REMARK    1  A    between atoms: N_1  and  C_4
REMARK    2  A    between atoms: C_4  and  C_5
REMARK                            x       y       z     vdW  Elec       q    Type
REMARK                         _______ _______ _______ _____ _____    ______ ____
ROOT
ATOM      1  N   UNL     1      14.137  -7.587   6.809  0.00  0.00    -0.354 N 
ATOM      2  N   UNL     1      12.454  -8.939   5.969  0.00  0.00    -0.372 N 
ATOM      3  N   UNL     1      13.118  -9.218   8.148  0.00  0.00    -0.372 N 
ATOM      4  C   UNL     1      13.248  -8.574   6.983  0.00  0.00    +0.166 C 
ATOM      5  H   UNL     1      14.207  -7.159   5.893  0.00  0.00    +0.163 HD
ATOM      6  H   UNL     1      11.771  -9.678   6.072  0.00  0.00    +0.159 HD
ATOM      7  H   UNL     1      12.495  -8.478   5.068  0.00  0.00    +0.159 HD
ATOM      8  H   UNL     1      13.691  -8.994   8.950  0.00  0.00    +0.159 HD
ATOM      9  H   UNL     1      12.448  -9.968   8.267  0.00  0.00    +0.159 HD
ENDROOT
BRANCH   1  10
ATOM     10  C   UNL     1      15.010  -7.077   7.864  0.00  0.00    +0.151 C 
BRANCH  10  11
ATOM     11  C   UNL     1      16.308  -6.625   7.253  0.00  0.00    -0.028 A 
ATOM     12  C   UNL     1      17.416  -6.342   8.063  0.00  0.00    +0.005 A 
ATOM     13  C   UNL     1      16.436  -6.484   5.862  0.00  0.00    +0.005 A 
ATOM     14  C   UNL     1      18.631  -5.952   7.494  0.00  0.00    +0.000 A 
ATOM     15  C   UNL     1      17.650  -6.092   5.298  0.00  0.00    +0.000 A 
ATOM     16  C   UNL     1      18.748  -5.829   6.113  0.00  0.00    +0.000 A 
ENDBRANCH  10  11
ENDBRANCH   1  10
TORSDOF 2
ENDMDL
MODEL 6
REMARK VINA RESULT:    -5.215     17.357     18.174
REMARK INTER + INTRA:          -5.941
REMARK INTER:                  -5.792
REMARK INTRA:                  -0.150
REMARK UNBOUND:                -0.117
REMARK  Name = 1550473
REMARK  2 active torsions:
REMARK  status: ('A' for Active; 'I' for Inactive)
REMARK    1  A    between atoms: N_1  and  C_4
REMARK    2  A    between atoms: C_4  and  C_5
REMARK                            x       y       z     vdW  Elec       q    Type
REMARK                         _______ _______ _______ _____ _____    ______ ____
ROOT
ATOM      1  N   UNL     1       6.056   7.539  12.964  0.00  0.00    -0.354 N 
ATOM      2  N   UNL     1       3.871   7.395  12.209  0.00  0.00    -0.372 N 
ATOM      3  N   UNL     1       4.402   8.990  13.771  0.00  0.00    -0.372 N 
ATOM      4  C   UNL     1       4.790   7.978  12.988  0.00  0.00    +0.166 C 
ATOM      5  H   UNL     1       6.280   6.748  12.371  0.00  0.00    +0.163 HD
ATOM      6  H   UNL     1       2.909   7.706  12.204  0.00  0.00    +0.159 HD
ATOM      7  H   UNL     1       4.108   6.634  11.584  0.00  0.00    +0.159 HD
ATOM      8  H   UNL     1       5.046   9.468  14.387  0.00  0.00    +0.159 HD
ATOM      9  H   UNL     1       3.441   9.308  13.788  0.00  0.00    +0.159 HD
ENDROOT
BRANCH   1  10
ATOM     10  C   UNL     1       7.144   8.140  13.733  0.00  0.00    +0.151 C 
BRANCH  10  11
ATOM     11  C   UNL     1       7.659   7.134  14.725  0.00  0.00    -0.028 A 
ATOM     12  C   UNL     1       8.470   7.539  15.795  0.00  0.00    +0.005 A 
ATOM     13  C   UNL     1       7.333   5.774  14.604  0.00  0.00    +0.005 A 
ATOM     14  C   UNL     1       8.923   6.609  16.733  0.00  0.00    +0.000 A 
ATOM     15  C   UNL     1       7.788   4.848  15.542  0.00  0.00    +0.000 A 
ATOM     16  C   UNL     1       8.581   5.266  16.608  0.00  0.00    +0.000 A 
ENDBRANCH  10  11
ENDBRANCH   1  10
TORSDOF 2
ENDMDL
MODEL 7
REMARK VINA RESULT:    -5.165      1.992      2.799
REMARK INTER + INTRA:          -5.886
REMARK INTER:                  -5.763
REMARK INTRA:                  -0.123
REMARK UNBOUND:                -0.117
REMARK  Name = 1550473
REMARK  2 active torsions:
REMARK  status: ('A' for Active; 'I' for Inactive)
REMARK    1  A    between atoms: N_1  and  C_4
REMARK    2  A    between atoms: C_4  and  C_5
REMARK                            x       y       z     vdW  Elec       q    Type
REMARK                         _______ _______ _______ _____ _____    ______ ____
ROOT
ATOM      1  N   UNL     1      15.863  -7.465   5.548  0.00  0.00    -0.354 N 
ATOM      2  N   UNL     1      15.329  -6.083   3.767  0.00  0.00    -0.372 N 
ATOM      3  N   UNL     1      13.787  -7.629   4.472  0.00  0.00    -0.372 N 
ATOM      4  C   UNL     1      14.994  -7.070   4.607  0.00  0.00    +0.166 C 
ATOM      5  H   UNL     1      16.774  -7.021   5.578  0.00  0.00    +0.163 HD
ATOM      6  H   UNL     1      14.693  -5.761   3.050  0.00  0.00    +0.159 HD
ATOM      7  H   UNL     1      16.222  -5.610   3.830  0.00  0.00    +0.159 HD
ATOM      8  H   UNL     1      13.476  -8.383   5.071  0.00  0.00    +0.159 HD
ATOM      9  H   UNL     1      13.141  -7.329   3.753  0.00  0.00    +0.159 HD
ENDROOT
BRANCH   1  10
ATOM     10  C   UNL     1      15.576  -8.493   6.546  0.00  0.00    +0.151 C 
BRANCH  10  11
ATOM     11  C   UNL     1      15.668  -7.885   7.918  0.00  0.00    -0.028 A 
ATOM     12  C   UNL     1      15.677  -8.701   9.059  0.00  0.00    +0.005 A 
ATOM     13  C   UNL     1      15.753  -6.494   8.084  0.00  0.00    +0.005 A 
ATOM     14  C   UNL     1      15.792  -8.139  10.333  0.00  0.00    +0.000 A 
ATOM     15  C   UNL     1      15.867  -5.937   9.357  0.00  0.00    +0.000 A 
ATOM     16  C   UNL     1      15.889  -6.759  10.481  0.00  0.00    +0.000 A 
ENDBRANCH  10  11
ENDBRANCH   1  10
TORSDOF 2
ENDMDL
MODEL 8
REMARK VINA RESULT:    -5.085      2.350      3.412
REMARK INTER + INTRA:          -5.796
REMARK INTER:                  -5.704
REMARK INTRA:                  -0.092
REMARK UNBOUND:                -0.117
REMARK  Name = 1550473
REMARK  2 active torsions:
REMARK  status: ('A' for Active; 'I' for Inactive)
REMARK    1  A    between atoms: N_1  and  C_4
REMARK    2  A    between atoms: C_4  and  C_5
REMARK                            x       y       z     vdW  Elec       q    Type
REMARK                         _______ _______ _______ _____ _____    ______ ____
ROOT
ATOM      1  N   UNL     1      15.312  -6.556   6.168  0.00  0.00    -0.354 N 
ATOM      2  N   UNL     1      14.170  -6.975   4.198  0.00  0.00    -0.372 N 
ATOM      3  N   UNL     1      16.037  -5.642   4.135  0.00  0.00    -0.372 N 
ATOM      4  C   UNL     1      15.182  -6.386   4.846  0.00  0.00    +0.166 C 
ATOM      5  H   UNL     1      14.614  -7.107   6.654  0.00  0.00    +0.163 HD
ATOM      6  H   UNL     1      14.048  -6.868   3.200  0.00  0.00    +0.159 HD
ATOM      7  H   UNL     1      13.500  -7.563   4.678  0.00  0.00    +0.159 HD
ATOM      8  H   UNL     1      16.818  -5.166   4.566  0.00  0.00    +0.159 HD
ATOM      9  H   UNL     1      15.925  -5.514   3.137  0.00  0.00    +0.159 HD
ENDROOT
BRANCH   1  10
ATOM     10  C   UNL     1      16.410  -6.002   6.960  0.00  0.00    +0.151 C 
BRANCH  10  11
ATOM     11  C   UNL     1      16.402  -6.637   8.323  0.00  0.00    -0.028 A 
ATOM     12  C   UNL     1      15.656  -6.072   9.367  0.00  0.00    +0.005 A 
ATOM     13  C   UNL     1      17.133  -7.808   8.575  0.00  0.00    +0.005 A 
ATOM     14  C   UNL     1      15.624  -6.678  10.625  0.00  0.00    +0.000 A 
ATOM     15  C   UNL     1      17.100  -8.410   9.832  0.00  0.00    +0.000 A 
ATOM     16  C   UNL     1      16.343  -7.846  10.857  0.00  0.00    +0.000 A 
ENDBRANCH  10  11
ENDBRANCH   1  10
TORSDOF 2
ENDMDL
MODEL 9
REMARK VINA RESULT:    -5.004      2.522      3.642
REMARK INTER + INTRA:          -5.706
REMARK INTER:                  -5.535
REMARK INTRA:                  -0.170
REMARK UNBOUND:                -0.117
REMARK  Name = 1550473
REMARK  2 active torsions:
REMARK  status: ('A' for Active; 'I' for Inactive)
REMARK    1  A    between atoms: N_1  and  C_4
REMARK    2  A    between atoms: C_4  and  C_5
REMARK                            x       y       z     vdW  Elec       q    Type
REMARK                         _______ _______ _______ _____ _____    ______ ____
ROOT
ATOM      1  N   UNL     1      14.572  -9.327   8.192  0.00  0.00    -0.354 N 
ATOM      2  N   UNL     1      15.390 -11.278   9.135  0.00  0.00    -0.372 N 
ATOM      3  N   UNL     1      15.796  -9.282  10.190  0.00  0.00    -0.372 N 
ATOM      4  C   UNL     1      15.248  -9.947   9.168  0.00  0.00    +0.166 C 
ATOM      5  H   UNL     1      14.208  -9.885   7.429  0.00  0.00    +0.163 HD
ATOM      6  H   UNL     1      15.891 -11.774   9.859  0.00  0.00    +0.159 HD
ATOM      7  H   UNL     1      14.984 -11.839   8.395  0.00  0.00    +0.159 HD
ATOM      8  H   UNL     1      15.730  -8.276  10.271  0.00  0.00    +0.159 HD
ATOM      9  H   UNL     1      16.312  -9.759  10.918  0.00  0.00    +0.159 HD
ENDROOT
BRANCH   1  10
ATOM     10  C   UNL     1      14.316  -7.888   8.162  0.00  0.00    +0.151 C 
BRANCH  10  11
ATOM     11  C   UNL     1      15.133  -7.266   7.064  0.00  0.00    -0.028 A 
ATOM     12  C   UNL     1      16.310  -6.565   7.362  0.00  0.00    +0.005 A 
ATOM     13  C   UNL     1      14.737  -7.378   5.722  0.00  0.00    +0.005 A 
ATOM     14  C   UNL     1      17.085  -6.012   6.340  0.00  0.00    +0.000 A 
ATOM     15  C   UNL     1      15.514  -6.824   4.704  0.00  0.00    +0.000 A 
ATOM     16  C   UNL     1      16.689  -6.144   5.013  0.00  0.00    +0.000 A 
ENDBRANCH  10  11
ENDBRANCH   1  10
TORSDOF 2
ENDMDL
