MODEL 1
REMARK VINA RESULT:    -5.948      0.000      0.000
REMARK INTER + INTRA:          -6.789
REMARK INTER:                  -6.643
REMARK INTRA:                  -0.146
REMARK UNBOUND:                -0.146
REMARK  Name = 1550473
REMARK  2 active torsions:
REMARK  status: ('A' for Active; 'I' for Inactive)
REMARK    1  A    between atoms: N_1  and  C_4
REMARK    2  A    between atoms: C_4  and  C_5
REMARK                            x       y       z     vdW  Elec       q    Type
REMARK                         _______ _______ _______ _____ _____    ______ ____
ROOT
ATOM      1  N   UNL     1     -23.000  -5.603  -6.933  0.00  0.00    -0.354 N 
ATOM      2  N   UNL     1     -22.227  -6.938  -5.205  0.00  0.00    -0.372 N 
ATOM      3  N   UNL     1     -21.430  -4.794  -5.393  0.00  0.00    -0.372 N 
ATOM      4  C   UNL     1     -22.222  -5.767  -5.855  0.00  0.00    +0.166 C 
ATOM      5  H   UNL     1     -23.555  -6.389  -7.251  0.00  0.00    +0.163 HD
ATOM      6  H   UNL     1     -21.654  -7.090  -4.387  0.00  0.00    +0.159 HD
ATOM      7  H   UNL     1     -22.818  -7.707  -5.498  0.00  0.00    +0.159 HD
ATOM      8  H   UNL     1     -21.375  -3.889  -5.841  0.00  0.00    +0.159 HD
ATOM      9  H   UNL     1     -20.840  -4.932  -4.582  0.00  0.00    +0.159 HD
ENDROOT
BRANCH   1  10
ATOM     10  C   UNL     1     -23.108  -4.350  -7.680  0.00  0.00    +0.151 C 
BRANCH  10  11
ATOM     11  C   UNL     1     -24.513  -3.828  -7.562  0.00  0.00    -0.028 A 
ATOM     12  C   UNL     1     -24.824  -2.522  -7.968  0.00  0.00    +0.005 A 
ATOM     13  C   UNL     1     -25.540  -4.636  -7.050  0.00  0.00    +0.005 A 
ATOM     14  C   UNL     1     -26.135  -2.047  -7.886  0.00  0.00    +0.000 A 
ATOM     15  C   UNL     1     -26.848  -4.158  -6.969  0.00  0.00    +0.000 A 
ATOM     16  C   UNL     1     -27.145  -2.864  -7.390  0.00  0.00    +0.000 A 
ENDBRANCH  10  11
ENDBRANCH   1  10
TORSDOF 2
ENDMDL
MODEL 2
REMARK VINA RESULT:    -5.814      0.782      1.868
REMARK INTER + INTRA:          -6.640
REMARK INTER:                  -6.554
REMARK INTRA:                  -0.085
REMARK UNBOUND:                -0.146
REMARK  Name = 1550473
REMARK  2 active torsions:
REMARK  status: ('A' for Active; 'I' for Inactive)
REMARK    1  A    between atoms: N_1  and  C_4
REMARK    2  A    between atoms: C_4  and  C_5
REMARK                            x       y       z     vdW  Elec       q    Type
REMARK                         _______ _______ _______ _____ _____    ______ ____
ROOT
ATOM      1  N   UNL     1     -22.869  -5.151  -6.119  0.00  0.00    -0.354 N 
ATOM      2  N   UNL     1     -22.640  -6.655  -4.372  0.00  0.00    -0.372 N 
ATOM      3  N   UNL     1     -23.461  -7.403  -6.380  0.00  0.00    -0.372 N 
ATOM      4  C   UNL     1     -22.993  -6.395  -5.637  0.00  0.00    +0.166 C 
ATOM      5  H   UNL     1     -22.536  -4.424  -5.495  0.00  0.00    +0.163 HD
ATOM      6  H   UNL     1     -22.719  -7.584  -3.982  0.00  0.00    +0.159 HD
ATOM      7  H   UNL     1     -22.265  -5.936  -3.765  0.00  0.00    +0.159 HD
ATOM      8  H   UNL     1     -23.750  -7.271  -7.340  0.00  0.00    +0.159 HD
ATOM      9  H   UNL     1     -23.559  -8.338  -6.004  0.00  0.00    +0.159 HD
ENDROOT
BRANCH   1  10
ATOM     10  C   UNL     1     -23.174  -4.774  -7.498  0.00  0.00    +0.151 C 
BRANCH  10  11
ATOM     11  C   UNL     1     -24.479  -4.027  -7.525  0.00  0.00    -0.028 A 
ATOM     12  C   UNL     1     -25.662  -4.644  -7.092  0.00  0.00    +0.005 A 
ATOM     13  C   UNL     1     -24.539  -2.700  -7.978  0.00  0.00    +0.005 A 
ATOM     14  C   UNL     1     -26.869  -3.941  -7.090  0.00  0.00    +0.000 A 
ATOM     15  C   UNL     1     -25.746  -2.002  -7.975  0.00  0.00    +0.000 A 
ATOM     16  C   UNL     1     -26.910  -2.621  -7.528  0.00  0.00    +0.000 A 
ENDBRANCH  10  11
ENDBRANCH   1  10
TORSDOF 2
ENDMDL
MODEL 3
REMARK VINA RESULT:    -5.435      1.498      1.867
REMARK INTER + INTRA:          -6.216
REMARK INTER:                  -6.039
REMARK INTRA:                  -0.177
REMARK UNBOUND:                -0.146
REMARK  Name = 1550473
REMARK  2 active torsions:
REMARK  status: ('A' for Active; 'I' for Inactive)
REMARK    1  A    between atoms: N_1  and  C_4
REMARK    2  A    between atoms: C_4  and  C_5
REMARK                            x       y       z     vdW  Elec       q    Type
REMARK                         _______ _______ _______ _____ _____    ______ ____
ROOT
ATOM      1  N   UNL     1     -22.610  -4.991  -4.793  0.00  0.00    -0.354 N 
ATOM      2  N   UNL     1     -22.063  -4.090  -2.731  0.00  0.00    -0.372 N 
ATOM      3  N   UNL     1     -21.284  -3.066  -4.631  0.00  0.00    -0.372 N 
ATOM      4  C   UNL     1     -21.988  -4.053  -4.067  0.00  0.00    +0.166 C 
ATOM      5  H   UNL     1     -23.102  -5.731  -4.305  0.00  0.00    +0.163 HD
ATOM      6  H   UNL     1     -21.607  -3.394  -2.157  0.00  0.00    +0.159 HD
ATOM      7  H   UNL     1     -22.594  -4.803  -2.247  0.00  0.00    +0.159 HD
ATOM      8  H   UNL     1     -21.184  -2.985  -5.634  0.00  0.00    +0.159 HD
ATOM      9  H   UNL     1     -20.811  -2.366  -4.073  0.00  0.00    +0.159 HD
ENDROOT
BRANCH   1  10
ATOM     10  C   UNL     1     -22.635  -5.011  -6.255  0.00  0.00    +0.151 C 
BRANCH  10  11
ATOM     11  C   UNL     1     -23.878  -4.315  -6.735  0.00  0.00    -0.028 A 
ATOM     12  C   UNL     1     -23.788  -3.136  -7.490  0.00  0.00    +0.005 A 
ATOM     13  C   UNL     1     -25.150  -4.831  -6.442  0.00  0.00    +0.005 A 
ATOM     14  C   UNL     1     -24.942  -2.506  -7.961  0.00  0.00    +0.000 A 
ATOM     15  C   UNL     1     -26.300  -4.198  -6.914  0.00  0.00    +0.000 A 
ATOM     16  C   UNL     1     -26.195  -3.037  -7.675  0.00  0.00    +0.000 A 
ENDBRANCH  10  11
ENDBRANCH   1  10
TORSDOF 2
ENDMDL
MODEL 4
REMARK VINA RESULT:    -4.976      2.101      2.916
REMARK INTER + INTRA:          -5.703
REMARK INTER:                  -5.538
REMARK INTRA:                  -0.165
REMARK UNBOUND:                -0.146
REMARK  Name = 1550473
REMARK  2 active torsions:
REMARK  status: ('A' for Active; 'I' for Inactive)
REMARK    1  A    between atoms: N_1  and  C_4
REMARK    2  A    between atoms: C_4  and  C_5
REMARK                            x       y       z     vdW  Elec       q    Type
REMARK                         _______ _______ _______ _____ _____    ______ ____
ROOT
ATOM      1  N   UNL     1     -26.295  -5.837  -4.970  0.00  0.00    -0.354 N 
ATOM      2  N   UNL     1     -25.062  -6.442  -3.105  0.00  0.00    -0.372 N 
ATOM      3  N   UNL     1     -24.469  -7.294  -5.151  0.00  0.00    -0.372 N 
ATOM      4  C   UNL     1     -25.282  -6.522  -4.423  0.00  0.00    +0.166 C 
ATOM      5  H   UNL     1     -26.894  -5.293  -4.359  0.00  0.00    +0.163 HD
ATOM      6  H   UNL     1     -24.303  -6.944  -2.665  0.00  0.00    +0.159 HD
ATOM      7  H   UNL     1     -25.633  -5.861  -2.504  0.00  0.00    +0.159 HD
ATOM      8  H   UNL     1     -24.586  -7.402  -6.150  0.00  0.00    +0.159 HD
ATOM      9  H   UNL     1     -23.712  -7.815  -4.727  0.00  0.00    +0.159 HD
ENDROOT
BRANCH   1  10
ATOM     10  C   UNL     1     -26.588  -5.814  -6.402  0.00  0.00    +0.151 C 
BRANCH  10  11
ATOM     11  C   UNL     1     -26.196  -4.474  -6.962  0.00  0.00    -0.028 A 
ATOM     12  C   UNL     1     -24.857  -4.198  -7.275  0.00  0.00    +0.005 A 
ATOM     13  C   UNL     1     -27.159  -3.479  -7.186  0.00  0.00    +0.005 A 
ATOM     14  C   UNL     1     -24.496  -2.965  -7.824  0.00  0.00    +0.000 A 
ATOM     15  C   UNL     1     -26.795  -2.248  -7.733  0.00  0.00    +0.000 A 
ATOM     16  C   UNL     1     -25.464  -1.993  -8.054  0.00  0.00    +0.000 A 
ENDBRANCH  10  11
ENDBRANCH   1  10
TORSDOF 2
ENDMDL
MODEL 5
REMARK VINA RESULT:    -4.798      3.661      4.903
REMARK INTER + INTRA:          -5.505
REMARK INTER:                  -5.373
REMARK INTRA:                  -0.132
REMARK UNBOUND:                -0.146
REMARK  Name = 1550473
REMARK  2 active torsions:
REMARK  status: ('A' for Active; 'I' for Inactive)
REMARK    1  A    between atoms: N_1  and  C_4
REMARK    2  A    between atoms: C_4  and  C_5
REMARK                            x       y       z     vdW  Elec       q    Type
REMARK                         _______ _______ _______ _____ _____    ______ ____
ROOT
ATOM      1  N   UNL     1     -28.070  -5.153  -5.492  0.00  0.00    -0.354 N 
ATOM      2  N   UNL     1     -30.208  -5.023  -4.610  0.00  0.00    -0.372 N 
ATOM      3  N   UNL     1     -29.906  -6.051  -6.639  0.00  0.00    -0.372 N 
ATOM      4  C   UNL     1     -29.381  -5.411  -5.588  0.00  0.00    +0.166 C 
ATOM      5  H   UNL     1     -27.739  -4.638  -4.684  0.00  0.00    +0.163 HD
ATOM      6  H   UNL     1     -31.201  -5.207  -4.653  0.00  0.00    +0.159 HD
ATOM      7  H   UNL     1     -29.868  -4.549  -3.782  0.00  0.00    +0.159 HD
ATOM      8  H   UNL     1     -29.337  -6.365  -7.414  0.00  0.00    +0.159 HD
ATOM      9  H   UNL     1     -30.899  -6.234  -6.706  0.00  0.00    +0.159 HD
ENDROOT
BRANCH   1  10
ATOM     10  C   UNL     1     -27.078  -5.580  -6.477  0.00  0.00    +0.151 C 
BRANCH  10  11
ATOM     11  C   UNL     1     -26.384  -4.367  -7.033  0.00  0.00    -0.028 A 
ATOM     12  C   UNL     1     -27.114  -3.213  -7.351  0.00  0.00    +0.005 A 
ATOM     13  C   UNL     1     -24.996  -4.364  -7.239  0.00  0.00    +0.005 A 
ATOM     14  C   UNL     1     -26.467  -2.076  -7.839  0.00  0.00    +0.000 A 
ATOM     15  C   UNL     1     -24.353  -3.227  -7.727  0.00  0.00    +0.000 A 
ATOM     16  C   UNL     1     -25.088  -2.082  -8.025  0.00  0.00    +0.000 A 
ENDBRANCH  10  11
ENDBRANCH   1  10
TORSDOF 2
ENDMDL
MODEL 6
REMARK VINA RESULT:    -4.791      2.596      3.893
REMARK INTER + INTRA:          -5.497
REMARK INTER:                  -5.318
REMARK INTRA:                  -0.179
REMARK UNBOUND:                -0.146
REMARK  Name = 1550473
REMARK  2 active torsions:
REMARK  status: ('A' for Active; 'I' for Inactive)
REMARK    1  A    between atoms: N_1  and  C_4
REMARK    2  A    between atoms: C_4  and  C_5
REMARK                            x       y       z     vdW  Elec       q    Type
REMARK                         _______ _______ _______ _____ _____    ______ ____
ROOT
ATOM      1  N   UNL     1     -21.616  -5.809  -3.611  0.00  0.00    -0.354 N 
ATOM      2  N   UNL     1     -21.604  -4.210  -1.936  0.00  0.00    -0.372 N 
ATOM      3  N   UNL     1     -20.183  -3.958  -3.720  0.00  0.00    -0.372 N 
ATOM      4  C   UNL     1     -21.132  -4.668  -3.102  0.00  0.00    +0.166 C 
ATOM      5  H   UNL     1     -22.313  -6.316  -3.079  0.00  0.00    +0.163 HD
ATOM      6  H   UNL     1     -21.261  -3.351  -1.528  0.00  0.00    +0.159 HD
ATOM      7  H   UNL     1     -22.334  -4.695  -1.428  0.00  0.00    +0.159 HD
ATOM      8  H   UNL     1     -19.781  -4.253  -4.600  0.00  0.00    +0.159 HD
ATOM      9  H   UNL     1     -19.818  -3.101  -3.322  0.00  0.00    +0.159 HD
ENDROOT
BRANCH   1  10
ATOM     10  C   UNL     1     -21.209  -6.366  -4.900  0.00  0.00    +0.151 C 
BRANCH  10  11
ATOM     11  C   UNL     1     -22.292  -6.108  -5.911  0.00  0.00    -0.028 A 
ATOM     12  C   UNL     1     -23.363  -7.003  -6.052  0.00  0.00    +0.005 A 
ATOM     13  C   UNL     1     -22.255  -4.967  -6.728  0.00  0.00    +0.005 A 
ATOM     14  C   UNL     1     -24.384  -6.748  -6.970  0.00  0.00    +0.000 A 
ATOM     15  C   UNL     1     -23.277  -4.717  -7.644  0.00  0.00    +0.000 A 
ATOM     16  C   UNL     1     -24.342  -5.606  -7.763  0.00  0.00    +0.000 A 
ENDBRANCH  10  11
ENDBRANCH   1  10
TORSDOF 2
ENDMDL
MODEL 7
REMARK VINA RESULT:    -4.552      3.990      5.462
REMARK INTER + INTRA:          -5.230
REMARK INTER:                  -5.106
REMARK INTRA:                  -0.124
REMARK UNBOUND:                -0.146
REMARK  Name = 1550473
REMARK  2 active torsions:
REMARK  status: ('A' for Active; 'I' for Inactive)
REMARK    1  A    between atoms: N_1  and  C_4
REMARK    2  A    between atoms: C_4  and  C_5
REMARK                            x       y       z     vdW  Elec       q    Type
REMARK                         _______ _______ _______ _____ _____    ______ ____
ROOT
ATOM      1  N   UNL     1     -28.615  -3.847  -6.940  0.00  0.00    -0.354 N 
ATOM      2  N   UNL     1     -30.828  -4.504  -6.749  0.00  0.00    -0.372 N 
ATOM      3  N   UNL     1     -30.361  -2.381  -7.484  0.00  0.00    -0.372 N 
ATOM      4  C   UNL     1     -29.921  -3.570  -7.060  0.00  0.00    +0.166 C 
ATOM      5  H   UNL     1     -28.347  -4.757  -6.584  0.00  0.00    +0.163 HD
ATOM      6  H   UNL     1     -31.820  -4.326  -6.832  0.00  0.00    +0.159 HD
ATOM      7  H   UNL     1     -30.556  -5.429  -6.437  0.00  0.00    +0.159 HD
ATOM      8  H   UNL     1     -29.728  -1.632  -7.728  0.00  0.00    +0.159 HD
ATOM      9  H   UNL     1     -31.350  -2.180  -7.562  0.00  0.00    +0.159 HD
ENDROOT
BRANCH   1  10
ATOM     10  C   UNL     1     -27.546  -2.918  -7.303  0.00  0.00    +0.151 C 
BRANCH  10  11
ATOM     11  C   UNL     1     -26.239  -3.661  -7.330  0.00  0.00    -0.028 A 
ATOM     12  C   UNL     1     -25.055  -3.005  -7.698  0.00  0.00    +0.005 A 
ATOM     13  C   UNL     1     -26.176  -5.019  -6.984  0.00  0.00    +0.005 A 
ATOM     14  C   UNL     1     -23.835  -3.686  -7.694  0.00  0.00    +0.000 A 
ATOM     15  C   UNL     1     -24.957  -5.696  -6.982  0.00  0.00    +0.000 A 
ATOM     16  C   UNL     1     -23.786  -5.029  -7.335  0.00  0.00    +0.000 A 
ENDBRANCH  10  11
ENDBRANCH   1  10
TORSDOF 2
ENDMDL
MODEL 8
REMARK VINA RESULT:    -4.526     10.132     10.880
REMARK INTER + INTRA:          -5.201
REMARK INTER:                  -5.061
REMARK INTRA:                  -0.140
REMARK UNBOUND:                -0.146
REMARK  Name = 1550473
REMARK  2 active torsions:
REMARK  status: ('A' for Active; 'I' for Inactive)
REMARK    1  A    between atoms: N_1  and  C_4
REMARK    2  A    between atoms: C_4  and  C_5
REMARK                            x       y       z     vdW  Elec       q    Type
REMARK                         _______ _______ _______ _____ _____    ______ ____
ROOT
ATOM      1  N   UNL     1     -23.125   5.321  -7.458  0.00  0.00    -0.354 N 
ATOM      2  N   UNL     1     -21.204   5.025  -6.199  0.00  0.00    -0.372 N 
ATOM      3  N   UNL     1     -22.730   6.604  -5.537  0.00  0.00    -0.372 N 
ATOM      4  C   UNL     1     -22.367   5.654  -6.405  0.00  0.00    +0.166 C 
ATOM      5  H   UNL     1     -22.779   4.613  -8.095  0.00  0.00    +0.163 HD
ATOM      6  H   UNL     1     -20.612   5.252  -5.412  0.00  0.00    +0.159 HD
ATOM      7  H   UNL     1     -20.882   4.286  -6.813  0.00  0.00    +0.159 HD
ATOM      8  H   UNL     1     -23.594   7.121  -5.639  0.00  0.00    +0.159 HD
ATOM      9  H   UNL     1     -22.146   6.854  -4.749  0.00  0.00    +0.159 HD
ENDROOT
BRANCH   1  10
ATOM     10  C   UNL     1     -24.434   5.908  -7.741  0.00  0.00    +0.151 C 
BRANCH  10  11
ATOM     11  C   UNL     1     -24.527   6.213  -9.210  0.00  0.00    -0.028 A 
ATOM     12  C   UNL     1     -23.420   6.021 -10.049  0.00  0.00    +0.005 A 
ATOM     13  C   UNL     1     -25.722   6.690  -9.771  0.00  0.00    +0.005 A 
ATOM     14  C   UNL     1     -23.515   6.276 -11.420  0.00  0.00    +0.000 A 
ATOM     15  C   UNL     1     -25.813   6.945 -11.139  0.00  0.00    +0.000 A 
ATOM     16  C   UNL     1     -24.710   6.735 -11.964  0.00  0.00    +0.000 A 
ENDBRANCH  10  11
ENDBRANCH   1  10
TORSDOF 2
ENDMDL
MODEL 9
REMARK VINA RESULT:    -4.361     12.191     13.256
REMARK INTER + INTRA:          -5.017
REMARK INTER:                  -4.837
REMARK INTRA:                  -0.180
REMARK UNBOUND:                -0.146
REMARK  Name = 1550473
REMARK  2 active torsions:
REMARK  status: ('A' for Active; 'I' for Inactive)
REMARK    1  A    between atoms: N_1  and  C_4
REMARK    2  A    between atoms: C_4  and  C_5
REMARK                            x       y       z     vdW  Elec       q    Type
REMARK                         _______ _______ _______ _____ _____    ______ ____
ROOT
ATOM      1  N   UNL     1     -14.149   3.877  -6.627  0.00  0.00    -0.354 N 
ATOM      2  N   UNL     1     -13.645   3.903  -8.887  0.00  0.00    -0.372 N 
ATOM      3  N   UNL     1     -15.703   3.140  -8.218  0.00  0.00    -0.372 N 
ATOM      4  C   UNL     1     -14.505   3.639  -7.896  0.00  0.00    +0.166 C 
ATOM      5  H   UNL     1     -13.215   4.228  -6.447  0.00  0.00    +0.163 HD
ATOM      6  H   UNL     1     -13.888   3.737  -9.855  0.00  0.00    +0.159 HD
ATOM      7  H   UNL     1     -12.730   4.296  -8.708  0.00  0.00    +0.159 HD
ATOM      8  H   UNL     1     -16.395   2.913  -7.516  0.00  0.00    +0.159 HD
ATOM      9  H   UNL     1     -15.960   2.955  -9.180  0.00  0.00    +0.159 HD
ENDROOT
BRANCH   1  10
ATOM     10  C   UNL     1     -15.030   3.675  -5.478  0.00  0.00    +0.151 C 
BRANCH  10  11
ATOM     11  C   UNL     1     -15.632   4.994  -5.082  0.00  0.00    -0.028 A 
ATOM     12  C   UNL     1     -16.926   5.340  -5.497  0.00  0.00    +0.005 A 
ATOM     13  C   UNL     1     -14.915   5.901  -4.286  0.00  0.00    +0.005 A 
ATOM     14  C   UNL     1     -17.497   6.553  -5.104  0.00  0.00    +0.000 A 
ATOM     15  C   UNL     1     -15.488   7.112  -3.897  0.00  0.00    +0.000 A 
ATOM     16  C   UNL     1     -16.780   7.436  -4.304  0.00  0.00    +0.000 A 
ENDBRANCH  10  11
ENDBRANCH   1  10
TORSDOF 2
ENDMDL
