MODEL 1
REMARK VINA RESULT:    -4.894      0.000      0.000
REMARK INTER + INTRA:          -5.623
REMARK INTER:                  -5.466
REMARK INTRA:                  -0.157
REMARK UNBOUND:                -0.157
REMARK  Name = 1550473
REMARK  2 active torsions:
REMARK  status: ('A' for Active; 'I' for Inactive)
REMARK    1  A    between atoms: N_1  and  C_4
REMARK    2  A    between atoms: C_4  and  C_5
REMARK                            x       y       z     vdW  Elec       q    Type
REMARK                         _______ _______ _______ _____ _____    ______ ____
ROOT
ATOM      1  N   UNL     1       0.461   3.579  14.868  0.00  0.00    -0.354 N 
ATOM      2  N   UNL     1       0.859   3.133  12.631  0.00  0.00    -0.372 N 
ATOM      3  N   UNL     1       0.217   1.413  14.008  0.00  0.00    -0.372 N 
ATOM      4  C   UNL     1       0.509   2.709  13.851  0.00  0.00    +0.166 C 
ATOM      5  H   UNL     1       0.724   4.542  14.691  0.00  0.00    +0.163 HD
ATOM      6  H   UNL     1       0.901   2.500  11.843  0.00  0.00    +0.159 HD
ATOM      7  H   UNL     1       1.076   4.105  12.446  0.00  0.00    +0.159 HD
ATOM      8  H   UNL     1      -0.048   1.029  14.904  0.00  0.00    +0.159 HD
ATOM      9  H   UNL     1       0.265   0.762  13.234  0.00  0.00    +0.159 HD
ENDROOT
BRANCH   1  10
ATOM     10  C   UNL     1       0.041   3.230  16.224  0.00  0.00    +0.151 C 
BRANCH  10  11
ATOM     11  C   UNL     1      -1.318   3.818  16.484  0.00  0.00    -0.028 A 
ATOM     12  C   UNL     1      -1.460   4.951  17.299  0.00  0.00    +0.005 A 
ATOM     13  C   UNL     1      -2.468   3.251  15.913  0.00  0.00    +0.005 A 
ATOM     14  C   UNL     1      -2.719   5.516  17.517  0.00  0.00    +0.000 A 
ATOM     15  C   UNL     1      -3.724   3.818  16.133  0.00  0.00    +0.000 A 
ATOM     16  C   UNL     1      -3.848   4.951  16.933  0.00  0.00    +0.000 A 
ENDBRANCH  10  11
ENDBRANCH   1  10
TORSDOF 2
ENDMDL
MODEL 2
REMARK VINA RESULT:    -4.785      3.120      4.977
REMARK INTER + INTRA:          -5.502
REMARK INTER:                  -5.397
REMARK INTRA:                  -0.104
REMARK UNBOUND:                -0.157
REMARK  Name = 1550473
REMARK  2 active torsions:
REMARK  status: ('A' for Active; 'I' for Inactive)
REMARK    1  A    between atoms: N_1  and  C_4
REMARK    2  A    between atoms: C_4  and  C_5
REMARK                            x       y       z     vdW  Elec       q    Type
REMARK                         _______ _______ _______ _____ _____    ______ ____
ROOT
ATOM      1  N   UNL     1       0.964   3.600  14.725  0.00  0.00    -0.354 N 
ATOM      2  N   UNL     1       0.644   3.276  12.454  0.00  0.00    -0.372 N 
ATOM      3  N   UNL     1       0.845   1.442  13.818  0.00  0.00    -0.372 N 
ATOM      4  C   UNL     1       0.820   2.772  13.681  0.00  0.00    +0.166 C 
ATOM      5  H   UNL     1       0.967   4.599  14.550  0.00  0.00    +0.163 HD
ATOM      6  H   UNL     1       0.529   2.676  11.648  0.00  0.00    +0.159 HD
ATOM      7  H   UNL     1       0.601   4.275  12.289  0.00  0.00    +0.159 HD
ATOM      8  H   UNL     1       0.980   0.999  14.717  0.00  0.00    +0.159 HD
ATOM      9  H   UNL     1       0.743   0.825  13.022  0.00  0.00    +0.159 HD
ENDROOT
BRANCH   1  10
ATOM     10  C   UNL     1       1.107   3.153  16.109  0.00  0.00    +0.151 C 
BRANCH  10  11
ATOM     11  C   UNL     1       2.472   3.537  16.610  0.00  0.00    -0.028 A 
ATOM     12  C   UNL     1       2.688   3.780  17.975  0.00  0.00    +0.005 A 
ATOM     13  C   UNL     1       3.556   3.654  15.726  0.00  0.00    +0.005 A 
ATOM     14  C   UNL     1       3.962   4.107  18.445  0.00  0.00    +0.000 A 
ATOM     15  C   UNL     1       4.827   3.981  16.200  0.00  0.00    +0.000 A 
ATOM     16  C   UNL     1       5.030   4.206  17.559  0.00  0.00    +0.000 A 
ENDBRANCH  10  11
ENDBRANCH   1  10
TORSDOF 2
ENDMDL
MODEL 3
REMARK VINA RESULT:    -4.699     33.885     35.444
REMARK INTER + INTRA:          -5.406
REMARK INTER:                  -5.277
REMARK INTRA:                  -0.128
REMARK UNBOUND:                -0.157
REMARK  Name = 1550473
REMARK  2 active torsions:
REMARK  status: ('A' for Active; 'I' for Inactive)
REMARK    1  A    between atoms: N_1  and  C_4
REMARK    2  A    between atoms: C_4  and  C_5
REMARK                            x       y       z     vdW  Elec       q    Type
REMARK                         _______ _______ _______ _____ _____    ______ ____
ROOT
ATOM      1  N   UNL     1      -1.089  -4.768 -19.112  0.00  0.00    -0.354 N 
ATOM      2  N   UNL     1      -0.214  -6.907 -19.260  0.00  0.00    -0.372 N 
ATOM      3  N   UNL     1      -1.055  -5.920 -21.152  0.00  0.00    -0.372 N 
ATOM      4  C   UNL     1      -0.793  -5.851 -19.843  0.00  0.00    +0.166 C 
ATOM      5  H   UNL     1      -0.892  -4.790 -18.118  0.00  0.00    +0.163 HD
ATOM      6  H   UNL     1       0.025  -7.737 -19.787  0.00  0.00    +0.159 HD
ATOM      7  H   UNL     1       0.024  -6.909 -18.275  0.00  0.00    +0.159 HD
ATOM      8  H   UNL     1      -1.497  -5.159 -21.651  0.00  0.00    +0.159 HD
ATOM      9  H   UNL     1      -0.835  -6.746 -21.694  0.00  0.00    +0.159 HD
ENDROOT
BRANCH   1  10
ATOM     10  C   UNL     1      -1.672  -3.545 -19.661  0.00  0.00    +0.151 C 
BRANCH  10  11
ATOM     11  C   UNL     1      -2.919  -3.207 -18.892  0.00  0.00    -0.028 A 
ATOM     12  C   UNL     1      -2.887  -3.103 -17.494  0.00  0.00    +0.005 A 
ATOM     13  C   UNL     1      -4.135  -2.984 -19.556  0.00  0.00    +0.005 A 
ATOM     14  C   UNL     1      -4.039  -2.759 -16.781  0.00  0.00    +0.000 A 
ATOM     15  C   UNL     1      -5.282  -2.642 -18.841  0.00  0.00    +0.000 A 
ATOM     16  C   UNL     1      -5.233  -2.527 -17.454  0.00  0.00    +0.000 A 
ENDBRANCH  10  11
ENDBRANCH   1  10
TORSDOF 2
ENDMDL
MODEL 4
REMARK VINA RESULT:    -4.545     35.299     36.884
REMARK INTER + INTRA:          -5.233
REMARK INTER:                  -5.056
REMARK INTRA:                  -0.177
REMARK UNBOUND:                -0.157
REMARK  Name = 1550473
REMARK  2 active torsions:
REMARK  status: ('A' for Active; 'I' for Inactive)
REMARK    1  A    between atoms: N_1  and  C_4
REMARK    2  A    between atoms: C_4  and  C_5
REMARK                            x       y       z     vdW  Elec       q    Type
REMARK                         _______ _______ _______ _____ _____    ______ ____
ROOT
ATOM      1  N   UNL     1      -0.319  -3.406 -22.287  0.00  0.00    -0.354 N 
ATOM      2  N   UNL     1       1.508  -2.106 -22.865  0.00  0.00    -0.372 N 
ATOM      3  N   UNL     1      -0.484  -1.071 -22.394  0.00  0.00    -0.372 N 
ATOM      4  C   UNL     1       0.221  -2.201 -22.512  0.00  0.00    +0.166 C 
ATOM      5  H   UNL     1       0.261  -4.226 -22.423  0.00  0.00    +0.163 HD
ATOM      6  H   UNL     1       1.945  -1.211 -23.038  0.00  0.00    +0.159 HD
ATOM      7  H   UNL     1       2.098  -2.925 -22.955  0.00  0.00    +0.159 HD
ATOM      8  H   UNL     1      -1.462  -1.074 -22.136  0.00  0.00    +0.159 HD
ATOM      9  H   UNL     1      -0.069  -0.166 -22.574  0.00  0.00    +0.159 HD
ENDROOT
BRANCH   1  10
ATOM     10  C   UNL     1      -1.697  -3.615 -21.846  0.00  0.00    +0.151 C 
BRANCH  10  11
ATOM     11  C   UNL     1      -1.716  -3.765 -20.349  0.00  0.00    -0.028 A 
ATOM     12  C   UNL     1      -0.895  -4.711 -19.718  0.00  0.00    +0.005 A 
ATOM     13  C   UNL     1      -2.548  -2.960 -19.557  0.00  0.00    +0.005 A 
ATOM     14  C   UNL     1      -0.890  -4.830 -18.326  0.00  0.00    +0.000 A 
ATOM     15  C   UNL     1      -2.541  -3.083 -18.167  0.00  0.00    +0.000 A 
ATOM     16  C   UNL     1      -1.710  -4.016 -17.552  0.00  0.00    +0.000 A 
ENDBRANCH  10  11
ENDBRANCH   1  10
TORSDOF 2
ENDMDL
MODEL 5
REMARK VINA RESULT:    -4.488     37.446     40.075
REMARK INTER + INTRA:          -5.169
REMARK INTER:                  -5.031
REMARK INTRA:                  -0.139
REMARK UNBOUND:                -0.157
REMARK  Name = 1550473
REMARK  2 active torsions:
REMARK  status: ('A' for Active; 'I' for Inactive)
REMARK    1  A    between atoms: N_1  and  C_4
REMARK    2  A    between atoms: C_4  and  C_5
REMARK                            x       y       z     vdW  Elec       q    Type
REMARK                         _______ _______ _______ _____ _____    ______ ____
ROOT
ATOM      1  N   UNL     1       2.115 -10.637 -20.109  0.00  0.00    -0.354 N 
ATOM      2  N   UNL     1       1.279  -8.698 -19.159  0.00  0.00    -0.372 N 
ATOM      3  N   UNL     1       2.421 -10.180 -17.831  0.00  0.00    -0.372 N 
ATOM      4  C   UNL     1       1.945  -9.853 -19.037  0.00  0.00    +0.166 C 
ATOM      5  H   UNL     1       1.704 -10.347 -20.989  0.00  0.00    +0.163 HD
ATOM      6  H   UNL     1       1.137  -8.083 -18.368  0.00  0.00    +0.159 HD
ATOM      7  H   UNL     1       0.908  -8.388 -20.049  0.00  0.00    +0.159 HD
ATOM      8  H   UNL     1       2.927 -11.041 -17.671  0.00  0.00    +0.159 HD
ATOM      9  H   UNL     1       2.279  -9.584 -17.025  0.00  0.00    +0.159 HD
ENDROOT
BRANCH   1  10
ATOM     10  C   UNL     1       2.871 -11.889 -20.095  0.00  0.00    +0.151 C 
BRANCH  10  11
ATOM     11  C   UNL     1       3.795 -11.918 -21.281  0.00  0.00    -0.028 A 
ATOM     12  C   UNL     1       4.077 -13.127 -21.934  0.00  0.00    +0.005 A 
ATOM     13  C   UNL     1       4.386 -10.739 -21.761  0.00  0.00    +0.005 A 
ATOM     14  C   UNL     1       4.911 -13.150 -23.054  0.00  0.00    +0.000 A 
ATOM     15  C   UNL     1       5.219 -10.767 -22.880  0.00  0.00    +0.000 A 
ATOM     16  C   UNL     1       5.479 -11.972 -23.527  0.00  0.00    +0.000 A 
ENDBRANCH  10  11
ENDBRANCH   1  10
TORSDOF 2
ENDMDL
MODEL 6
REMARK VINA RESULT:    -4.404     31.389     32.762
REMARK INTER + INTRA:          -5.075
REMARK INTER:                  -4.913
REMARK INTRA:                  -0.163
REMARK UNBOUND:                -0.157
REMARK  Name = 1550473
REMARK  2 active torsions:
REMARK  status: ('A' for Active; 'I' for Inactive)
REMARK    1  A    between atoms: N_1  and  C_4
REMARK    2  A    between atoms: C_4  and  C_5
REMARK                            x       y       z     vdW  Elec       q    Type
REMARK                         _______ _______ _______ _____ _____    ______ ____
ROOT
ATOM      1  N   UNL     1      -8.589 -12.320 -11.696  0.00  0.00    -0.354 N 
ATOM      2  N   UNL     1     -10.613 -12.454 -10.579  0.00  0.00    -0.372 N 
ATOM      3  N   UNL     1      -8.865 -11.355  -9.578  0.00  0.00    -0.372 N 
ATOM      4  C   UNL     1      -9.341 -12.041 -10.623  0.00  0.00    +0.166 C 
ATOM      5  H   UNL     1      -8.999 -12.870 -12.442  0.00  0.00    +0.163 HD
ATOM      6  H   UNL     1     -11.206 -12.256  -9.784  0.00  0.00    +0.159 HD
ATOM      7  H   UNL     1     -11.035 -12.964 -11.346  0.00  0.00    +0.159 HD
ATOM      8  H   UNL     1      -7.911 -11.020  -9.547  0.00  0.00    +0.159 HD
ATOM      9  H   UNL     1      -9.439 -11.157  -8.769  0.00  0.00    +0.159 HD
ENDROOT
BRANCH   1  10
ATOM     10  C   UNL     1      -7.208 -11.870 -11.867  0.00  0.00    +0.151 C 
BRANCH  10  11
ATOM     11  C   UNL     1      -6.299 -13.067 -11.878  0.00  0.00    -0.028 A 
ATOM     12  C   UNL     1      -6.031 -13.746 -13.076  0.00  0.00    +0.005 A 
ATOM     13  C   UNL     1      -5.698 -13.525 -10.696  0.00  0.00    +0.005 A 
ATOM     14  C   UNL     1      -5.162 -14.840 -13.092  0.00  0.00    +0.000 A 
ATOM     15  C   UNL     1      -4.832 -14.618 -10.716  0.00  0.00    +0.000 A 
ATOM     16  C   UNL     1      -4.562 -15.274 -11.915  0.00  0.00    +0.000 A 
ENDBRANCH  10  11
ENDBRANCH   1  10
TORSDOF 2
ENDMDL
MODEL 7
REMARK VINA RESULT:    -4.386     28.778     29.277
REMARK INTER + INTRA:          -5.055
REMARK INTER:                  -4.934
REMARK INTRA:                  -0.122
REMARK UNBOUND:                -0.157
REMARK  Name = 1550473
REMARK  2 active torsions:
REMARK  status: ('A' for Active; 'I' for Inactive)
REMARK    1  A    between atoms: N_1  and  C_4
REMARK    2  A    between atoms: C_4  and  C_5
REMARK                            x       y       z     vdW  Elec       q    Type
REMARK                         _______ _______ _______ _____ _____    ______ ____
ROOT
ATOM      1  N   UNL     1     -19.524  -6.552  -5.858  0.00  0.00    -0.354 N 
ATOM      2  N   UNL     1     -19.040  -6.293  -8.108  0.00  0.00    -0.372 N 
ATOM      3  N   UNL     1     -17.691  -7.641  -6.831  0.00  0.00    -0.372 N 
ATOM      4  C   UNL     1     -18.753  -6.832  -6.917  0.00  0.00    +0.166 C 
ATOM      5  H   UNL     1     -20.296  -5.907  -5.982  0.00  0.00    +0.163 HD
ATOM      6  H   UNL     1     -18.478  -6.489  -8.926  0.00  0.00    +0.159 HD
ATOM      7  H   UNL     1     -19.839  -5.686  -8.239  0.00  0.00    +0.159 HD
ATOM      8  H   UNL     1     -17.418  -8.075  -5.960  0.00  0.00    +0.159 HD
ATOM      9  H   UNL     1     -17.110  -7.840  -7.636  0.00  0.00    +0.159 HD
ENDROOT
BRANCH   1  10
ATOM     10  C   UNL     1     -19.329  -7.129  -4.529  0.00  0.00    +0.151 C 
BRANCH  10  11
ATOM     11  C   UNL     1     -20.238  -6.433  -3.554  0.00  0.00    -0.028 A 
ATOM     12  C   UNL     1     -20.727  -5.148  -3.829  0.00  0.00    +0.005 A 
ATOM     13  C   UNL     1     -20.617  -7.056  -2.355  0.00  0.00    +0.005 A 
ATOM     14  C   UNL     1     -21.595  -4.513  -2.937  0.00  0.00    +0.000 A 
ATOM     15  C   UNL     1     -21.484  -6.418  -1.467  0.00  0.00    +0.000 A 
ATOM     16  C   UNL     1     -21.974  -5.148  -1.759  0.00  0.00    +0.000 A 
ENDBRANCH  10  11
ENDBRANCH   1  10
TORSDOF 2
ENDMDL
MODEL 8
REMARK VINA RESULT:    -4.326     10.931     11.826
REMARK INTER + INTRA:          -4.988
REMARK INTER:                  -4.832
REMARK INTRA:                  -0.156
REMARK UNBOUND:                -0.157
REMARK  Name = 1550473
REMARK  2 active torsions:
REMARK  status: ('A' for Active; 'I' for Inactive)
REMARK    1  A    between atoms: N_1  and  C_4
REMARK    2  A    between atoms: C_4  and  C_5
REMARK                            x       y       z     vdW  Elec       q    Type
REMARK                         _______ _______ _______ _____ _____    ______ ____
ROOT
ATOM      1  N   UNL     1       3.035  14.028  11.413  0.00  0.00    -0.354 N 
ATOM      2  N   UNL     1       3.014  12.935   9.372  0.00  0.00    -0.372 N 
ATOM      3  N   UNL     1       4.870  14.149   9.960  0.00  0.00    -0.372 N 
ATOM      4  C   UNL     1       3.642  13.712  10.262  0.00  0.00    +0.166 C 
ATOM      5  H   UNL     1       2.092  13.690  11.569  0.00  0.00    +0.163 HD
ATOM      6  H   UNL     1       3.448  12.677   8.496  0.00  0.00    +0.159 HD
ATOM      7  H   UNL     1       2.090  12.560   9.550  0.00  0.00    +0.159 HD
ATOM      8  H   UNL     1       5.395  14.744  10.587  0.00  0.00    +0.159 HD
ATOM      9  H   UNL     1       5.316  13.912   9.083  0.00  0.00    +0.159 HD
ENDROOT
BRANCH   1  10
ATOM     10  C   UNL     1       3.653  14.824  12.472  0.00  0.00    +0.151 C 
BRANCH  10  11
ATOM     11  C   UNL     1       3.952  13.932  13.646  0.00  0.00    -0.028 A 
ATOM     12  C   UNL     1       3.077  12.892  13.991  0.00  0.00    +0.005 A 
ATOM     13  C   UNL     1       5.112  14.119  14.414  0.00  0.00    +0.005 A 
ATOM     14  C   UNL     1       3.370  12.045  15.063  0.00  0.00    +0.000 A 
ATOM     15  C   UNL     1       5.400  13.272  15.484  0.00  0.00    +0.000 A 
ATOM     16  C   UNL     1       4.530  12.233  15.806  0.00  0.00    +0.000 A 
ENDBRANCH  10  11
ENDBRANCH   1  10
TORSDOF 2
ENDMDL
MODEL 9
REMARK VINA RESULT:    -4.321     25.088     26.968
REMARK INTER + INTRA:          -4.983
REMARK INTER:                  -4.888
REMARK INTRA:                  -0.095
REMARK UNBOUND:                -0.157
REMARK  Name = 1550473
REMARK  2 active torsions:
REMARK  status: ('A' for Active; 'I' for Inactive)
REMARK    1  A    between atoms: N_1  and  C_4
REMARK    2  A    between atoms: C_4  and  C_5
REMARK                            x       y       z     vdW  Elec       q    Type
REMARK                         _______ _______ _______ _____ _____    ______ ____
ROOT
ATOM      1  N   UNL     1       6.175  16.169  -5.743  0.00  0.00    -0.354 N 
ATOM      2  N   UNL     1       6.859  17.797  -4.244  0.00  0.00    -0.372 N 
ATOM      3  N   UNL     1       7.223  15.591  -3.728  0.00  0.00    -0.372 N 
ATOM      4  C   UNL     1       6.749  16.506  -4.580  0.00  0.00    +0.166 C 
ATOM      5  H   UNL     1       5.809  16.908  -6.331  0.00  0.00    +0.163 HD
ATOM      6  H   UNL     1       7.290  18.082  -3.375  0.00  0.00    +0.159 HD
ATOM      7  H   UNL     1       6.533  18.536  -4.855  0.00  0.00    +0.159 HD
ATOM      8  H   UNL     1       7.165  14.600  -3.919  0.00  0.00    +0.159 HD
ATOM      9  H   UNL     1       7.647  15.856  -2.847  0.00  0.00    +0.159 HD
ENDROOT
BRANCH   1  10
ATOM     10  C   UNL     1       6.054  14.795  -6.226  0.00  0.00    +0.151 C 
BRANCH  10  11
ATOM     11  C   UNL     1       5.683  14.818  -7.684  0.00  0.00    -0.028 A 
ATOM     12  C   UNL     1       4.404  15.228  -8.086  0.00  0.00    +0.005 A 
ATOM     13  C   UNL     1       6.609  14.436  -8.667  0.00  0.00    +0.005 A 
ATOM     14  C   UNL     1       4.069  15.278  -9.442  0.00  0.00    +0.000 A 
ATOM     15  C   UNL     1       6.270  14.487 -10.019  0.00  0.00    +0.000 A 
ATOM     16  C   UNL     1       5.001  14.911 -10.406  0.00  0.00    +0.000 A 
ENDBRANCH  10  11
ENDBRANCH   1  10
TORSDOF 2
ENDMDL
