MODEL 1
REMARK VINA RESULT:    -4.063      0.000      0.000
REMARK INTER + INTRA:          -4.717
REMARK INTER:                  -4.538
REMARK INTRA:                  -0.179
REMARK UNBOUND:                -0.179
REMARK  Name = 1550473
REMARK  2 active torsions:
REMARK  status: ('A' for Active; 'I' for Inactive)
REMARK    1  A    between atoms: N_1  and  C_4
REMARK    2  A    between atoms: C_4  and  C_5
REMARK                            x       y       z     vdW  Elec       q    Type
REMARK                         _______ _______ _______ _____ _____    ______ ____
ROOT
ATOM      1  N   UNL     1      -6.465  10.499  13.918  0.00  0.00    -0.354 N 
ATOM      2  N   UNL     1      -8.203   9.140  13.213  0.00  0.00    -0.372 N 
ATOM      3  N   UNL     1      -6.517   8.222  14.469  0.00  0.00    -0.372 N 
ATOM      4  C   UNL     1      -7.049   9.294  13.873  0.00  0.00    +0.166 C 
ATOM      5  H   UNL     1      -6.904  11.266  13.421  0.00  0.00    +0.163 HD
ATOM      6  H   UNL     1      -8.669   8.244  13.164  0.00  0.00    +0.159 HD
ATOM      7  H   UNL     1      -8.663   9.918  12.755  0.00  0.00    +0.159 HD
ATOM      8  H   UNL     1      -5.644   8.270  14.977  0.00  0.00    +0.159 HD
ATOM      9  H   UNL     1      -6.961   7.314  14.421  0.00  0.00    +0.159 HD
ENDROOT
BRANCH   1  10
ATOM     10  C   UNL     1      -5.235  10.785  14.655  0.00  0.00    +0.151 C 
BRANCH  10  11
ATOM     11  C   UNL     1      -5.579  11.527  15.917  0.00  0.00    -0.028 A 
ATOM     12  C   UNL     1      -5.734  12.920  15.904  0.00  0.00    +0.005 A 
ATOM     13  C   UNL     1      -5.757  10.840  17.128  0.00  0.00    +0.005 A 
ATOM     14  C   UNL     1      -6.082  13.607  17.070  0.00  0.00    +0.000 A 
ATOM     15  C   UNL     1      -6.104  11.529  18.290  0.00  0.00    +0.000 A 
ATOM     16  C   UNL     1      -6.269  12.912  18.260  0.00  0.00    +0.000 A 
ENDBRANCH  10  11
ENDBRANCH   1  10
TORSDOF 2
ENDMDL
MODEL 2
REMARK VINA RESULT:    -3.942      1.042      2.006
REMARK INTER + INTRA:          -4.582
REMARK INTER:                  -4.437
REMARK INTRA:                  -0.145
REMARK UNBOUND:                -0.179
REMARK  Name = 1550473
REMARK  2 active torsions:
REMARK  status: ('A' for Active; 'I' for Inactive)
REMARK    1  A    between atoms: N_1  and  C_4
REMARK    2  A    between atoms: C_4  and  C_5
REMARK                            x       y       z     vdW  Elec       q    Type
REMARK                         _______ _______ _______ _____ _____    ______ ____
ROOT
ATOM      1  N   UNL     1      -4.821  10.123  14.257  0.00  0.00    -0.354 N 
ATOM      2  N   UNL     1      -5.575   8.143  13.321  0.00  0.00    -0.372 N 
ATOM      3  N   UNL     1      -6.546  10.119  12.671  0.00  0.00    -0.372 N 
ATOM      4  C   UNL     1      -5.644   9.476  13.421  0.00  0.00    +0.166 C 
ATOM      5  H   UNL     1      -4.180   9.575  14.821  0.00  0.00    +0.163 HD
ATOM      6  H   UNL     1      -6.182   7.629  12.696  0.00  0.00    +0.159 HD
ATOM      7  H   UNL     1      -4.903   7.603  13.852  0.00  0.00    +0.159 HD
ATOM      8  H   UNL     1      -6.652  11.124  12.705  0.00  0.00    +0.159 HD
ATOM      9  H   UNL     1      -7.169   9.620  12.049  0.00  0.00    +0.159 HD
ENDROOT
BRANCH   1  10
ATOM     10  C   UNL     1      -4.778  11.577  14.401  0.00  0.00    +0.151 C 
BRANCH  10  11
ATOM     11  C   UNL     1      -5.330  11.954  15.748  0.00  0.00    -0.028 A 
ATOM     12  C   UNL     1      -5.454  10.991  16.761  0.00  0.00    +0.005 A 
ATOM     13  C   UNL     1      -5.726  13.272  16.020  0.00  0.00    +0.005 A 
ATOM     14  C   UNL     1      -5.939  11.347  18.022  0.00  0.00    +0.000 A 
ATOM     15  C   UNL     1      -6.210  13.623  17.280  0.00  0.00    +0.000 A 
ATOM     16  C   UNL     1      -6.314  12.661  18.281  0.00  0.00    +0.000 A 
ENDBRANCH  10  11
ENDBRANCH   1  10
TORSDOF 2
ENDMDL
MODEL 3
REMARK VINA RESULT:    -3.738      8.482     10.199
REMARK INTER + INTRA:          -4.354
REMARK INTER:                  -4.181
REMARK INTRA:                  -0.173
REMARK UNBOUND:                -0.179
REMARK  Name = 1550473
REMARK  2 active torsions:
REMARK  status: ('A' for Active; 'I' for Inactive)
REMARK    1  A    between atoms: N_1  and  C_4
REMARK    2  A    between atoms: C_4  and  C_5
REMARK                            x       y       z     vdW  Elec       q    Type
REMARK                         _______ _______ _______ _____ _____    ______ ____
ROOT
ATOM      1  N   UNL     1      -7.040  13.596  26.095  0.00  0.00    -0.354 N 
ATOM      2  N   UNL     1      -5.551  13.572  27.868  0.00  0.00    -0.372 N 
ATOM      3  N   UNL     1      -5.706  15.462  26.575  0.00  0.00    -0.372 N 
ATOM      4  C   UNL     1      -6.108  14.212  26.833  0.00  0.00    +0.166 C 
ATOM      5  H   UNL     1      -7.280  12.638  26.323  0.00  0.00    +0.163 HD
ATOM      6  H   UNL     1      -4.847  14.013  28.445  0.00  0.00    +0.159 HD
ATOM      7  H   UNL     1      -5.825  12.631  28.122  0.00  0.00    +0.159 HD
ATOM      8  H   UNL     1      -6.084  15.997  25.805  0.00  0.00    +0.159 HD
ATOM      9  H   UNL     1      -4.995  15.916  27.134  0.00  0.00    +0.159 HD
ENDROOT
BRANCH   1  10
ATOM     10  C   UNL     1      -7.748  14.224  24.980  0.00  0.00    +0.151 C 
BRANCH  10  11
ATOM     11  C   UNL     1      -7.244  13.642  23.688  0.00  0.00    -0.028 A 
ATOM     12  C   UNL     1      -7.586  12.334  23.315  0.00  0.00    +0.005 A 
ATOM     13  C   UNL     1      -6.428  14.395  22.830  0.00  0.00    +0.005 A 
ATOM     14  C   UNL     1      -7.143  11.804  22.101  0.00  0.00    +0.000 A 
ATOM     15  C   UNL     1      -5.986  13.862  21.620  0.00  0.00    +0.000 A 
ATOM     16  C   UNL     1      -6.346  12.567  21.254  0.00  0.00    +0.000 A 
ENDBRANCH  10  11
ENDBRANCH   1  10
TORSDOF 2
ENDMDL
MODEL 4
REMARK VINA RESULT:    -3.633     44.105     45.598
REMARK INTER + INTRA:          -4.237
REMARK INTER:                  -4.104
REMARK INTRA:                  -0.133
REMARK UNBOUND:                -0.179
REMARK  Name = 1550473
REMARK  2 active torsions:
REMARK  status: ('A' for Active; 'I' for Inactive)
REMARK    1  A    between atoms: N_1  and  C_4
REMARK    2  A    between atoms: C_4  and  C_5
REMARK                            x       y       z     vdW  Elec       q    Type
REMARK                         _______ _______ _______ _____ _____    ______ ____
ROOT
ATOM      1  N   UNL     1      -3.527 -13.424 -24.393  0.00  0.00    -0.354 N 
ATOM      2  N   UNL     1      -2.727 -12.645 -26.422  0.00  0.00    -0.372 N 
ATOM      3  N   UNL     1      -4.951 -12.371 -25.928  0.00  0.00    -0.372 N 
ATOM      4  C   UNL     1      -3.743 -12.818 -25.568  0.00  0.00    +0.166 C 
ATOM      5  H   UNL     1      -2.594 -13.767 -24.193  0.00  0.00    +0.163 HD
ATOM      6  H   UNL     1      -2.859 -12.188 -27.314  0.00  0.00    +0.159 HD
ATOM      7  H   UNL     1      -1.786 -12.947 -26.200  0.00  0.00    +0.159 HD
ATOM      8  H   UNL     1      -5.760 -12.476 -25.331  0.00  0.00    +0.159 HD
ATOM      9  H   UNL     1      -5.105 -11.921 -26.821  0.00  0.00    +0.159 HD
ENDROOT
BRANCH   1  10
ATOM     10  C   UNL     1      -4.553 -13.614 -23.370  0.00  0.00    +0.151 C 
BRANCH  10  11
ATOM     11  C   UNL     1      -3.913 -13.539 -22.011  0.00  0.00    -0.028 A 
ATOM     12  C   UNL     1      -2.613 -13.033 -21.864  0.00  0.00    +0.005 A 
ATOM     13  C   UNL     1      -4.602 -13.967 -20.867  0.00  0.00    +0.005 A 
ATOM     14  C   UNL     1      -2.028 -12.936 -20.599  0.00  0.00    +0.000 A 
ATOM     15  C   UNL     1      -4.015 -13.869 -19.605  0.00  0.00    +0.000 A 
ATOM     16  C   UNL     1      -2.729 -13.351 -19.472  0.00  0.00    +0.000 A 
ENDBRANCH  10  11
ENDBRANCH   1  10
TORSDOF 2
ENDMDL
MODEL 5
REMARK VINA RESULT:    -3.629     14.566     15.082
REMARK INTER + INTRA:          -4.232
REMARK INTER:                  -4.096
REMARK INTRA:                  -0.136
REMARK UNBOUND:                -0.179
REMARK  Name = 1550473
REMARK  2 active torsions:
REMARK  status: ('A' for Active; 'I' for Inactive)
REMARK    1  A    between atoms: N_1  and  C_4
REMARK    2  A    between atoms: C_4  and  C_5
REMARK                            x       y       z     vdW  Elec       q    Type
REMARK                         _______ _______ _______ _____ _____    ______ ____
ROOT
ATOM      1  N   UNL     1       0.247  18.524   3.776  0.00  0.00    -0.354 N 
ATOM      2  N   UNL     1       2.183  17.267   3.586  0.00  0.00    -0.372 N 
ATOM      3  N   UNL     1       1.499  17.942   5.670  0.00  0.00    -0.372 N 
ATOM      4  C   UNL     1       1.297  17.920   4.348  0.00  0.00    +0.166 C 
ATOM      5  H   UNL     1       0.167  18.496   2.766  0.00  0.00    +0.163 HD
ATOM      6  H   UNL     1       2.983  16.799   3.990  0.00  0.00    +0.159 HD
ATOM      7  H   UNL     1       2.075  17.201   2.581  0.00  0.00    +0.159 HD
ATOM      8  H   UNL     1       0.871  18.423   6.300  0.00  0.00    +0.159 HD
ATOM      9  H   UNL     1       2.301  17.490   6.091  0.00  0.00    +0.159 HD
ENDROOT
BRANCH   1  10
ATOM     10  C   UNL     1      -0.804  19.216   4.521  0.00  0.00    +0.151 C 
BRANCH  10  11
ATOM     11  C   UNL     1      -2.143  18.686   4.088  0.00  0.00    -0.028 A 
ATOM     12  C   UNL     1      -2.238  17.469   3.398  0.00  0.00    +0.005 A 
ATOM     13  C   UNL     1      -3.321  19.394   4.370  0.00  0.00    +0.005 A 
ATOM     14  C   UNL     1      -3.484  16.962   3.021  0.00  0.00    +0.000 A 
ATOM     15  C   UNL     1      -4.564  18.885   3.992  0.00  0.00    +0.000 A 
ATOM     16  C   UNL     1      -4.645  17.667   3.320  0.00  0.00    +0.000 A 
ENDBRANCH  10  11
ENDBRANCH   1  10
TORSDOF 2
ENDMDL
MODEL 6
REMARK VINA RESULT:    -3.627      6.407      7.855
REMARK INTER + INTRA:          -4.230
REMARK INTER:                  -4.071
REMARK INTRA:                  -0.159
REMARK UNBOUND:                -0.179
REMARK  Name = 1550473
REMARK  2 active torsions:
REMARK  status: ('A' for Active; 'I' for Inactive)
REMARK    1  A    between atoms: N_1  and  C_4
REMARK    2  A    between atoms: C_4  and  C_5
REMARK                            x       y       z     vdW  Elec       q    Type
REMARK                         _______ _______ _______ _____ _____    ______ ____
ROOT
ATOM      1  N   UNL     1      -5.489   5.747   8.103  0.00  0.00    -0.354 N 
ATOM      2  N   UNL     1      -7.399   5.253   6.891  0.00  0.00    -0.372 N 
ATOM      3  N   UNL     1      -6.930   7.446   7.376  0.00  0.00    -0.372 N 
ATOM      4  C   UNL     1      -6.594   6.154   7.465  0.00  0.00    +0.166 C 
ATOM      5  H   UNL     1      -5.306   4.752   8.161  0.00  0.00    +0.163 HD
ATOM      6  H   UNL     1      -8.238   5.530   6.400  0.00  0.00    +0.159 HD
ATOM      7  H   UNL     1      -7.190   4.262   6.911  0.00  0.00    +0.159 HD
ATOM      8  H   UNL     1      -6.367   8.175   7.793  0.00  0.00    +0.159 HD
ATOM      9  H   UNL     1      -7.772   7.743   6.899  0.00  0.00    +0.159 HD
ENDROOT
BRANCH   1  10
ATOM     10  C   UNL     1      -4.517   6.652   8.715  0.00  0.00    +0.151 C 
BRANCH  10  11
ATOM     11  C   UNL     1      -4.636   6.560  10.212  0.00  0.00    -0.028 A 
ATOM     12  C   UNL     1      -4.997   5.352  10.825  0.00  0.00    +0.005 A 
ATOM     13  C   UNL     1      -4.382   7.678  11.022  0.00  0.00    +0.005 A 
ATOM     14  C   UNL     1      -5.078   5.259  12.216  0.00  0.00    +0.000 A 
ATOM     15  C   UNL     1      -4.465   7.581  12.411  0.00  0.00    +0.000 A 
ATOM     16  C   UNL     1      -4.810   6.371  13.008  0.00  0.00    +0.000 A 
ENDBRANCH  10  11
ENDBRANCH   1  10
TORSDOF 2
ENDMDL
MODEL 7
REMARK VINA RESULT:    -3.543      8.408     11.610
REMARK INTER + INTRA:          -4.137
REMARK INTER:                  -4.002
REMARK INTRA:                  -0.135
REMARK UNBOUND:                -0.179
REMARK  Name = 1550473
REMARK  2 active torsions:
REMARK  status: ('A' for Active; 'I' for Inactive)
REMARK    1  A    between atoms: N_1  and  C_4
REMARK    2  A    between atoms: C_4  and  C_5
REMARK                            x       y       z     vdW  Elec       q    Type
REMARK                         _______ _______ _______ _____ _____    ______ ____
ROOT
ATOM      1  N   UNL     1      -7.248   6.241   8.376  0.00  0.00    -0.354 N 
ATOM      2  N   UNL     1      -5.948   8.034   9.055  0.00  0.00    -0.372 N 
ATOM      3  N   UNL     1      -7.721   8.418   7.649  0.00  0.00    -0.372 N 
ATOM      4  C   UNL     1      -6.982   7.554   8.354  0.00  0.00    +0.166 C 
ATOM      5  H   UNL     1      -6.632   5.634   8.905  0.00  0.00    +0.163 HD
ATOM      6  H   UNL     1      -5.726   9.020   9.061  0.00  0.00    +0.159 HD
ATOM      7  H   UNL     1      -5.362   7.431   9.620  0.00  0.00    +0.159 HD
ATOM      8  H   UNL     1      -8.511   8.119   7.094  0.00  0.00    +0.159 HD
ATOM      9  H   UNL     1      -7.507   9.408   7.633  0.00  0.00    +0.159 HD
ENDROOT
BRANCH   1  10
ATOM     10  C   UNL     1      -8.382   5.625   7.690  0.00  0.00    +0.151 C 
BRANCH  10  11
ATOM     11  C   UNL     1      -7.878   4.522   6.800  0.00  0.00    -0.028 A 
ATOM     12  C   UNL     1      -6.530   4.477   6.416  0.00  0.00    +0.005 A 
ATOM     13  C   UNL     1      -8.743   3.515   6.343  0.00  0.00    +0.005 A 
ATOM     14  C   UNL     1      -6.055   3.436   5.614  0.00  0.00    +0.000 A 
ATOM     15  C   UNL     1      -8.265   2.478   5.543  0.00  0.00    +0.000 A 
ATOM     16  C   UNL     1      -6.921   2.437   5.180  0.00  0.00    +0.000 A 
ENDBRANCH  10  11
ENDBRANCH   1  10
TORSDOF 2
ENDMDL
MODEL 8
REMARK VINA RESULT:    -3.471      7.682     10.081
REMARK INTER + INTRA:          -4.056
REMARK INTER:                  -3.944
REMARK INTRA:                  -0.111
REMARK UNBOUND:                -0.179
REMARK  Name = 1550473
REMARK  2 active torsions:
REMARK  status: ('A' for Active; 'I' for Inactive)
REMARK    1  A    between atoms: N_1  and  C_4
REMARK    2  A    between atoms: C_4  and  C_5
REMARK                            x       y       z     vdW  Elec       q    Type
REMARK                         _______ _______ _______ _____ _____    ______ ____
ROOT
ATOM      1  N   UNL     1      -3.437   9.050   8.868  0.00  0.00    -0.354 N 
ATOM      2  N   UNL     1      -2.703  11.243   8.991  0.00  0.00    -0.372 N 
ATOM      3  N   UNL     1      -4.934  10.839   8.639  0.00  0.00    -0.372 N 
ATOM      4  C   UNL     1      -3.698  10.363   8.831  0.00  0.00    +0.166 C 
ATOM      5  H   UNL     1      -2.475   8.754   8.986  0.00  0.00    +0.163 HD
ATOM      6  H   UNL     1      -2.870  12.240   8.972  0.00  0.00    +0.159 HD
ATOM      7  H   UNL     1      -1.749  10.944   9.156  0.00  0.00    +0.159 HD
ATOM      8  H   UNL     1      -5.728  10.227   8.506  0.00  0.00    +0.159 HD
ATOM      9  H   UNL     1      -5.120  11.833   8.605  0.00  0.00    +0.159 HD
ENDROOT
BRANCH   1  10
ATOM     10  C   UNL     1      -4.457   8.009   8.758  0.00  0.00    +0.151 C 
BRANCH  10  11
ATOM     11  C   UNL     1      -3.889   6.842   8.000  0.00  0.00    -0.028 A 
ATOM     12  C   UNL     1      -2.651   6.292   8.363  0.00  0.00    +0.005 A 
ATOM     13  C   UNL     1      -4.586   6.277   6.921  0.00  0.00    +0.005 A 
ATOM     14  C   UNL     1      -2.136   5.188   7.678  0.00  0.00    +0.000 A 
ATOM     15  C   UNL     1      -4.069   5.175   6.240  0.00  0.00    +0.000 A 
ATOM     16  C   UNL     1      -2.845   4.630   6.620  0.00  0.00    +0.000 A 
ENDBRANCH  10  11
ENDBRANCH   1  10
TORSDOF 2
ENDMDL
MODEL 9
REMARK VINA RESULT:    -3.378      6.619      8.333
REMARK INTER + INTRA:          -3.952
REMARK INTER:                  -3.810
REMARK INTRA:                  -0.142
REMARK UNBOUND:                -0.179
REMARK  Name = 1550473
REMARK  2 active torsions:
REMARK  status: ('A' for Active; 'I' for Inactive)
REMARK    1  A    between atoms: N_1  and  C_4
REMARK    2  A    between atoms: C_4  and  C_5
REMARK                            x       y       z     vdW  Elec       q    Type
REMARK                         _______ _______ _______ _____ _____    ______ ____
ROOT
ATOM      1  N   UNL     1      -6.314  19.639  16.248  0.00  0.00    -0.354 N 
ATOM      2  N   UNL     1      -7.193  21.655  16.973  0.00  0.00    -0.372 N 
ATOM      3  N   UNL     1      -4.936  21.293  17.176  0.00  0.00    -0.372 N 
ATOM      4  C   UNL     1      -6.139  20.849  16.795  0.00  0.00    +0.166 C 
ATOM      5  H   UNL     1      -7.255  19.350  16.009  0.00  0.00    +0.163 HD
ATOM      6  H   UNL     1      -7.092  22.575  17.380  0.00  0.00    +0.159 HD
ATOM      7  H   UNL     1      -8.127  21.382  16.691  0.00  0.00    +0.159 HD
ATOM      8  H   UNL     1      -4.102  20.731  17.074  0.00  0.00    +0.159 HD
ATOM      9  H   UNL     1      -4.817  22.206  17.596  0.00  0.00    +0.159 HD
ENDROOT
BRANCH   1  10
ATOM     10  C   UNL     1      -5.225  18.707  15.962  0.00  0.00    +0.151 C 
BRANCH  10  11
ATOM     11  C   UNL     1      -5.585  17.350  16.501  0.00  0.00    -0.028 A 
ATOM     12  C   UNL     1      -5.948  17.192  17.846  0.00  0.00    +0.005 A 
ATOM     13  C   UNL     1      -5.571  16.219  15.670  0.00  0.00    +0.005 A 
ATOM     14  C   UNL     1      -6.312  15.937  18.340  0.00  0.00    +0.000 A 
ATOM     15  C   UNL     1      -5.934  14.968  16.167  0.00  0.00    +0.000 A 
ATOM     16  C   UNL     1      -6.307  14.827  17.502  0.00  0.00    +0.000 A 
ENDBRANCH  10  11
ENDBRANCH   1  10
TORSDOF 2
ENDMDL
