MODEL 1
REMARK VINA RESULT:    -6.593      0.000      0.000
REMARK INTER + INTRA:          -7.502
REMARK INTER:                  -7.363
REMARK INTRA:                  -0.138
REMARK UNBOUND:                -0.138
REMARK  Name = 1550473
REMARK  2 active torsions:
REMARK  status: ('A' for Active; 'I' for Inactive)
REMARK    1  A    between atoms: N_1  and  C_4
REMARK    2  A    between atoms: C_4  and  C_5
REMARK                            x       y       z     vdW  Elec       q    Type
REMARK                         _______ _______ _______ _____ _____    ______ ____
ROOT
ATOM      1  N   UNL     1      -3.236  -5.502   1.322  0.00  0.00    -0.354 N 
ATOM      2  N   UNL     1      -2.318  -6.722   3.063  0.00  0.00    -0.372 N 
ATOM      3  N   UNL     1      -4.078  -5.316   3.501  0.00  0.00    -0.372 N 
ATOM      4  C   UNL     1      -3.218  -5.837   2.619  0.00  0.00    +0.166 C 
ATOM      5  H   UNL     1      -2.538  -5.909   0.710  0.00  0.00    +0.163 HD
ATOM      6  H   UNL     1      -2.283  -6.997   4.036  0.00  0.00    +0.159 HD
ATOM      7  H   UNL     1      -1.651  -7.162   2.441  0.00  0.00    +0.159 HD
ATOM      8  H   UNL     1      -4.779  -4.639   3.230  0.00  0.00    +0.159 HD
ATOM      9  H   UNL     1      -4.051  -5.570   4.480  0.00  0.00    +0.159 HD
ENDROOT
BRANCH   1  10
ATOM     10  C   UNL     1      -4.210  -4.589   0.726  0.00  0.00    +0.151 C 
BRANCH  10  11
ATOM     11  C   UNL     1      -4.669  -5.152  -0.591  0.00  0.00    -0.028 A 
ATOM     12  C   UNL     1      -5.618  -4.469  -1.365  0.00  0.00    +0.005 A 
ATOM     13  C   UNL     1      -4.154  -6.365  -1.073  0.00  0.00    +0.005 A 
ATOM     14  C   UNL     1      -6.023  -4.976  -2.602  0.00  0.00    +0.000 A 
ATOM     15  C   UNL     1      -4.561  -6.869  -2.308  0.00  0.00    +0.000 A 
ATOM     16  C   UNL     1      -5.493  -6.173  -3.074  0.00  0.00    +0.000 A 
ENDBRANCH  10  11
ENDBRANCH   1  10
TORSDOF 2
ENDMDL
MODEL 2
REMARK VINA RESULT:    -6.546      1.668      2.735
REMARK INTER + INTRA:          -7.450
REMARK INTER:                  -7.357
REMARK INTRA:                  -0.093
REMARK UNBOUND:                -0.138
REMARK  Name = 1550473
REMARK  2 active torsions:
REMARK  status: ('A' for Active; 'I' for Inactive)
REMARK    1  A    between atoms: N_1  and  C_4
REMARK    2  A    between atoms: C_4  and  C_5
REMARK                            x       y       z     vdW  Elec       q    Type
REMARK                         _______ _______ _______ _____ _____    ______ ____
ROOT
ATOM      1  N   UNL     1      -3.038  -5.329   3.555  0.00  0.00    -0.354 N 
ATOM      2  N   UNL     1      -1.386  -5.108   5.163  0.00  0.00    -0.372 N 
ATOM      3  N   UNL     1      -3.426  -5.960   5.778  0.00  0.00    -0.372 N 
ATOM      4  C   UNL     1      -2.630  -5.468   4.823  0.00  0.00    +0.166 C 
ATOM      5  H   UNL     1      -2.396  -4.921   2.885  0.00  0.00    +0.163 HD
ATOM      6  H   UNL     1      -1.049  -5.204   6.112  0.00  0.00    +0.159 HD
ATOM      7  H   UNL     1      -0.732  -4.743   4.482  0.00  0.00    +0.159 HD
ATOM      8  H   UNL     1      -4.378  -6.245   5.588  0.00  0.00    +0.159 HD
ATOM      9  H   UNL     1      -3.111  -6.053   6.736  0.00  0.00    +0.159 HD
ENDROOT
BRANCH   1  10
ATOM     10  C   UNL     1      -4.354  -5.741   3.070  0.00  0.00    +0.151 C 
BRANCH  10  11
ATOM     11  C   UNL     1      -4.302  -5.889   1.574  0.00  0.00    -0.028 A 
ATOM     12  C   UNL     1      -4.228  -7.160   0.987  0.00  0.00    +0.005 A 
ATOM     13  C   UNL     1      -4.333  -4.761   0.739  0.00  0.00    +0.005 A 
ATOM     14  C   UNL     1      -4.210  -7.299  -0.403  0.00  0.00    +0.000 A 
ATOM     15  C   UNL     1      -4.314  -4.904  -0.648  0.00  0.00    +0.000 A 
ATOM     16  C   UNL     1      -4.255  -6.174  -1.219  0.00  0.00    +0.000 A 
ENDBRANCH  10  11
ENDBRANCH   1  10
TORSDOF 2
ENDMDL
MODEL 3
REMARK VINA RESULT:    -6.492     13.572     14.842
REMARK INTER + INTRA:          -7.389
REMARK INTER:                  -7.264
REMARK INTRA:                  -0.125
REMARK UNBOUND:                -0.138
REMARK  Name = 1550473
REMARK  2 active torsions:
REMARK  status: ('A' for Active; 'I' for Inactive)
REMARK    1  A    between atoms: N_1  and  C_4
REMARK    2  A    between atoms: C_4  and  C_5
REMARK                            x       y       z     vdW  Elec       q    Type
REMARK                         _______ _______ _______ _____ _____    ______ ____
ROOT
ATOM      1  N   UNL     1       4.456 -16.035   7.464  0.00  0.00    -0.354 N 
ATOM      2  N   UNL     1       5.192 -17.829   6.197  0.00  0.00    -0.372 N 
ATOM      3  N   UNL     1       2.935 -17.514   6.468  0.00  0.00    -0.372 N 
ATOM      4  C   UNL     1       4.187 -17.115   6.718  0.00  0.00    +0.166 C 
ATOM      5  H   UNL     1       5.427 -15.802   7.641  0.00  0.00    +0.163 HD
ATOM      6  H   UNL     1       5.019 -18.646   5.628  0.00  0.00    +0.159 HD
ATOM      7  H   UNL     1       6.160 -17.568   6.338  0.00  0.00    +0.159 HD
ATOM      8  H   UNL     1       2.133 -17.021   6.837  0.00  0.00    +0.159 HD
ATOM      9  H   UNL     1       2.742 -18.336   5.910  0.00  0.00    +0.159 HD
ENDROOT
BRANCH   1  10
ATOM     10  C   UNL     1       3.434 -15.158   8.032  0.00  0.00    +0.151 C 
BRANCH  10  11
ATOM     11  C   UNL     1       3.914 -13.734   7.962  0.00  0.00    -0.028 A 
ATOM     12  C   UNL     1       2.997 -12.676   7.891  0.00  0.00    +0.005 A 
ATOM     13  C   UNL     1       5.286 -13.437   7.973  0.00  0.00    +0.005 A 
ATOM     14  C   UNL     1       3.442 -11.352   7.857  0.00  0.00    +0.000 A 
ATOM     15  C   UNL     1       5.726 -12.114   7.938  0.00  0.00    +0.000 A 
ATOM     16  C   UNL     1       4.804 -11.072   7.882  0.00  0.00    +0.000 A 
ENDBRANCH  10  11
ENDBRANCH   1  10
TORSDOF 2
ENDMDL
MODEL 4
REMARK VINA RESULT:    -6.015      1.742      2.653
REMARK INTER + INTRA:          -6.856
REMARK INTER:                  -6.728
REMARK INTRA:                  -0.128
REMARK UNBOUND:                -0.138
REMARK  Name = 1550473
REMARK  2 active torsions:
REMARK  status: ('A' for Active; 'I' for Inactive)
REMARK    1  A    between atoms: N_1  and  C_4
REMARK    2  A    between atoms: C_4  and  C_5
REMARK                            x       y       z     vdW  Elec       q    Type
REMARK                         _______ _______ _______ _____ _____    ______ ____
ROOT
ATOM      1  N   UNL     1      -2.113  -7.159   1.504  0.00  0.00    -0.354 N 
ATOM      2  N   UNL     1      -2.027  -8.176   3.583  0.00  0.00    -0.372 N 
ATOM      3  N   UNL     1      -2.317  -9.483   1.719  0.00  0.00    -0.372 N 
ATOM      4  C   UNL     1      -2.153  -8.268   2.253  0.00  0.00    +0.166 C 
ATOM      5  H   UNL     1      -2.017  -6.265   1.972  0.00  0.00    +0.163 HD
ATOM      6  H   UNL     1      -2.050  -8.996   4.174  0.00  0.00    +0.159 HD
ATOM      7  H   UNL     1      -1.885  -7.286   4.044  0.00  0.00    +0.159 HD
ATOM      8  H   UNL     1      -2.424  -9.620   0.723  0.00  0.00    +0.159 HD
ATOM      9  H   UNL     1      -2.355 -10.315   2.295  0.00  0.00    +0.159 HD
ENDROOT
BRANCH   1  10
ATOM     10  C   UNL     1      -2.187  -7.155   0.044  0.00  0.00    +0.151 C 
BRANCH  10  11
ATOM     11  C   UNL     1      -3.263  -6.199  -0.391  0.00  0.00    -0.028 A 
ATOM     12  C   UNL     1      -3.336  -4.911   0.159  0.00  0.00    +0.005 A 
ATOM     13  C   UNL     1      -4.210  -6.573  -1.357  0.00  0.00    +0.005 A 
ATOM     14  C   UNL     1      -4.317  -4.012  -0.266  0.00  0.00    +0.000 A 
ATOM     15  C   UNL     1      -5.189  -5.673  -1.778  0.00  0.00    +0.000 A 
ATOM     16  C   UNL     1      -5.240  -4.392  -1.234  0.00  0.00    +0.000 A 
ENDBRANCH  10  11
ENDBRANCH   1  10
TORSDOF 2
ENDMDL
MODEL 5
REMARK VINA RESULT:    -5.893     21.867     22.506
REMARK INTER + INTRA:          -6.721
REMARK INTER:                  -6.601
REMARK INTRA:                  -0.120
REMARK UNBOUND:                -0.138
REMARK  Name = 1550473
REMARK  2 active torsions:
REMARK  status: ('A' for Active; 'I' for Inactive)
REMARK    1  A    between atoms: N_1  and  C_4
REMARK    2  A    between atoms: C_4  and  C_5
REMARK                            x       y       z     vdW  Elec       q    Type
REMARK                         _______ _______ _______ _____ _____    ______ ____
ROOT
ATOM      1  N   UNL     1       4.339  12.868  -6.673  0.00  0.00    -0.354 N 
ATOM      2  N   UNL     1       2.635  12.445  -5.163  0.00  0.00    -0.372 N 
ATOM      3  N   UNL     1       2.547  14.358  -6.427  0.00  0.00    -0.372 N 
ATOM      4  C   UNL     1       3.184  13.229  -6.098  0.00  0.00    +0.166 C 
ATOM      5  H   UNL     1       4.788  12.015  -6.358  0.00  0.00    +0.163 HD
ATOM      6  H   UNL     1       1.762  12.690  -4.715  0.00  0.00    +0.159 HD
ATOM      7  H   UNL     1       3.061  11.570  -4.883  0.00  0.00    +0.159 HD
ATOM      8  H   UNL     1       2.913  14.996  -7.121  0.00  0.00    +0.159 HD
ATOM      9  H   UNL     1       1.679  14.626  -5.981  0.00  0.00    +0.159 HD
ENDROOT
BRANCH   1  10
ATOM     10  C   UNL     1       4.994  13.624  -7.739  0.00  0.00    +0.151 C 
BRANCH  10  11
ATOM     11  C   UNL     1       6.256  12.913  -8.142  0.00  0.00    -0.028 A 
ATOM     12  C   UNL     1       6.886  13.214  -9.359  0.00  0.00    +0.005 A 
ATOM     13  C   UNL     1       6.830  11.940  -7.309  0.00  0.00    +0.005 A 
ATOM     14  C   UNL     1       8.074  12.575  -9.720  0.00  0.00    +0.000 A 
ATOM     15  C   UNL     1       8.017  11.304  -7.674  0.00  0.00    +0.000 A 
ATOM     16  C   UNL     1       8.640  11.624  -8.878  0.00  0.00    +0.000 A 
ENDBRANCH  10  11
ENDBRANCH   1  10
TORSDOF 2
ENDMDL
MODEL 6
REMARK VINA RESULT:    -5.845      2.643      3.577
REMARK INTER + INTRA:          -6.666
REMARK INTER:                  -6.487
REMARK INTRA:                  -0.179
REMARK UNBOUND:                -0.138
REMARK  Name = 1550473
REMARK  2 active torsions:
REMARK  status: ('A' for Active; 'I' for Inactive)
REMARK    1  A    between atoms: N_1  and  C_4
REMARK    2  A    between atoms: C_4  and  C_5
REMARK                            x       y       z     vdW  Elec       q    Type
REMARK                         _______ _______ _______ _____ _____    ______ ____
ROOT
ATOM      1  N   UNL     1      -1.851  -9.056   2.844  0.00  0.00    -0.354 N 
ATOM      2  N   UNL     1      -0.898  -8.377   4.843  0.00  0.00    -0.372 N 
ATOM      3  N   UNL     1      -3.185  -8.427   4.665  0.00  0.00    -0.372 N 
ATOM      4  C   UNL     1      -1.987  -8.624   4.105  0.00  0.00    +0.166 C 
ATOM      5  H   UNL     1      -0.915  -9.157   2.468  0.00  0.00    +0.163 HD
ATOM      6  H   UNL     1      -0.970  -8.053   5.798  0.00  0.00    +0.159 HD
ATOM      7  H   UNL     1       0.036  -8.522   4.480  0.00  0.00    +0.159 HD
ATOM      8  H   UNL     1      -4.046  -8.589   4.159  0.00  0.00    +0.159 HD
ATOM      9  H   UNL     1      -3.277  -8.092   5.616  0.00  0.00    +0.159 HD
ENDROOT
BRANCH   1  10
ATOM     10  C   UNL     1      -2.972  -9.405   1.974  0.00  0.00    +0.151 C 
BRANCH  10  11
ATOM     11  C   UNL     1      -3.275  -8.241   1.072  0.00  0.00    -0.028 A 
ATOM     12  C   UNL     1      -4.516  -7.590   1.142  0.00  0.00    +0.005 A 
ATOM     13  C   UNL     1      -2.324  -7.780   0.149  0.00  0.00    +0.005 A 
ATOM     14  C   UNL     1      -4.786  -6.489   0.326  0.00  0.00    +0.000 A 
ATOM     15  C   UNL     1      -2.599  -6.681  -0.665  0.00  0.00    +0.000 A 
ATOM     16  C   UNL     1      -3.829  -6.034  -0.575  0.00  0.00    +0.000 A 
ENDBRANCH  10  11
ENDBRANCH   1  10
TORSDOF 2
ENDMDL
MODEL 7
REMARK VINA RESULT:    -5.794     13.866     15.089
REMARK INTER + INTRA:          -6.610
REMARK INTER:                  -6.486
REMARK INTRA:                  -0.123
REMARK UNBOUND:                -0.138
REMARK  Name = 1550473
REMARK  2 active torsions:
REMARK  status: ('A' for Active; 'I' for Inactive)
REMARK    1  A    between atoms: N_1  and  C_4
REMARK    2  A    between atoms: C_4  and  C_5
REMARK                            x       y       z     vdW  Elec       q    Type
REMARK                         _______ _______ _______ _____ _____    ______ ____
ROOT
ATOM      1  N   UNL     1       5.063 -13.397   7.917  0.00  0.00    -0.354 N 
ATOM      2  N   UNL     1       7.048 -12.203   7.929  0.00  0.00    -0.372 N 
ATOM      3  N   UNL     1       5.062 -11.053   7.910  0.00  0.00    -0.372 N 
ATOM      4  C   UNL     1       5.710 -12.223   7.918  0.00  0.00    +0.166 C 
ATOM      5  H   UNL     1       5.612 -14.248   7.893  0.00  0.00    +0.163 HD
ATOM      6  H   UNL     1       7.563 -11.333   7.934  0.00  0.00    +0.159 HD
ATOM      7  H   UNL     1       7.594 -13.055   7.952  0.00  0.00    +0.159 HD
ATOM      8  H   UNL     1       4.052 -11.000   7.895  0.00  0.00    +0.159 HD
ATOM      9  H   UNL     1       5.560 -10.172   7.903  0.00  0.00    +0.159 HD
ENDROOT
BRANCH   1  10
ATOM     10  C   UNL     1       3.608 -13.529   7.959  0.00  0.00    +0.151 C 
BRANCH  10  11
ATOM     11  C   UNL     1       3.251 -14.981   8.115  0.00  0.00    -0.028 A 
ATOM     12  C   UNL     1       4.235 -15.925   8.446  0.00  0.00    +0.005 A 
ATOM     13  C   UNL     1       1.929 -15.419   7.940  0.00  0.00    +0.005 A 
ATOM     14  C   UNL     1       3.898 -17.269   8.620  0.00  0.00    +0.000 A 
ATOM     15  C   UNL     1       1.597 -16.763   8.115  0.00  0.00    +0.000 A 
ATOM     16  C   UNL     1       2.582 -17.687   8.457  0.00  0.00    +0.000 A 
ENDBRANCH  10  11
ENDBRANCH   1  10
TORSDOF 2
ENDMDL
MODEL 8
REMARK VINA RESULT:    -5.692      1.656      2.595
REMARK INTER + INTRA:          -6.496
REMARK INTER:                  -6.359
REMARK INTRA:                  -0.137
REMARK UNBOUND:                -0.138
REMARK  Name = 1550473
REMARK  2 active torsions:
REMARK  status: ('A' for Active; 'I' for Inactive)
REMARK    1  A    between atoms: N_1  and  C_4
REMARK    2  A    between atoms: C_4  and  C_5
REMARK                            x       y       z     vdW  Elec       q    Type
REMARK                         _______ _______ _______ _____ _____    ______ ____
ROOT
ATOM      1  N   UNL     1      -2.833  -7.035   3.560  0.00  0.00    -0.354 N 
ATOM      2  N   UNL     1      -1.107  -8.112   4.667  0.00  0.00    -0.372 N 
ATOM      3  N   UNL     1      -1.179  -5.819   4.689  0.00  0.00    -0.372 N 
ATOM      4  C   UNL     1      -1.717  -6.979   4.298  0.00  0.00    +0.166 C 
ATOM      5  H   UNL     1      -3.173  -7.945   3.270  0.00  0.00    +0.163 HD
ATOM      6  H   UNL     1      -0.265  -8.101   5.228  0.00  0.00    +0.159 HD
ATOM      7  H   UNL     1      -1.475  -9.021   4.415  0.00  0.00    +0.159 HD
ATOM      8  H   UNL     1      -1.588  -4.928   4.439  0.00  0.00    +0.159 HD
ATOM      9  H   UNL     1      -0.331  -5.787   5.241  0.00  0.00    +0.159 HD
ENDROOT
BRANCH   1  10
ATOM     10  C   UNL     1      -3.603  -5.862   3.151  0.00  0.00    +0.151 C 
BRANCH  10  11
ATOM     11  C   UNL     1      -3.865  -5.937   1.672  0.00  0.00    -0.028 A 
ATOM     12  C   UNL     1      -4.074  -4.768   0.926  0.00  0.00    +0.005 A 
ATOM     13  C   UNL     1      -3.899  -7.174   1.010  0.00  0.00    +0.005 A 
ATOM     14  C   UNL     1      -4.287  -4.835  -0.453  0.00  0.00    +0.000 A 
ATOM     15  C   UNL     1      -4.112  -7.237  -0.367  0.00  0.00    +0.000 A 
ATOM     16  C   UNL     1      -4.304  -6.067  -1.099  0.00  0.00    +0.000 A 
ENDBRANCH  10  11
ENDBRANCH   1  10
TORSDOF 2
ENDMDL
MODEL 9
REMARK VINA RESULT:    -5.522     22.153     22.859
REMARK INTER + INTRA:          -6.306
REMARK INTER:                  -6.186
REMARK INTRA:                  -0.120
REMARK UNBOUND:                -0.138
REMARK  Name = 1550473
REMARK  2 active torsions:
REMARK  status: ('A' for Active; 'I' for Inactive)
REMARK    1  A    between atoms: N_1  and  C_4
REMARK    2  A    between atoms: C_4  and  C_5
REMARK                            x       y       z     vdW  Elec       q    Type
REMARK                         _______ _______ _______ _____ _____    ______ ____
ROOT
ATOM      1  N   UNL     1       6.974  13.059  -8.059  0.00  0.00    -0.354 N 
ATOM      2  N   UNL     1       8.263  13.130  -9.982  0.00  0.00    -0.372 N 
ATOM      3  N   UNL     1       9.195  12.312  -8.051  0.00  0.00    -0.372 N 
ATOM      4  C   UNL     1       8.138  12.832  -8.683  0.00  0.00    +0.166 C 
ATOM      5  H   UNL     1       6.220  13.484  -8.587  0.00  0.00    +0.163 HD
ATOM      6  H   UNL     1       9.128  12.966 -10.480  0.00  0.00    +0.159 HD
ATOM      7  H   UNL     1       7.494  13.511 -10.518  0.00  0.00    +0.159 HD
ATOM      8  H   UNL     1       9.167  12.071  -7.069  0.00  0.00    +0.159 HD
ATOM      9  H   UNL     1      10.073  12.152  -8.529  0.00  0.00    +0.159 HD
ENDROOT
BRANCH   1  10
ATOM     10  C   UNL     1       6.716  12.721  -6.661  0.00  0.00    +0.151 C 
BRANCH  10  11
ATOM     11  C   UNL     1       5.324  13.160  -6.298  0.00  0.00    -0.028 A 
ATOM     12  C   UNL     1       4.372  13.406  -7.297  0.00  0.00    +0.005 A 
ATOM     13  C   UNL     1       4.950  13.326  -4.955  0.00  0.00    +0.005 A 
ATOM     14  C   UNL     1       3.070  13.785  -6.960  0.00  0.00    +0.000 A 
ATOM     15  C   UNL     1       3.650  13.705  -4.622  0.00  0.00    +0.000 A 
ATOM     16  C   UNL     1       2.710  13.932  -5.625  0.00  0.00    +0.000 A 
ENDBRANCH  10  11
ENDBRANCH   1  10
TORSDOF 2
ENDMDL
