MODEL 1
REMARK VINA RESULT:    -5.186      0.000      0.000
REMARK INTER + INTRA:          -5.895
REMARK INTER:                  -5.793
REMARK INTRA:                  -0.103
REMARK UNBOUND:                -0.103
REMARK  Name = 1550473
REMARK  2 active torsions:
REMARK  status: ('A' for Active; 'I' for Inactive)
REMARK    1  A    between atoms: N_1  and  C_4
REMARK    2  A    between atoms: C_4  and  C_5
REMARK                            x       y       z     vdW  Elec       q    Type
REMARK                         _______ _______ _______ _____ _____    ______ ____
ROOT
ATOM      1  N   UNL     1       7.812   4.763   4.949  0.00  0.00    -0.354 N 
ATOM      2  N   UNL     1       6.005   3.836   3.836  0.00  0.00    -0.372 N 
ATOM      3  N   UNL     1       7.511   2.441   4.862  0.00  0.00    -0.372 N 
ATOM      4  C   UNL     1       7.123   3.684   4.557  0.00  0.00    +0.166 C 
ATOM      5  H   UNL     1       7.482   5.677   4.660  0.00  0.00    +0.163 HD
ATOM      6  H   UNL     1       5.462   3.041   3.529  0.00  0.00    +0.159 HD
ATOM      7  H   UNL     1       5.652   4.753   3.588  0.00  0.00    +0.159 HD
ATOM      8  H   UNL     1       8.348   2.258   5.398  0.00  0.00    +0.159 HD
ATOM      9  H   UNL     1       6.987   1.632   4.553  0.00  0.00    +0.159 HD
ENDROOT
BRANCH   1  10
ATOM     10  C   UNL     1       9.012   4.709   5.783  0.00  0.00    +0.151 C 
BRANCH  10  11
ATOM     11  C   UNL     1       9.678   6.057   5.774  0.00  0.00    -0.028 A 
ATOM     12  C   UNL     1       9.838   6.780   6.965  0.00  0.00    +0.005 A 
ATOM     13  C   UNL     1      10.156   6.615   4.578  0.00  0.00    +0.005 A 
ATOM     14  C   UNL     1      10.484   8.019   6.962  0.00  0.00    +0.000 A 
ATOM     15  C   UNL     1      10.799   7.853   4.579  0.00  0.00    +0.000 A 
ATOM     16  C   UNL     1      10.965   8.553   5.772  0.00  0.00    +0.000 A 
ENDBRANCH  10  11
ENDBRANCH   1  10
TORSDOF 2
ENDMDL
MODEL 2
REMARK VINA RESULT:    -4.954      5.437      8.310
REMARK INTER + INTRA:          -5.636
REMARK INTER:                  -5.522
REMARK INTRA:                  -0.114
REMARK UNBOUND:                -0.103
REMARK  Name = 1550473
REMARK  2 active torsions:
REMARK  status: ('A' for Active; 'I' for Inactive)
REMARK    1  A    between atoms: N_1  and  C_4
REMARK    2  A    between atoms: C_4  and  C_5
REMARK                            x       y       z     vdW  Elec       q    Type
REMARK                         _______ _______ _______ _____ _____    ______ ____
ROOT
ATOM      1  N   UNL     1       6.256   2.767   1.548  0.00  0.00    -0.354 N 
ATOM      2  N   UNL     1       5.830   4.272   3.256  0.00  0.00    -0.372 N 
ATOM      3  N   UNL     1       7.062   2.392   3.717  0.00  0.00    -0.372 N 
ATOM      4  C   UNL     1       6.387   3.132   2.830  0.00  0.00    +0.166 C 
ATOM      5  H   UNL     1       5.706   3.356   0.933  0.00  0.00    +0.163 HD
ATOM      6  H   UNL     1       5.914   4.575   4.217  0.00  0.00    +0.159 HD
ATOM      7  H   UNL     1       5.320   4.882   2.629  0.00  0.00    +0.159 HD
ATOM      8  H   UNL     1       7.501   1.518   3.461  0.00  0.00    +0.159 HD
ATOM      9  H   UNL     1       7.148   2.673   4.685  0.00  0.00    +0.159 HD
ENDROOT
BRANCH   1  10
ATOM     10  C   UNL     1       6.869   1.571   0.972  0.00  0.00    +0.151 C 
BRANCH  10  11
ATOM     11  C   UNL     1       6.430   1.435  -0.460  0.00  0.00    -0.028 A 
ATOM     12  C   UNL     1       6.249   0.167  -1.032  0.00  0.00    +0.005 A 
ATOM     13  C   UNL     1       6.187   2.570  -1.248  0.00  0.00    +0.005 A 
ATOM     14  C   UNL     1       5.811   0.040  -2.352  0.00  0.00    +0.000 A 
ATOM     15  C   UNL     1       5.751   2.439  -2.567  0.00  0.00    +0.000 A 
ATOM     16  C   UNL     1       5.561   1.174  -3.117  0.00  0.00    +0.000 A 
ENDBRANCH  10  11
ENDBRANCH   1  10
TORSDOF 2
ENDMDL
MODEL 3
REMARK VINA RESULT:    -4.934      0.853      1.928
REMARK INTER + INTRA:          -5.613
REMARK INTER:                  -5.494
REMARK INTRA:                  -0.119
REMARK UNBOUND:                -0.103
REMARK  Name = 1550473
REMARK  2 active torsions:
REMARK  status: ('A' for Active; 'I' for Inactive)
REMARK    1  A    between atoms: N_1  and  C_4
REMARK    2  A    between atoms: C_4  and  C_5
REMARK                            x       y       z     vdW  Elec       q    Type
REMARK                         _______ _______ _______ _____ _____    ______ ____
ROOT
ATOM      1  N   UNL     1       8.895   3.950   4.453  0.00  0.00    -0.354 N 
ATOM      2  N   UNL     1       7.473   2.236   5.089  0.00  0.00    -0.372 N 
ATOM      3  N   UNL     1       6.617   4.007   3.907  0.00  0.00    -0.372 N 
ATOM      4  C   UNL     1       7.669   3.411   4.477  0.00  0.00    +0.166 C 
ATOM      5  H   UNL     1       9.645   3.463   4.930  0.00  0.00    +0.163 HD
ATOM      6  H   UNL     1       6.560   1.803   5.120  0.00  0.00    +0.159 HD
ATOM      7  H   UNL     1       8.233   1.729   5.525  0.00  0.00    +0.159 HD
ATOM      8  H   UNL     1       6.697   4.898   3.435  0.00  0.00    +0.159 HD
ATOM      9  H   UNL     1       5.693   3.595   3.938  0.00  0.00    +0.159 HD
ENDROOT
BRANCH   1  10
ATOM     10  C   UNL     1       9.226   5.198   3.768  0.00  0.00    +0.151 C 
BRANCH  10  11
ATOM     11  C   UNL     1       9.705   6.202   4.780  0.00  0.00    -0.028 A 
ATOM     12  C   UNL     1      10.368   7.368   4.369  0.00  0.00    +0.005 A 
ATOM     13  C   UNL     1       9.492   5.997   6.152  0.00  0.00    +0.005 A 
ATOM     14  C   UNL     1      10.786   8.315   5.307  0.00  0.00    +0.000 A 
ATOM     15  C   UNL     1       9.912   6.945   7.086  0.00  0.00    +0.000 A 
ATOM     16  C   UNL     1      10.557   8.105   6.662  0.00  0.00    +0.000 A 
ENDBRANCH  10  11
ENDBRANCH   1  10
TORSDOF 2
ENDMDL
MODEL 4
REMARK VINA RESULT:    -4.707      4.910      7.739
REMARK INTER + INTRA:          -5.360
REMARK INTER:                  -5.250
REMARK INTRA:                  -0.110
REMARK UNBOUND:                -0.103
REMARK  Name = 1550473
REMARK  2 active torsions:
REMARK  status: ('A' for Active; 'I' for Inactive)
REMARK    1  A    between atoms: N_1  and  C_4
REMARK    2  A    between atoms: C_4  and  C_5
REMARK                            x       y       z     vdW  Elec       q    Type
REMARK                         _______ _______ _______ _____ _____    ______ ____
ROOT
ATOM      1  N   UNL     1       7.117   2.027   2.518  0.00  0.00    -0.354 N 
ATOM      2  N   UNL     1       7.486   2.329   4.784  0.00  0.00    -0.372 N 
ATOM      3  N   UNL     1       6.858   4.133   3.513  0.00  0.00    -0.372 N 
ATOM      4  C   UNL     1       7.151   2.830   3.590  0.00  0.00    +0.166 C 
ATOM      5  H   UNL     1       7.379   1.055   2.637  0.00  0.00    +0.163 HD
ATOM      6  H   UNL     1       7.517   2.910   5.611  0.00  0.00    +0.159 HD
ATOM      7  H   UNL     1       7.703   1.347   4.909  0.00  0.00    +0.159 HD
ATOM      8  H   UNL     1       6.603   4.574   2.640  0.00  0.00    +0.159 HD
ATOM      9  H   UNL     1       6.895   4.733   4.327  0.00  0.00    +0.159 HD
ENDROOT
BRANCH   1  10
ATOM     10  C   UNL     1       6.712   2.462   1.182  0.00  0.00    +0.151 C 
BRANCH  10  11
ATOM     11  C   UNL     1       7.241   1.487   0.167  0.00  0.00    -0.028 A 
ATOM     12  C   UNL     1       6.371   0.857  -0.736  0.00  0.00    +0.005 A 
ATOM     13  C   UNL     1       8.611   1.192   0.099  0.00  0.00    +0.005 A 
ATOM     14  C   UNL     1       6.866  -0.026  -1.699  0.00  0.00    +0.000 A 
ATOM     15  C   UNL     1       9.101   0.309  -0.864  0.00  0.00    +0.000 A 
ATOM     16  C   UNL     1       8.228  -0.298  -1.764  0.00  0.00    +0.000 A 
ENDBRANCH  10  11
ENDBRANCH   1  10
TORSDOF 2
ENDMDL
MODEL 5
REMARK VINA RESULT:    -4.704      2.888      4.364
REMARK INTER + INTRA:          -5.357
REMARK INTER:                  -5.217
REMARK INTRA:                  -0.140
REMARK UNBOUND:                -0.103
REMARK  Name = 1550473
REMARK  2 active torsions:
REMARK  status: ('A' for Active; 'I' for Inactive)
REMARK    1  A    between atoms: N_1  and  C_4
REMARK    2  A    between atoms: C_4  and  C_5
REMARK                            x       y       z     vdW  Elec       q    Type
REMARK                         _______ _______ _______ _____ _____    ______ ____
ROOT
ATOM      1  N   UNL     1       7.240   1.664   1.951  0.00  0.00    -0.354 N 
ATOM      2  N   UNL     1       5.570   0.180   1.338  0.00  0.00    -0.372 N 
ATOM      3  N   UNL     1       5.940   2.034   0.037  0.00  0.00    -0.372 N 
ATOM      4  C   UNL     1       6.261   1.304   1.111  0.00  0.00    +0.166 C 
ATOM      5  H   UNL     1       7.414   1.083   2.764  0.00  0.00    +0.163 HD
ATOM      6  H   UNL     1       4.828  -0.118   0.719  0.00  0.00    +0.159 HD
ATOM      7  H   UNL     1       5.777  -0.422   2.126  0.00  0.00    +0.159 HD
ATOM      8  H   UNL     1       6.419   2.896  -0.188  0.00  0.00    +0.159 HD
ATOM      9  H   UNL     1       5.193   1.758  -0.588  0.00  0.00    +0.159 HD
ENDROOT
BRANCH   1  10
ATOM     10  C   UNL     1       8.087   2.840   1.764  0.00  0.00    +0.151 C 
BRANCH  10  11
ATOM     11  C   UNL     1       8.242   3.548   3.082  0.00  0.00    -0.028 A 
ATOM     12  C   UNL     1       7.383   3.258   4.152  0.00  0.00    +0.005 A 
ATOM     13  C   UNL     1       9.250   4.507   3.269  0.00  0.00    +0.005 A 
ATOM     14  C   UNL     1       7.545   3.893   5.385  0.00  0.00    +0.000 A 
ATOM     15  C   UNL     1       9.408   5.140   4.502  0.00  0.00    +0.000 A 
ATOM     16  C   UNL     1       8.557   4.831   5.560  0.00  0.00    +0.000 A 
ENDBRANCH  10  11
ENDBRANCH   1  10
TORSDOF 2
ENDMDL
MODEL 6
REMARK VINA RESULT:    -4.493      9.942     11.511
REMARK INTER + INTRA:          -5.121
REMARK INTER:                  -5.002
REMARK INTRA:                  -0.119
REMARK UNBOUND:                -0.103
REMARK  Name = 1550473
REMARK  2 active torsions:
REMARK  status: ('A' for Active; 'I' for Inactive)
REMARK    1  A    between atoms: N_1  and  C_4
REMARK    2  A    between atoms: C_4  and  C_5
REMARK                            x       y       z     vdW  Elec       q    Type
REMARK                         _______ _______ _______ _____ _____    ______ ____
ROOT
ATOM      1  N   UNL     1       4.567   1.569  -4.624  0.00  0.00    -0.354 N 
ATOM      2  N   UNL     1       4.247   3.378  -6.034  0.00  0.00    -0.372 N 
ATOM      3  N   UNL     1       4.450   1.283  -6.947  0.00  0.00    -0.372 N 
ATOM      4  C   UNL     1       4.424   2.063  -5.861  0.00  0.00    +0.166 C 
ATOM      5  H   UNL     1       4.569   2.217  -3.845  0.00  0.00    +0.163 HD
ATOM      6  H   UNL     1       4.133   3.779  -6.956  0.00  0.00    +0.159 HD
ATOM      7  H   UNL     1       4.203   4.017  -5.250  0.00  0.00    +0.159 HD
ATOM      8  H   UNL     1       4.586   0.283  -6.885  0.00  0.00    +0.159 HD
ATOM      9  H   UNL     1       4.349   1.667  -7.878  0.00  0.00    +0.159 HD
ENDROOT
BRANCH   1  10
ATOM     10  C   UNL     1       4.712   0.146  -4.324  0.00  0.00    +0.151 C 
BRANCH  10  11
ATOM     11  C   UNL     1       5.885  -0.046  -3.403  0.00  0.00    -0.028 A 
ATOM     12  C   UNL     1       5.831   0.406  -2.076  0.00  0.00    +0.005 A 
ATOM     13  C   UNL     1       7.053  -0.683  -3.850  0.00  0.00    +0.005 A 
ATOM     14  C   UNL     1       6.909   0.202  -1.212  0.00  0.00    +0.000 A 
ATOM     15  C   UNL     1       8.128  -0.884  -2.984  0.00  0.00    +0.000 A 
ATOM     16  C   UNL     1       8.055  -0.444  -1.665  0.00  0.00    +0.000 A 
ENDBRANCH  10  11
ENDBRANCH   1  10
TORSDOF 2
ENDMDL
MODEL 7
REMARK VINA RESULT:    -4.470      5.475      8.320
REMARK INTER + INTRA:          -5.095
REMARK INTER:                  -4.988
REMARK INTRA:                  -0.107
REMARK UNBOUND:                -0.103
REMARK  Name = 1550473
REMARK  2 active torsions:
REMARK  status: ('A' for Active; 'I' for Inactive)
REMARK    1  A    between atoms: N_1  and  C_4
REMARK    2  A    between atoms: C_4  and  C_5
REMARK                            x       y       z     vdW  Elec       q    Type
REMARK                         _______ _______ _______ _____ _____    ______ ____
ROOT
ATOM      1  N   UNL     1       6.523   3.443   1.257  0.00  0.00    -0.354 N 
ATOM      2  N   UNL     1       6.074   4.183   3.405  0.00  0.00    -0.372 N 
ATOM      3  N   UNL     1       7.393   5.473   2.041  0.00  0.00    -0.372 N 
ATOM      4  C   UNL     1       6.668   4.363   2.220  0.00  0.00    +0.166 C 
ATOM      5  H   UNL     1       5.985   2.609   1.466  0.00  0.00    +0.163 HD
ATOM      6  H   UNL     1       6.162   4.862   4.149  0.00  0.00    +0.159 HD
ATOM      7  H   UNL     1       5.499   3.371   3.595  0.00  0.00    +0.159 HD
ATOM      8  H   UNL     1       7.872   5.665   1.172  0.00  0.00    +0.159 HD
ATOM      9  H   UNL     1       7.503   6.158   2.778  0.00  0.00    +0.159 HD
ENDROOT
BRANCH   1  10
ATOM     10  C   UNL     1       7.084   3.569  -0.087  0.00  0.00    +0.151 C 
BRANCH  10  11
ATOM     11  C   UNL     1       6.586   2.433  -0.936  0.00  0.00    -0.028 A 
ATOM     12  C   UNL     1       6.599   1.119  -0.446  0.00  0.00    +0.005 A 
ATOM     13  C   UNL     1       6.094   2.665  -2.230  0.00  0.00    +0.005 A 
ATOM     14  C   UNL     1       6.108   0.067  -1.224  0.00  0.00    +0.000 A 
ATOM     15  C   UNL     1       5.606   1.612  -3.003  0.00  0.00    +0.000 A 
ATOM     16  C   UNL     1       5.611   0.313  -2.499  0.00  0.00    +0.000 A 
ENDBRANCH  10  11
ENDBRANCH   1  10
TORSDOF 2
ENDMDL
MODEL 8
REMARK VINA RESULT:    -4.466     14.992     15.702
REMARK INTER + INTRA:          -5.091
REMARK INTER:                  -4.940
REMARK INTRA:                  -0.151
REMARK UNBOUND:                -0.103
REMARK  Name = 1550473
REMARK  2 active torsions:
REMARK  status: ('A' for Active; 'I' for Inactive)
REMARK    1  A    between atoms: N_1  and  C_4
REMARK    2  A    between atoms: C_4  and  C_5
REMARK                            x       y       z     vdW  Elec       q    Type
REMARK                         _______ _______ _______ _____ _____    ______ ____
ROOT
ATOM      1  N   UNL     1      -2.876   8.381  16.593  0.00  0.00    -0.354 N 
ATOM      2  N   UNL     1      -3.978   6.345  16.608  0.00  0.00    -0.372 N 
ATOM      3  N   UNL     1      -2.896   7.006  14.696  0.00  0.00    -0.372 N 
ATOM      4  C   UNL     1      -3.242   7.257  15.963  0.00  0.00    +0.166 C 
ATOM      5  H   UNL     1      -3.196   8.526  17.544  0.00  0.00    +0.163 HD
ATOM      6  H   UNL     1      -4.267   5.486  16.160  0.00  0.00    +0.159 HD
ATOM      7  H   UNL     1      -4.258   6.471  17.573  0.00  0.00    +0.159 HD
ATOM      8  H   UNL     1      -2.346   7.657  14.152  0.00  0.00    +0.159 HD
ATOM      9  H   UNL     1      -3.185   6.157  14.226  0.00  0.00    +0.159 HD
ENDROOT
BRANCH   1  10
ATOM     10  C   UNL     1      -2.029   9.414  15.998  0.00  0.00    +0.151 C 
BRANCH  10  11
ATOM     11  C   UNL     1      -0.741   9.499  16.770  0.00  0.00    -0.028 A 
ATOM     12  C   UNL     1      -0.412  10.662  17.481  0.00  0.00    +0.005 A 
ATOM     13  C   UNL     1       0.151   8.416  16.801  0.00  0.00    +0.005 A 
ATOM     14  C   UNL     1       0.769  10.731  18.222  0.00  0.00    +0.000 A 
ATOM     15  C   UNL     1       1.331   8.489  17.542  0.00  0.00    +0.000 A 
ATOM     16  C   UNL     1       1.638   9.645  18.255  0.00  0.00    +0.000 A 
ENDBRANCH  10  11
ENDBRANCH   1  10
TORSDOF 2
ENDMDL
MODEL 9
REMARK VINA RESULT:    -4.356      7.539     10.267
REMARK INTER + INTRA:          -4.968
REMARK INTER:                  -4.836
REMARK INTRA:                  -0.132
REMARK UNBOUND:                -0.103
REMARK  Name = 1550473
REMARK  2 active torsions:
REMARK  status: ('A' for Active; 'I' for Inactive)
REMARK    1  A    between atoms: N_1  and  C_4
REMARK    2  A    between atoms: C_4  and  C_5
REMARK                            x       y       z     vdW  Elec       q    Type
REMARK                         _______ _______ _______ _____ _____    ______ ____
ROOT
ATOM      1  N   UNL     1       7.050   1.310  -0.424  0.00  0.00    -0.354 N 
ATOM      2  N   UNL     1       7.885   1.634   1.712  0.00  0.00    -0.372 N 
ATOM      3  N   UNL     1       5.612   1.569   1.407  0.00  0.00    -0.372 N 
ATOM      4  C   UNL     1       6.841   1.503   0.885  0.00  0.00    +0.166 C 
ATOM      5  H   UNL     1       8.006   1.300  -0.762  0.00  0.00    +0.163 HD
ATOM      6  H   UNL     1       7.758   1.777   2.705  0.00  0.00    +0.159 HD
ATOM      7  H   UNL     1       8.839   1.577   1.378  0.00  0.00    +0.159 HD
ATOM      8  H   UNL     1       4.782   1.484   0.836  0.00  0.00    +0.159 HD
ATOM      9  H   UNL     1       5.464   1.723   2.397  0.00  0.00    +0.159 HD
ENDROOT
BRANCH   1  10
ATOM     10  C   UNL     1       5.983   1.102  -1.401  0.00  0.00    +0.151 C 
BRANCH  10  11
ATOM     11  C   UNL     1       6.490   0.207  -2.499  0.00  0.00    -0.028 A 
ATOM     12  C   UNL     1       5.736   0.014  -3.665  0.00  0.00    +0.005 A 
ATOM     13  C   UNL     1       7.726  -0.447  -2.380  0.00  0.00    +0.005 A 
ATOM     14  C   UNL     1       6.220  -0.793  -4.698  0.00  0.00    +0.000 A 
ATOM     15  C   UNL     1       8.206  -1.252  -3.413  0.00  0.00    +0.000 A 
ATOM     16  C   UNL     1       7.453  -1.423  -4.572  0.00  0.00    +0.000 A 
ENDBRANCH  10  11
ENDBRANCH   1  10
TORSDOF 2
ENDMDL
