MODEL 1
REMARK VINA RESULT:    -5.544      0.000      0.000
REMARK INTER + INTRA:          -6.322
REMARK INTER:                  -6.192
REMARK INTRA:                  -0.130
REMARK UNBOUND:                -0.130
REMARK  Name = 1550473
REMARK  2 active torsions:
REMARK  status: ('A' for Active; 'I' for Inactive)
REMARK    1  A    between atoms: N_1  and  C_4
REMARK    2  A    between atoms: C_4  and  C_5
REMARK                            x       y       z     vdW  Elec       q    Type
REMARK                         _______ _______ _______ _____ _____    ______ ____
ROOT
ATOM      1  N   UNL     1      -0.641  -5.935  -5.404  0.00  0.00    -0.354 N 
ATOM      2  N   UNL     1       0.327  -6.468  -3.368  0.00  0.00    -0.372 N 
ATOM      3  N   UNL     1       1.582  -5.359  -4.937  0.00  0.00    -0.372 N 
ATOM      4  C   UNL     1       0.418  -5.916  -4.584  0.00  0.00    +0.166 C 
ATOM      5  H   UNL     1      -1.485  -6.400  -5.089  0.00  0.00    +0.163 HD
ATOM      6  H   UNL     1       1.108  -6.466  -2.727  0.00  0.00    +0.159 HD
ATOM      7  H   UNL     1      -0.532  -6.891  -3.038  0.00  0.00    +0.159 HD
ATOM      8  H   UNL     1       1.717  -4.931  -5.843  0.00  0.00    +0.159 HD
ATOM      9  H   UNL     1       2.379  -5.357  -4.313  0.00  0.00    +0.159 HD
ENDROOT
BRANCH   1  10
ATOM     10  C   UNL     1      -0.663  -5.315  -6.727  0.00  0.00    +0.151 C 
BRANCH  10  11
ATOM     11  C   UNL     1      -2.055  -4.827  -7.019  0.00  0.00    -0.028 A 
ATOM     12  C   UNL     1      -3.132  -5.222  -6.211  0.00  0.00    +0.005 A 
ATOM     13  C   UNL     1      -2.304  -3.965  -8.098  0.00  0.00    +0.005 A 
ATOM     14  C   UNL     1      -4.420  -4.746  -6.463  0.00  0.00    +0.000 A 
ATOM     15  C   UNL     1      -3.592  -3.492  -8.347  0.00  0.00    +0.000 A 
ATOM     16  C   UNL     1      -4.650  -3.881  -7.528  0.00  0.00    +0.000 A 
ENDBRANCH  10  11
ENDBRANCH   1  10
TORSDOF 2
ENDMDL
MODEL 2
REMARK VINA RESULT:    -5.368      0.604      1.571
REMARK INTER + INTRA:          -6.125
REMARK INTER:                  -5.996
REMARK INTRA:                  -0.129
REMARK UNBOUND:                -0.130
REMARK  Name = 1550473
REMARK  2 active torsions:
REMARK  status: ('A' for Active; 'I' for Inactive)
REMARK    1  A    between atoms: N_1  and  C_4
REMARK    2  A    between atoms: C_4  and  C_5
REMARK                            x       y       z     vdW  Elec       q    Type
REMARK                         _______ _______ _______ _____ _____    ______ ____
ROOT
ATOM      1  N   UNL     1      -0.304  -6.110  -4.970  0.00  0.00    -0.354 N 
ATOM      2  N   UNL     1       0.687  -6.809  -2.997  0.00  0.00    -0.372 N 
ATOM      3  N   UNL     1       1.918  -5.557  -4.474  0.00  0.00    -0.372 N 
ATOM      4  C   UNL     1       0.763  -6.153  -4.161  0.00  0.00    +0.166 C 
ATOM      5  H   UNL     1      -1.141  -6.608  -4.690  0.00  0.00    +0.163 HD
ATOM      6  H   UNL     1       1.474  -6.856  -2.364  0.00  0.00    +0.159 HD
ATOM      7  H   UNL     1      -0.166  -7.267  -2.698  0.00  0.00    +0.159 HD
ATOM      8  H   UNL     1       2.043  -5.051  -5.340  0.00  0.00    +0.159 HD
ATOM      9  H   UNL     1       2.721  -5.602  -3.859  0.00  0.00    +0.159 HD
ENDROOT
BRANCH   1  10
ATOM     10  C   UNL     1      -0.342  -5.378  -6.235  0.00  0.00    +0.151 C 
BRANCH  10  11
ATOM     11  C   UNL     1      -1.763  -4.984  -6.532  0.00  0.00    -0.028 A 
ATOM     12  C   UNL     1      -2.074  -4.263  -7.693  0.00  0.00    +0.005 A 
ATOM     13  C   UNL     1      -2.804  -5.335  -5.658  0.00  0.00    +0.005 A 
ATOM     14  C   UNL     1      -3.398  -3.923  -7.984  0.00  0.00    +0.000 A 
ATOM     15  C   UNL     1      -4.124  -4.993  -5.952  0.00  0.00    +0.000 A 
ATOM     16  C   UNL     1      -4.420  -4.289  -7.116  0.00  0.00    +0.000 A 
ENDBRANCH  10  11
ENDBRANCH   1  10
TORSDOF 2
ENDMDL
MODEL 3
REMARK VINA RESULT:    -5.184      1.019      2.030
REMARK INTER + INTRA:          -5.919
REMARK INTER:                  -5.808
REMARK INTRA:                  -0.111
REMARK UNBOUND:                -0.130
REMARK  Name = 1550473
REMARK  2 active torsions:
REMARK  status: ('A' for Active; 'I' for Inactive)
REMARK    1  A    between atoms: N_1  and  C_4
REMARK    2  A    between atoms: C_4  and  C_5
REMARK                            x       y       z     vdW  Elec       q    Type
REMARK                         _______ _______ _______ _____ _____    ______ ____
ROOT
ATOM      1  N   UNL     1       0.067  -4.625  -6.543  0.00  0.00    -0.354 N 
ATOM      2  N   UNL     1       1.962  -3.889  -5.432  0.00  0.00    -0.372 N 
ATOM      3  N   UNL     1       0.889  -5.767  -4.668  0.00  0.00    -0.372 N 
ATOM      4  C   UNL     1       0.960  -4.767  -5.553  0.00  0.00    +0.166 C 
ATOM      5  H   UNL     1       0.159  -3.829  -7.163  0.00  0.00    +0.163 HD
ATOM      6  H   UNL     1       2.652  -3.972  -4.698  0.00  0.00    +0.159 HD
ATOM      7  H   UNL     1       2.077  -3.120  -6.081  0.00  0.00    +0.159 HD
ATOM      8  H   UNL     1       0.153  -6.460  -4.701  0.00  0.00    +0.159 HD
ATOM      9  H   UNL     1       1.563  -5.861  -3.919  0.00  0.00    +0.159 HD
ENDROOT
BRANCH   1  10
ATOM     10  C   UNL     1      -1.030  -5.558  -6.794  0.00  0.00    +0.151 C 
BRANCH  10  11
ATOM     11  C   UNL     1      -2.238  -4.784  -7.246  0.00  0.00    -0.028 A 
ATOM     12  C   UNL     1      -2.141  -3.864  -8.300  0.00  0.00    +0.005 A 
ATOM     13  C   UNL     1      -3.484  -4.971  -6.628  0.00  0.00    +0.005 A 
ATOM     14  C   UNL     1      -3.269  -3.168  -8.740  0.00  0.00    +0.000 A 
ATOM     15  C   UNL     1      -4.608  -4.273  -7.070  0.00  0.00    +0.000 A 
ATOM     16  C   UNL     1      -4.500  -3.373  -8.127  0.00  0.00    +0.000 A 
ENDBRANCH  10  11
ENDBRANCH   1  10
TORSDOF 2
ENDMDL
MODEL 4
REMARK VINA RESULT:    -4.887      1.312      1.865
REMARK INTER + INTRA:          -5.588
REMARK INTER:                  -5.483
REMARK INTRA:                  -0.106
REMARK UNBOUND:                -0.130
REMARK  Name = 1550473
REMARK  2 active torsions:
REMARK  status: ('A' for Active; 'I' for Inactive)
REMARK    1  A    between atoms: N_1  and  C_4
REMARK    2  A    between atoms: C_4  and  C_5
REMARK                            x       y       z     vdW  Elec       q    Type
REMARK                         _______ _______ _______ _____ _____    ______ ____
ROOT
ATOM      1  N   UNL     1       0.303  -4.963  -4.117  0.00  0.00    -0.354 N 
ATOM      2  N   UNL     1       2.177  -4.097  -3.068  0.00  0.00    -0.372 N 
ATOM      3  N   UNL     1       2.092  -6.348  -3.506  0.00  0.00    -0.372 N 
ATOM      4  C   UNL     1       1.512  -5.144  -3.571  0.00  0.00    +0.166 C 
ATOM      5  H   UNL     1      -0.095  -4.030  -4.108  0.00  0.00    +0.163 HD
ATOM      6  H   UNL     1       3.093  -4.203  -2.653  0.00  0.00    +0.159 HD
ATOM      7  H   UNL     1       1.798  -3.159  -3.102  0.00  0.00    +0.159 HD
ATOM      8  H   UNL     1       1.639  -7.179  -3.862  0.00  0.00    +0.159 HD
ATOM      9  H   UNL     1       3.003  -6.476  -3.083  0.00  0.00    +0.159 HD
ENDROOT
BRANCH   1  10
ATOM     10  C   UNL     1      -0.481  -6.028  -4.740  0.00  0.00    +0.151 C 
BRANCH  10  11
ATOM     11  C   UNL     1      -1.386  -5.427  -5.780  0.00  0.00    -0.028 A 
ATOM     12  C   UNL     1      -2.763  -5.304  -5.541  0.00  0.00    +0.005 A 
ATOM     13  C   UNL     1      -0.872  -4.975  -7.005  0.00  0.00    +0.005 A 
ATOM     14  C   UNL     1      -3.599  -4.719  -6.495  0.00  0.00    +0.000 A 
ATOM     15  C   UNL     1      -1.710  -4.392  -7.955  0.00  0.00    +0.000 A 
ATOM     16  C   UNL     1      -3.073  -4.262  -7.699  0.00  0.00    +0.000 A 
ENDBRANCH  10  11
ENDBRANCH   1  10
TORSDOF 2
ENDMDL
MODEL 5
REMARK VINA RESULT:    -4.785      3.120      4.575
REMARK INTER + INTRA:          -5.474
REMARK INTER:                  -5.341
REMARK INTRA:                  -0.133
REMARK UNBOUND:                -0.130
REMARK  Name = 1550473
REMARK  2 active torsions:
REMARK  status: ('A' for Active; 'I' for Inactive)
REMARK    1  A    between atoms: N_1  and  C_4
REMARK    2  A    between atoms: C_4  and  C_5
REMARK                            x       y       z     vdW  Elec       q    Type
REMARK                         _______ _______ _______ _____ _____    ______ ____
ROOT
ATOM      1  N   UNL     1       2.516  -5.924  -2.364  0.00  0.00    -0.354 N 
ATOM      2  N   UNL     1       4.121  -5.385  -0.784  0.00  0.00    -0.372 N 
ATOM      3  N   UNL     1       2.031  -6.009  -0.072  0.00  0.00    -0.372 N 
ATOM      4  C   UNL     1       2.876  -5.777  -1.082  0.00  0.00    +0.166 C 
ATOM      5  H   UNL     1       3.194  -5.703  -3.083  0.00  0.00    +0.163 HD
ATOM      6  H   UNL     1       4.423  -5.268   0.174  0.00  0.00    +0.159 HD
ATOM      7  H   UNL     1       4.811  -5.209  -1.504  0.00  0.00    +0.159 HD
ATOM      8  H   UNL     1       1.075  -6.301  -0.231  0.00  0.00    +0.159 HD
ATOM      9  H   UNL     1       2.311  -5.886   0.893  0.00  0.00    +0.159 HD
ENDROOT
BRANCH   1  10
ATOM     10  C   UNL     1       1.201  -6.398  -2.794  0.00  0.00    +0.151 C 
BRANCH  10  11
ATOM     11  C   UNL     1       0.832  -5.718  -4.083  0.00  0.00    -0.028 A 
ATOM     12  C   UNL     1      -0.266  -6.162  -4.833  0.00  0.00    +0.005 A 
ATOM     13  C   UNL     1       1.573  -4.624  -4.557  0.00  0.00    +0.005 A 
ATOM     14  C   UNL     1      -0.628  -5.512  -6.016  0.00  0.00    +0.000 A 
ATOM     15  C   UNL     1       1.210  -3.978  -5.739  0.00  0.00    +0.000 A 
ATOM     16  C   UNL     1       0.108  -4.421  -6.466  0.00  0.00    +0.000 A 
ENDBRANCH  10  11
ENDBRANCH   1  10
TORSDOF 2
ENDMDL
MODEL 6
REMARK VINA RESULT:    -4.686     13.341     14.919
REMARK INTER + INTRA:          -5.364
REMARK INTER:                  -5.232
REMARK INTRA:                  -0.131
REMARK UNBOUND:                -0.130
REMARK  Name = 1550473
REMARK  2 active torsions:
REMARK  status: ('A' for Active; 'I' for Inactive)
REMARK    1  A    between atoms: N_1  and  C_4
REMARK    2  A    between atoms: C_4  and  C_5
REMARK                            x       y       z     vdW  Elec       q    Type
REMARK                         _______ _______ _______ _____ _____    ______ ____
ROOT
ATOM      1  N   UNL     1     -12.157  -9.459 -17.350  0.00  0.00    -0.354 N 
ATOM      2  N   UNL     1     -12.499 -10.163 -19.529  0.00  0.00    -0.372 N 
ATOM      3  N   UNL     1     -12.788 -11.666 -17.820  0.00  0.00    -0.372 N 
ATOM      4  C   UNL     1     -12.479 -10.427 -18.218  0.00  0.00    +0.166 C 
ATOM      5  H   UNL     1     -11.903  -8.549 -17.716  0.00  0.00    +0.163 HD
ATOM      6  H   UNL     1     -12.742 -10.872 -20.208  0.00  0.00    +0.159 HD
ATOM      7  H   UNL     1     -12.290  -9.240 -19.890  0.00  0.00    +0.159 HD
ATOM      8  H   UNL     1     -12.786 -11.932 -16.845  0.00  0.00    +0.159 HD
ATOM      9  H   UNL     1     -13.023 -12.393 -18.485  0.00  0.00    +0.159 HD
ENDROOT
BRANCH   1  10
ATOM     10  C   UNL     1     -12.158  -9.629 -15.898  0.00  0.00    +0.151 C 
BRANCH  10  11
ATOM     11  C   UNL     1     -11.056  -8.795 -15.305  0.00  0.00    -0.028 A 
ATOM     12  C   UNL     1     -11.162  -8.301 -13.997  0.00  0.00    +0.005 A 
ATOM     13  C   UNL     1      -9.900  -8.500 -16.045  0.00  0.00    +0.005 A 
ATOM     14  C   UNL     1     -10.125  -7.551 -13.435  0.00  0.00    +0.000 A 
ATOM     15  C   UNL     1      -8.868  -7.750 -15.481  0.00  0.00    +0.000 A 
ATOM     16  C   UNL     1      -8.980  -7.278 -14.175  0.00  0.00    +0.000 A 
ENDBRANCH  10  11
ENDBRANCH   1  10
TORSDOF 2
ENDMDL
MODEL 7
REMARK VINA RESULT:    -4.633     13.077     14.581
REMARK INTER + INTRA:          -5.304
REMARK INTER:                  -5.181
REMARK INTRA:                  -0.124
REMARK UNBOUND:                -0.130
REMARK  Name = 1550473
REMARK  2 active torsions:
REMARK  status: ('A' for Active; 'I' for Inactive)
REMARK    1  A    between atoms: N_1  and  C_4
REMARK    2  A    between atoms: C_4  and  C_5
REMARK                            x       y       z     vdW  Elec       q    Type
REMARK                         _______ _______ _______ _____ _____    ______ ____
ROOT
ATOM      1  N   UNL     1     -14.143  -6.382 -14.330  0.00  0.00    -0.354 N 
ATOM      2  N   UNL     1     -16.420  -6.066 -14.608  0.00  0.00    -0.372 N 
ATOM      3  N   UNL     1     -15.311  -4.818 -13.033  0.00  0.00    -0.372 N 
ATOM      4  C   UNL     1     -15.276  -5.756 -13.986  0.00  0.00    +0.166 C 
ATOM      5  H   UNL     1     -14.188  -7.105 -15.039  0.00  0.00    +0.163 HD
ATOM      6  H   UNL     1     -17.290  -5.607 -14.372  0.00  0.00    +0.159 HD
ATOM      7  H   UNL     1     -16.454  -6.756 -15.348  0.00  0.00    +0.159 HD
ATOM      8  H   UNL     1     -14.483  -4.543 -12.522  0.00  0.00    +0.159 HD
ATOM      9  H   UNL     1     -16.174  -4.357 -12.775  0.00  0.00    +0.159 HD
ENDROOT
BRANCH   1  10
ATOM     10  C   UNL     1     -12.834  -6.081 -13.752  0.00  0.00    +0.151 C 
BRANCH  10  11
ATOM     11  C   UNL     1     -11.839  -7.102 -14.230  0.00  0.00    -0.028 A 
ATOM     12  C   UNL     1     -10.488  -7.005 -13.864  0.00  0.00    +0.005 A 
ATOM     13  C   UNL     1     -12.241  -8.172 -15.044  0.00  0.00    +0.005 A 
ATOM     14  C   UNL     1      -9.569  -7.970 -14.283  0.00  0.00    +0.000 A 
ATOM     15  C   UNL     1     -11.320  -9.133 -15.460  0.00  0.00    +0.000 A 
ATOM     16  C   UNL     1      -9.985  -9.033 -15.078  0.00  0.00    +0.000 A 
ENDBRANCH  10  11
ENDBRANCH   1  10
TORSDOF 2
ENDMDL
MODEL 8
REMARK VINA RESULT:    -4.583     11.686     13.095
REMARK INTER + INTRA:          -5.248
REMARK INTER:                  -5.132
REMARK INTRA:                  -0.117
REMARK UNBOUND:                -0.130
REMARK  Name = 1550473
REMARK  2 active torsions:
REMARK  status: ('A' for Active; 'I' for Inactive)
REMARK    1  A    between atoms: N_1  and  C_4
REMARK    2  A    between atoms: C_4  and  C_5
REMARK                            x       y       z     vdW  Elec       q    Type
REMARK                         _______ _______ _______ _____ _____    ______ ____
ROOT
ATOM      1  N   UNL     1      -9.409  -7.266 -14.072  0.00  0.00    -0.354 N 
ATOM      2  N   UNL     1      -9.338  -5.451 -12.635  0.00  0.00    -0.372 N 
ATOM      3  N   UNL     1      -7.724  -5.647 -14.254  0.00  0.00    -0.372 N 
ATOM      4  C   UNL     1      -8.822  -6.133 -13.665  0.00  0.00    +0.166 C 
ATOM      5  H   UNL     1     -10.221  -7.597 -13.564  0.00  0.00    +0.163 HD
ATOM      6  H   UNL     1      -8.918  -4.592 -12.307  0.00  0.00    +0.159 HD
ATOM      7  H   UNL     1     -10.176  -5.761 -12.158  0.00  0.00    +0.159 HD
ATOM      8  H   UNL     1      -7.282  -6.117 -15.033  0.00  0.00    +0.159 HD
ATOM      9  H   UNL     1      -7.283  -4.794 -13.933  0.00  0.00    +0.159 HD
ENDROOT
BRANCH   1  10
ATOM     10  C   UNL     1      -8.958  -8.054 -15.218  0.00  0.00    +0.151 C 
BRANCH  10  11
ATOM     11  C   UNL     1     -10.158  -8.605 -15.938  0.00  0.00    -0.028 A 
ATOM     12  C   UNL     1     -10.196  -8.632 -17.340  0.00  0.00    +0.005 A 
ATOM     13  C   UNL     1     -11.257  -9.107 -15.224  0.00  0.00    +0.005 A 
ATOM     14  C   UNL     1     -11.298  -9.172 -18.009  0.00  0.00    +0.000 A 
ATOM     15  C   UNL     1     -12.355  -9.644 -15.896  0.00  0.00    +0.000 A 
ATOM     16  C   UNL     1     -12.374  -9.678 -17.288  0.00  0.00    +0.000 A 
ENDBRANCH  10  11
ENDBRANCH   1  10
TORSDOF 2
ENDMDL
MODEL 9
REMARK VINA RESULT:    -4.507      1.519      2.524
REMARK INTER + INTRA:          -5.163
REMARK INTER:                  -5.027
REMARK INTRA:                  -0.137
REMARK UNBOUND:                -0.130
REMARK  Name = 1550473
REMARK  2 active torsions:
REMARK  status: ('A' for Active; 'I' for Inactive)
REMARK    1  A    between atoms: N_1  and  C_4
REMARK    2  A    between atoms: C_4  and  C_5
REMARK                            x       y       z     vdW  Elec       q    Type
REMARK                         _______ _______ _______ _____ _____    ______ ____
ROOT
ATOM      1  N   UNL     1      -2.664  -4.549  -5.052  0.00  0.00    -0.354 N 
ATOM      2  N   UNL     1      -0.832  -4.110  -3.704  0.00  0.00    -0.372 N 
ATOM      3  N   UNL     1      -0.742  -5.887  -5.152  0.00  0.00    -0.372 N 
ATOM      4  C   UNL     1      -1.424  -4.854  -4.646  0.00  0.00    +0.166 C 
ATOM      5  H   UNL     1      -3.138  -3.772  -4.607  0.00  0.00    +0.163 HD
ATOM      6  H   UNL     1       0.104  -4.313  -3.381  0.00  0.00    +0.159 HD
ATOM      7  H   UNL     1      -1.291  -3.305  -3.295  0.00  0.00    +0.159 HD
ATOM      8  H   UNL     1      -1.135  -6.492  -5.862  0.00  0.00    +0.159 HD
ATOM      9  H   UNL     1       0.191  -6.114  -4.833  0.00  0.00    +0.159 HD
ENDROOT
BRANCH   1  10
ATOM     10  C   UNL     1      -3.377  -5.264  -6.109  0.00  0.00    +0.151 C 
BRANCH  10  11
ATOM     11  C   UNL     1      -3.863  -4.272  -7.131  0.00  0.00    -0.028 A 
ATOM     12  C   UNL     1      -2.986  -3.758  -8.097  0.00  0.00    +0.005 A 
ATOM     13  C   UNL     1      -5.200  -3.848  -7.141  0.00  0.00    +0.005 A 
ATOM     14  C   UNL     1      -3.443  -2.860  -9.064  0.00  0.00    +0.000 A 
ATOM     15  C   UNL     1      -5.653  -2.950  -8.108  0.00  0.00    +0.000 A 
ATOM     16  C   UNL     1      -4.775  -2.459  -9.071  0.00  0.00    +0.000 A 
ENDBRANCH  10  11
ENDBRANCH   1  10
TORSDOF 2
ENDMDL
