MODEL 1
REMARK VINA RESULT:    -6.237      0.000      0.000
REMARK INTER + INTRA:          -7.073
REMARK INTER:                  -6.966
REMARK INTRA:                  -0.106
REMARK UNBOUND:                -0.106
REMARK  Name = 1550473
REMARK  2 active torsions:
REMARK  status: ('A' for Active; 'I' for Inactive)
REMARK    1  A    between atoms: N_1  and  C_4
REMARK    2  A    between atoms: C_4  and  C_5
REMARK                            x       y       z     vdW  Elec       q    Type
REMARK                         _______ _______ _______ _____ _____    ______ ____
ROOT
ATOM      1  N   UNL     1      -1.997  -7.643   2.101  0.00  0.00    -0.354 N 
ATOM      2  N   UNL     1      -4.199  -8.359   2.108  0.00  0.00    -0.372 N 
ATOM      3  N   UNL     1      -2.523  -9.926   2.054  0.00  0.00    -0.372 N 
ATOM      4  C   UNL     1      -2.891  -8.640   2.087  0.00  0.00    +0.166 C 
ATOM      5  H   UNL     1      -2.340  -6.689   2.096  0.00  0.00    +0.163 HD
ATOM      6  H   UNL     1      -4.897  -9.091   2.102  0.00  0.00    +0.159 HD
ATOM      7  H   UNL     1      -4.539  -7.406   2.149  0.00  0.00    +0.159 HD
ATOM      8  H   UNL     1      -1.552 -10.204   2.031  0.00  0.00    +0.159 HD
ATOM      9  H   UNL     1      -3.207 -10.672   2.035  0.00  0.00    +0.159 HD
ENDROOT
BRANCH   1  10
ATOM     10  C   UNL     1      -0.549  -7.842   2.135  0.00  0.00    +0.151 C 
BRANCH  10  11
ATOM     11  C   UNL     1       0.124  -6.672   1.471  0.00  0.00    -0.028 A 
ATOM     12  C   UNL     1       0.133  -6.555   0.074  0.00  0.00    +0.005 A 
ATOM     13  C   UNL     1       0.748  -5.674   2.235  0.00  0.00    +0.005 A 
ATOM     14  C   UNL     1       0.732  -5.453  -0.542  0.00  0.00    +0.000 A 
ATOM     15  C   UNL     1       1.346  -4.576   1.617  0.00  0.00    +0.000 A 
ATOM     16  C   UNL     1       1.335  -4.464   0.229  0.00  0.00    +0.000 A 
ENDBRANCH  10  11
ENDBRANCH   1  10
TORSDOF 2
ENDMDL
MODEL 2
REMARK VINA RESULT:    -6.173      2.734      3.216
REMARK INTER + INTRA:          -7.001
REMARK INTER:                  -6.860
REMARK INTRA:                  -0.141
REMARK UNBOUND:                -0.106
REMARK  Name = 1550473
REMARK  2 active torsions:
REMARK  status: ('A' for Active; 'I' for Inactive)
REMARK    1  A    between atoms: N_1  and  C_4
REMARK    2  A    between atoms: C_4  and  C_5
REMARK                            x       y       z     vdW  Elec       q    Type
REMARK                         _______ _______ _______ _____ _____    ______ ____
ROOT
ATOM      1  N   UNL     1      -2.195  -9.160  -1.234  0.00  0.00    -0.354 N 
ATOM      2  N   UNL     1      -4.289 -10.100  -0.925  0.00  0.00    -0.372 N 
ATOM      3  N   UNL     1      -3.844  -9.005  -2.892  0.00  0.00    -0.372 N 
ATOM      4  C   UNL     1      -3.429  -9.414  -1.688  0.00  0.00    +0.166 C 
ATOM      5  H   UNL     1      -1.952  -9.471  -0.300  0.00  0.00    +0.163 HD
ATOM      6  H   UNL     1      -5.226 -10.310  -1.242  0.00  0.00    +0.159 HD
ATOM      7  H   UNL     1      -4.029 -10.449  -0.011  0.00  0.00    +0.159 HD
ATOM      8  H   UNL     1      -3.245  -8.479  -3.514  0.00  0.00    +0.159 HD
ATOM      9  H   UNL     1      -4.782  -9.196  -3.223  0.00  0.00    +0.159 HD
ENDROOT
BRANCH   1  10
ATOM     10  C   UNL     1      -1.165  -8.468  -2.007  0.00  0.00    +0.151 C 
BRANCH  10  11
ATOM     11  C   UNL     1      -0.559  -7.384  -1.159  0.00  0.00    -0.028 A 
ATOM     12  C   UNL     1       0.229  -6.381  -1.742  0.00  0.00    +0.005 A 
ATOM     13  C   UNL     1      -0.772  -7.353   0.227  0.00  0.00    +0.005 A 
ATOM     14  C   UNL     1       0.768  -5.357  -0.959  0.00  0.00    +0.000 A 
ATOM     15  C   UNL     1      -0.231  -6.329   1.006  0.00  0.00    +0.000 A 
ATOM     16  C   UNL     1       0.536  -5.330   0.412  0.00  0.00    +0.000 A 
ENDBRANCH  10  11
ENDBRANCH   1  10
TORSDOF 2
ENDMDL
MODEL 3
REMARK VINA RESULT:    -5.928      2.801      3.621
REMARK INTER + INTRA:          -6.728
REMARK INTER:                  -6.591
REMARK INTRA:                  -0.137
REMARK UNBOUND:                -0.106
REMARK  Name = 1550473
REMARK  2 active torsions:
REMARK  status: ('A' for Active; 'I' for Inactive)
REMARK    1  A    between atoms: N_1  and  C_4
REMARK    2  A    between atoms: C_4  and  C_5
REMARK                            x       y       z     vdW  Elec       q    Type
REMARK                         _______ _______ _______ _____ _____    ______ ____
ROOT
ATOM      1  N   UNL     1       0.135  -8.158  -1.203  0.00  0.00    -0.354 N 
ATOM      2  N   UNL     1      -0.077  -9.483  -3.090  0.00  0.00    -0.372 N 
ATOM      3  N   UNL     1      -1.944  -8.452  -2.244  0.00  0.00    -0.372 N 
ATOM      4  C   UNL     1      -0.630  -8.688  -2.166  0.00  0.00    +0.166 C 
ATOM      5  H   UNL     1       1.119  -8.400  -1.181  0.00  0.00    +0.163 HD
ATOM      6  H   UNL     1      -0.628  -9.895  -3.831  0.00  0.00    +0.159 HD
ATOM      7  H   UNL     1       0.915  -9.687  -3.093  0.00  0.00    +0.159 HD
ATOM      8  H   UNL     1      -2.423  -7.866  -1.574  0.00  0.00    +0.159 HD
ATOM      9  H   UNL     1      -2.514  -8.865  -2.971  0.00  0.00    +0.159 HD
ENDROOT
BRANCH   1  10
ATOM     10  C   UNL     1      -0.359  -7.237  -0.181  0.00  0.00    +0.151 C 
BRANCH  10  11
ATOM     11  C   UNL     1       0.533  -6.027  -0.137  0.00  0.00    -0.028 A 
ATOM     12  C   UNL     1       0.626  -5.253   1.029  0.00  0.00    +0.005 A 
ATOM     13  C   UNL     1       1.294  -5.653  -1.255  0.00  0.00    +0.005 A 
ATOM     14  C   UNL     1       1.478  -4.147   1.081  0.00  0.00    +0.000 A 
ATOM     15  C   UNL     1       2.142  -4.548  -1.200  0.00  0.00    +0.000 A 
ATOM     16  C   UNL     1       2.236  -3.796  -0.032  0.00  0.00    +0.000 A 
ENDBRANCH  10  11
ENDBRANCH   1  10
TORSDOF 2
ENDMDL
MODEL 4
REMARK VINA RESULT:    -5.793      3.374      5.322
REMARK INTER + INTRA:          -6.577
REMARK INTER:                  -6.436
REMARK INTRA:                  -0.141
REMARK UNBOUND:                -0.106
REMARK  Name = 1550473
REMARK  2 active torsions:
REMARK  status: ('A' for Active; 'I' for Inactive)
REMARK    1  A    between atoms: N_1  and  C_4
REMARK    2  A    between atoms: C_4  and  C_5
REMARK                            x       y       z     vdW  Elec       q    Type
REMARK                         _______ _______ _______ _____ _____    ______ ____
ROOT
ATOM      1  N   UNL     1       0.119  -6.695  -1.107  0.00  0.00    -0.354 N 
ATOM      2  N   UNL     1       0.414  -4.777  -2.373  0.00  0.00    -0.372 N 
ATOM      3  N   UNL     1      -0.110  -6.740  -3.439  0.00  0.00    -0.372 N 
ATOM      4  C   UNL     1       0.139  -6.085  -2.300  0.00  0.00    +0.166 C 
ATOM      5  H   UNL     1       0.346  -6.149  -0.284  0.00  0.00    +0.163 HD
ATOM      6  H   UNL     1       0.432  -4.289  -3.258  0.00  0.00    +0.159 HD
ATOM      7  H   UNL     1       0.595  -4.224  -1.544  0.00  0.00    +0.159 HD
ATOM      8  H   UNL     1      -0.318  -7.730  -3.453  0.00  0.00    +0.159 HD
ATOM      9  H   UNL     1      -0.084  -6.272  -4.336  0.00  0.00    +0.159 HD
ENDROOT
BRANCH   1  10
ATOM     10  C   UNL     1      -0.221  -8.103  -0.914  0.00  0.00    +0.151 C 
BRANCH  10  11
ATOM     11  C   UNL     1      -1.432  -8.198  -0.028  0.00  0.00    -0.028 A 
ATOM     12  C   UNL     1      -1.538  -7.401   1.122  0.00  0.00    +0.005 A 
ATOM     13  C   UNL     1      -2.480  -9.080  -0.334  0.00  0.00    +0.005 A 
ATOM     14  C   UNL     1      -2.676  -7.468   1.929  0.00  0.00    +0.000 A 
ATOM     15  C   UNL     1      -3.614  -9.144   0.475  0.00  0.00    +0.000 A 
ATOM     16  C   UNL     1      -3.713  -8.336   1.605  0.00  0.00    +0.000 A 
ENDBRANCH  10  11
ENDBRANCH   1  10
TORSDOF 2
ENDMDL
MODEL 5
REMARK VINA RESULT:    -5.725      2.919      3.313
REMARK INTER + INTRA:          -6.501
REMARK INTER:                  -6.340
REMARK INTRA:                  -0.161
REMARK UNBOUND:                -0.106
REMARK  Name = 1550473
REMARK  2 active torsions:
REMARK  status: ('A' for Active; 'I' for Inactive)
REMARK    1  A    between atoms: N_1  and  C_4
REMARK    2  A    between atoms: C_4  and  C_5
REMARK                            x       y       z     vdW  Elec       q    Type
REMARK                         _______ _______ _______ _____ _____    ______ ____
ROOT
ATOM      1  N   UNL     1      -2.371  -8.625  -1.082  0.00  0.00    -0.354 N 
ATOM      2  N   UNL     1      -3.828  -9.013  -2.841  0.00  0.00    -0.372 N 
ATOM      3  N   UNL     1      -1.712  -9.896  -2.938  0.00  0.00    -0.372 N 
ATOM      4  C   UNL     1      -2.625  -9.177  -2.276  0.00  0.00    +0.166 C 
ATOM      5  H   UNL     1      -3.095  -8.066  -0.647  0.00  0.00    +0.163 HD
ATOM      6  H   UNL     1      -4.050  -9.420  -3.739  0.00  0.00    +0.159 HD
ATOM      7  H   UNL     1      -4.565  -8.492  -2.382  0.00  0.00    +0.159 HD
ATOM      8  H   UNL     1      -0.783 -10.052  -2.569  0.00  0.00    +0.159 HD
ATOM      9  H   UNL     1      -1.912 -10.302  -3.844  0.00  0.00    +0.159 HD
ENDROOT
BRANCH   1  10
ATOM     10  C   UNL     1      -1.112  -8.788  -0.358  0.00  0.00    +0.151 C 
BRANCH  10  11
ATOM     11  C   UNL     1      -0.460  -7.442  -0.196  0.00  0.00    -0.028 A 
ATOM     12  C   UNL     1      -0.375  -6.839   1.067  0.00  0.00    +0.005 A 
ATOM     13  C   UNL     1       0.080  -6.768  -1.302  0.00  0.00    +0.005 A 
ATOM     14  C   UNL     1       0.257  -5.603   1.222  0.00  0.00    +0.000 A 
ATOM     15  C   UNL     1       0.709  -5.533  -1.143  0.00  0.00    +0.000 A 
ATOM     16  C   UNL     1       0.800  -4.953   0.120  0.00  0.00    +0.000 A 
ENDBRANCH  10  11
ENDBRANCH   1  10
TORSDOF 2
ENDMDL
MODEL 6
REMARK VINA RESULT:    -5.584      2.591      3.550
REMARK INTER + INTRA:          -6.343
REMARK INTER:                  -6.221
REMARK INTRA:                  -0.122
REMARK UNBOUND:                -0.106
REMARK  Name = 1550473
REMARK  2 active torsions:
REMARK  status: ('A' for Active; 'I' for Inactive)
REMARK    1  A    between atoms: N_1  and  C_4
REMARK    2  A    between atoms: C_4  and  C_5
REMARK                            x       y       z     vdW  Elec       q    Type
REMARK                         _______ _______ _______ _____ _____    ______ ____
ROOT
ATOM      1  N   UNL     1      -2.858  -9.403  -0.433  0.00  0.00    -0.354 N 
ATOM      2  N   UNL     1      -4.608 -10.812  -0.994  0.00  0.00    -0.372 N 
ATOM      3  N   UNL     1      -3.805  -9.356  -2.576  0.00  0.00    -0.372 N 
ATOM      4  C   UNL     1      -3.745  -9.846  -1.333  0.00  0.00    +0.166 C 
ATOM      5  H   UNL     1      -2.884  -9.795   0.502  0.00  0.00    +0.163 HD
ATOM      6  H   UNL     1      -5.287 -11.169  -1.653  0.00  0.00    +0.159 HD
ATOM      7  H   UNL     1      -4.602 -11.234  -0.074  0.00  0.00    +0.159 HD
ATOM      8  H   UNL     1      -3.186  -8.622  -2.892  0.00  0.00    +0.159 HD
ATOM      9  H   UNL     1      -4.485  -9.692  -3.246  0.00  0.00    +0.159 HD
ENDROOT
BRANCH   1  10
ATOM     10  C   UNL     1      -1.840  -8.393  -0.717  0.00  0.00    +0.151 C 
BRANCH  10  11
ATOM     11  C   UNL     1      -1.102  -8.069   0.553  0.00  0.00    -0.028 A 
ATOM     12  C   UNL     1      -1.250  -8.878   1.689  0.00  0.00    +0.005 A 
ATOM     13  C   UNL     1      -0.249  -6.957   0.624  0.00  0.00    +0.005 A 
ATOM     14  C   UNL     1      -0.542  -8.594   2.859  0.00  0.00    +0.000 A 
ATOM     15  C   UNL     1       0.456  -6.676   1.795  0.00  0.00    +0.000 A 
ATOM     16  C   UNL     1       0.311  -7.497   2.911  0.00  0.00    +0.000 A 
ENDBRANCH  10  11
ENDBRANCH   1  10
TORSDOF 2
ENDMDL
MODEL 7
REMARK VINA RESULT:    -5.493      3.085      4.709
REMARK INTER + INTRA:          -6.242
REMARK INTER:                  -6.121
REMARK INTRA:                  -0.121
REMARK UNBOUND:                -0.106
REMARK  Name = 1550473
REMARK  2 active torsions:
REMARK  status: ('A' for Active; 'I' for Inactive)
REMARK    1  A    between atoms: N_1  and  C_4
REMARK    2  A    between atoms: C_4  and  C_5
REMARK                            x       y       z     vdW  Elec       q    Type
REMARK                         _______ _______ _______ _____ _____    ______ ____
ROOT
ATOM      1  N   UNL     1      -0.013  -6.397  -1.105  0.00  0.00    -0.354 N 
ATOM      2  N   UNL     1       0.488  -4.799  -2.705  0.00  0.00    -0.372 N 
ATOM      3  N   UNL     1      -0.146  -6.895  -3.392  0.00  0.00    -0.372 N 
ATOM      4  C   UNL     1       0.106  -6.043  -2.392  0.00  0.00    +0.166 C 
ATOM      5  H   UNL     1       0.222  -5.714  -0.394  0.00  0.00    +0.163 HD
ATOM      6  H   UNL     1       0.584  -4.502  -3.667  0.00  0.00    +0.159 HD
ATOM      7  H   UNL     1       0.678  -4.105  -1.993  0.00  0.00    +0.159 HD
ATOM      8  H   UNL     1      -0.432  -7.850  -3.222  0.00  0.00    +0.159 HD
ATOM      9  H   UNL     1      -0.045  -6.620  -4.361  0.00  0.00    +0.159 HD
ENDROOT
BRANCH   1  10
ATOM     10  C   UNL     1      -0.474  -7.711  -0.658  0.00  0.00    +0.151 C 
BRANCH  10  11
ATOM     11  C   UNL     1      -0.342  -7.794   0.838  0.00  0.00    -0.028 A 
ATOM     12  C   UNL     1       0.561  -6.966   1.520  0.00  0.00    +0.005 A 
ATOM     13  C   UNL     1      -1.121  -8.696   1.579  0.00  0.00    +0.005 A 
ATOM     14  C   UNL     1       0.663  -7.023   2.912  0.00  0.00    +0.000 A 
ATOM     15  C   UNL     1      -1.015  -8.750   2.968  0.00  0.00    +0.000 A 
ATOM     16  C   UNL     1      -0.125  -7.912   3.635  0.00  0.00    +0.000 A 
ENDBRANCH  10  11
ENDBRANCH   1  10
TORSDOF 2
ENDMDL
MODEL 8
REMARK VINA RESULT:    -5.219      3.032      4.945
REMARK INTER + INTRA:          -5.935
REMARK INTER:                  -5.802
REMARK INTRA:                  -0.134
REMARK UNBOUND:                -0.106
REMARK  Name = 1550473
REMARK  2 active torsions:
REMARK  status: ('A' for Active; 'I' for Inactive)
REMARK    1  A    between atoms: N_1  and  C_4
REMARK    2  A    between atoms: C_4  and  C_5
REMARK                            x       y       z     vdW  Elec       q    Type
REMARK                         _______ _______ _______ _____ _____    ______ ____
ROOT
ATOM      1  N   UNL     1       0.466  -5.901   0.654  0.00  0.00    -0.354 N 
ATOM      2  N   UNL     1       1.785  -4.009   0.446  0.00  0.00    -0.372 N 
ATOM      3  N   UNL     1       0.102  -4.021   2.005  0.00  0.00    -0.372 N 
ATOM      4  C   UNL     1       0.774  -4.655   1.038  0.00  0.00    +0.166 C 
ATOM      5  H   UNL     1       0.995  -6.315  -0.105  0.00  0.00    +0.163 HD
ATOM      6  H   UNL     1       2.043  -3.069   0.717  0.00  0.00    +0.159 HD
ATOM      7  H   UNL     1       2.342  -4.442  -0.281  0.00  0.00    +0.159 HD
ATOM      8  H   UNL     1      -0.676  -4.452   2.487  0.00  0.00    +0.159 HD
ATOM      9  H   UNL     1       0.337  -3.076   2.282  0.00  0.00    +0.159 HD
ENDROOT
BRANCH   1  10
ATOM     10  C   UNL     1      -0.582  -6.712   1.271  0.00  0.00    +0.151 C 
BRANCH  10  11
ATOM     11  C   UNL     1      -1.225  -7.569   0.216  0.00  0.00    -0.028 A 
ATOM     12  C   UNL     1      -0.753  -7.547  -1.104  0.00  0.00    +0.005 A 
ATOM     13  C   UNL     1      -2.304  -8.409   0.532  0.00  0.00    +0.005 A 
ATOM     14  C   UNL     1      -1.331  -8.365  -2.078  0.00  0.00    +0.000 A 
ATOM     15  C   UNL     1      -2.879  -9.223  -0.443  0.00  0.00    +0.000 A 
ATOM     16  C   UNL     1      -2.391  -9.203  -1.748  0.00  0.00    +0.000 A 
ENDBRANCH  10  11
ENDBRANCH   1  10
TORSDOF 2
ENDMDL
MODEL 9
REMARK VINA RESULT:    -5.043      3.773      5.046
REMARK INTER + INTRA:          -5.739
REMARK INTER:                  -5.607
REMARK INTRA:                  -0.131
REMARK UNBOUND:                -0.106
REMARK  Name = 1550473
REMARK  2 active torsions:
REMARK  status: ('A' for Active; 'I' for Inactive)
REMARK    1  A    between atoms: N_1  and  C_4
REMARK    2  A    between atoms: C_4  and  C_5
REMARK                            x       y       z     vdW  Elec       q    Type
REMARK                         _______ _______ _______ _____ _____    ______ ____
ROOT
ATOM      1  N   UNL     1      -1.189  -9.377  -2.936  0.00  0.00    -0.354 N 
ATOM      2  N   UNL     1      -1.196 -11.490  -3.883  0.00  0.00    -0.372 N 
ATOM      3  N   UNL     1       0.703 -10.755  -2.825  0.00  0.00    -0.372 N 
ATOM      4  C   UNL     1      -0.558 -10.527  -3.208  0.00  0.00    +0.166 C 
ATOM      5  H   UNL     1      -2.135  -9.254  -3.280  0.00  0.00    +0.163 HD
ATOM      6  H   UNL     1      -0.747 -12.370  -4.099  0.00  0.00    +0.159 HD
ATOM      7  H   UNL     1      -2.157 -11.383  -4.185  0.00  0.00    +0.159 HD
ATOM      8  H   UNL     1       1.242 -10.066  -2.318  0.00  0.00    +0.159 HD
ATOM      9  H   UNL     1       1.174 -11.624  -3.043  0.00  0.00    +0.159 HD
ENDROOT
BRANCH   1  10
ATOM     10  C   UNL     1      -0.603  -8.285  -2.161  0.00  0.00    +0.151 C 
BRANCH  10  11
ATOM     11  C   UNL     1      -1.337  -8.160  -0.855  0.00  0.00    -0.028 A 
ATOM     12  C   UNL     1      -2.505  -8.901  -0.621  0.00  0.00    +0.005 A 
ATOM     13  C   UNL     1      -0.868  -7.307   0.156  0.00  0.00    +0.005 A 
ATOM     14  C   UNL     1      -3.171  -8.808   0.604  0.00  0.00    +0.000 A 
ATOM     15  C   UNL     1      -1.536  -7.216   1.376  0.00  0.00    +0.000 A 
ATOM     16  C   UNL     1      -2.686  -7.969   1.601  0.00  0.00    +0.000 A 
ENDBRANCH  10  11
ENDBRANCH   1  10
TORSDOF 2
ENDMDL
