MODEL 1
REMARK VINA RESULT:    -6.190      0.000      0.000
REMARK INTER + INTRA:          -7.012
REMARK INTER:                  -6.914
REMARK INTRA:                  -0.098
REMARK UNBOUND:                -0.098
REMARK  Name = 1550473
REMARK  2 active torsions:
REMARK  status: ('A' for Active; 'I' for Inactive)
REMARK    1  A    between atoms: N_1  and  C_4
REMARK    2  A    between atoms: C_4  and  C_5
REMARK                            x       y       z     vdW  Elec       q    Type
REMARK                         _______ _______ _______ _____ _____    ______ ____
ROOT
ATOM      1  N   UNL     1     -15.851  -0.869 -10.461  0.00  0.00    -0.354 N 
ATOM      2  N   UNL     1     -17.887  -1.423 -11.416  0.00  0.00    -0.372 N 
ATOM      3  N   UNL     1     -16.966   0.627 -11.878  0.00  0.00    -0.372 N 
ATOM      4  C   UNL     1     -16.887  -0.549 -11.246  0.00  0.00    +0.166 C 
ATOM      5  H   UNL     1     -15.865  -1.764  -9.986  0.00  0.00    +0.163 HD
ATOM      6  H   UNL     1     -18.680  -1.211 -12.005  0.00  0.00    +0.159 HD
ATOM      7  H   UNL     1     -17.877  -2.336 -10.976  0.00  0.00    +0.159 HD
ATOM      8  H   UNL     1     -16.248   1.333 -11.787  0.00  0.00    +0.159 HD
ATOM      9  H   UNL     1     -17.758   0.863 -12.463  0.00  0.00    +0.159 HD
ENDROOT
BRANCH   1  10
ATOM     10  C   UNL     1     -14.686  -0.010 -10.253  0.00  0.00    +0.151 C 
BRANCH  10  11
ATOM     11  C   UNL     1     -13.790  -0.638  -9.221  0.00  0.00    -0.028 A 
ATOM     12  C   UNL     1     -12.506  -1.081  -9.569  0.00  0.00    +0.005 A 
ATOM     13  C   UNL     1     -14.218  -0.789  -7.893  0.00  0.00    +0.005 A 
ATOM     14  C   UNL     1     -11.662  -1.637  -8.605  0.00  0.00    +0.000 A 
ATOM     15  C   UNL     1     -13.373  -1.345  -6.934  0.00  0.00    +0.000 A 
ATOM     16  C   UNL     1     -12.094  -1.767  -7.289  0.00  0.00    +0.000 A 
ENDBRANCH  10  11
ENDBRANCH   1  10
TORSDOF 2
ENDMDL
MODEL 2
REMARK VINA RESULT:    -6.156      0.105      1.458
REMARK INTER + INTRA:          -6.974
REMARK INTER:                  -6.876
REMARK INTRA:                  -0.098
REMARK UNBOUND:                -0.098
REMARK  Name = 1550473
REMARK  2 active torsions:
REMARK  status: ('A' for Active; 'I' for Inactive)
REMARK    1  A    between atoms: N_1  and  C_4
REMARK    2  A    between atoms: C_4  and  C_5
REMARK                            x       y       z     vdW  Elec       q    Type
REMARK                         _______ _______ _______ _____ _____    ______ ____
ROOT
ATOM      1  N   UNL     1     -15.928  -0.820 -10.446  0.00  0.00    -0.354 N 
ATOM      2  N   UNL     1     -17.950  -1.441 -11.390  0.00  0.00    -0.372 N 
ATOM      3  N   UNL     1     -17.063   0.608 -11.917  0.00  0.00    -0.372 N 
ATOM      4  C   UNL     1     -16.967  -0.544 -11.246  0.00  0.00    +0.166 C 
ATOM      5  H   UNL     1     -15.929  -1.699  -9.941  0.00  0.00    +0.163 HD
ATOM      6  H   UNL     1     -18.745  -1.263 -11.989  0.00  0.00    +0.159 HD
ATOM      7  H   UNL     1     -17.926  -2.338 -10.920  0.00  0.00    +0.159 HD
ATOM      8  H   UNL     1     -16.358   1.329 -11.847  0.00  0.00    +0.159 HD
ATOM      9  H   UNL     1     -17.857   0.810 -12.513  0.00  0.00    +0.159 HD
ENDROOT
BRANCH   1  10
ATOM     10  C   UNL     1     -14.780   0.066 -10.262  0.00  0.00    +0.151 C 
BRANCH  10  11
ATOM     11  C   UNL     1     -13.847  -0.542  -9.253  0.00  0.00    -0.028 A 
ATOM     12  C   UNL     1     -14.242  -0.689  -7.915  0.00  0.00    +0.005 A 
ATOM     13  C   UNL     1     -12.567  -0.979  -9.629  0.00  0.00    +0.005 A 
ATOM     14  C   UNL     1     -13.387  -1.282  -6.983  0.00  0.00    +0.000 A 
ATOM     15  C   UNL     1     -11.716  -1.570  -8.695  0.00  0.00    +0.000 A 
ATOM     16  C   UNL     1     -12.127  -1.723  -7.373  0.00  0.00    +0.000 A 
ENDBRANCH  10  11
ENDBRANCH   1  10
TORSDOF 2
ENDMDL
MODEL 3
REMARK VINA RESULT:    -5.752      3.557      4.621
REMARK INTER + INTRA:          -6.522
REMARK INTER:                  -6.384
REMARK INTRA:                  -0.138
REMARK UNBOUND:                -0.098
REMARK  Name = 1550473
REMARK  2 active torsions:
REMARK  status: ('A' for Active; 'I' for Inactive)
REMARK    1  A    between atoms: N_1  and  C_4
REMARK    2  A    between atoms: C_4  and  C_5
REMARK                            x       y       z     vdW  Elec       q    Type
REMARK                         _______ _______ _______ _____ _____    ______ ____
ROOT
ATOM      1  N   UNL     1     -14.977  -1.521  -5.215  0.00  0.00    -0.354 N 
ATOM      2  N   UNL     1     -15.419  -3.239  -3.727  0.00  0.00    -0.372 N 
ATOM      3  N   UNL     1     -16.680  -3.074  -5.637  0.00  0.00    -0.372 N 
ATOM      4  C   UNL     1     -15.691  -2.601  -4.871  0.00  0.00    +0.166 C 
ATOM      5  H   UNL     1     -14.261  -1.194  -4.577  0.00  0.00    +0.163 HD
ATOM      6  H   UNL     1     -15.939  -4.059  -3.443  0.00  0.00    +0.159 HD
ATOM      7  H   UNL     1     -14.673  -2.938  -3.113  0.00  0.00    +0.159 HD
ATOM      8  H   UNL     1     -16.939  -2.634  -6.510  0.00  0.00    +0.159 HD
ATOM      9  H   UNL     1     -17.219  -3.886  -5.364  0.00  0.00    +0.159 HD
ENDROOT
BRANCH   1  10
ATOM     10  C   UNL     1     -15.157  -0.785  -6.466  0.00  0.00    +0.151 C 
BRANCH  10  11
ATOM     11  C   UNL     1     -13.951  -0.997  -7.338  0.00  0.00    -0.028 A 
ATOM     12  C   UNL     1     -12.782  -1.565  -6.812  0.00  0.00    +0.005 A 
ATOM     13  C   UNL     1     -13.973  -0.636  -8.694  0.00  0.00    +0.005 A 
ATOM     14  C   UNL     1     -11.672  -1.789  -7.629  0.00  0.00    +0.000 A 
ATOM     15  C   UNL     1     -12.862  -0.861  -9.507  0.00  0.00    +0.000 A 
ATOM     16  C   UNL     1     -11.713  -1.440  -8.975  0.00  0.00    +0.000 A 
ENDBRANCH  10  11
ENDBRANCH   1  10
TORSDOF 2
ENDMDL
MODEL 4
REMARK VINA RESULT:    -5.552      3.463      4.890
REMARK INTER + INTRA:          -6.300
REMARK INTER:                  -6.172
REMARK INTRA:                  -0.128
REMARK UNBOUND:                -0.098
REMARK  Name = 1550473
REMARK  2 active torsions:
REMARK  status: ('A' for Active; 'I' for Inactive)
REMARK    1  A    between atoms: N_1  and  C_4
REMARK    2  A    between atoms: C_4  and  C_5
REMARK                            x       y       z     vdW  Elec       q    Type
REMARK                         _______ _______ _______ _____ _____    ______ ____
ROOT
ATOM      1  N   UNL     1     -15.312  -1.500  -5.488  0.00  0.00    -0.354 N 
ATOM      2  N   UNL     1     -17.341  -1.058  -4.463  0.00  0.00    -0.372 N 
ATOM      3  N   UNL     1     -15.416  -0.906  -3.224  0.00  0.00    -0.372 N 
ATOM      4  C   UNL     1     -16.008  -1.157  -4.396  0.00  0.00    +0.166 C 
ATOM      5  H   UNL     1     -15.822  -1.707  -6.339  0.00  0.00    +0.163 HD
ATOM      6  H   UNL     1     -17.893  -0.798  -3.656  0.00  0.00    +0.159 HD
ATOM      7  H   UNL     1     -17.845  -1.220  -5.326  0.00  0.00    +0.159 HD
ATOM      8  H   UNL     1     -14.414  -0.970  -3.105  0.00  0.00    +0.159 HD
ATOM      9  H   UNL     1     -15.952  -0.656  -2.402  0.00  0.00    +0.159 HD
ENDROOT
BRANCH   1  10
ATOM     10  C   UNL     1     -13.853  -1.584  -5.535  0.00  0.00    +0.151 C 
BRANCH  10  11
ATOM     11  C   UNL     1     -13.395  -1.376  -6.952  0.00  0.00    -0.028 A 
ATOM     12  C   UNL     1     -14.232  -0.750  -7.887  0.00  0.00    +0.005 A 
ATOM     13  C   UNL     1     -12.121  -1.798  -7.365  0.00  0.00    +0.005 A 
ATOM     14  C   UNL     1     -13.795  -0.530  -9.196  0.00  0.00    +0.000 A 
ATOM     15  C   UNL     1     -11.689  -1.578  -8.673  0.00  0.00    +0.000 A 
ATOM     16  C   UNL     1     -12.525  -0.941  -9.587  0.00  0.00    +0.000 A 
ENDBRANCH  10  11
ENDBRANCH   1  10
TORSDOF 2
ENDMDL
MODEL 5
REMARK VINA RESULT:    -5.429      2.743      3.504
REMARK INTER + INTRA:          -6.162
REMARK INTER:                  -6.023
REMARK INTRA:                  -0.139
REMARK UNBOUND:                -0.098
REMARK  Name = 1550473
REMARK  2 active torsions:
REMARK  status: ('A' for Active; 'I' for Inactive)
REMARK    1  A    between atoms: N_1  and  C_4
REMARK    2  A    between atoms: C_4  and  C_5
REMARK                            x       y       z     vdW  Elec       q    Type
REMARK                         _______ _______ _______ _____ _____    ______ ____
ROOT
ATOM      1  N   UNL     1     -16.171  -1.609  -6.664  0.00  0.00    -0.354 N 
ATOM      2  N   UNL     1     -18.429  -1.351  -7.111  0.00  0.00    -0.372 N 
ATOM      3  N   UNL     1     -17.361   0.236  -5.844  0.00  0.00    -0.372 N 
ATOM      4  C   UNL     1     -17.305  -0.907  -6.535  0.00  0.00    +0.166 C 
ATOM      5  H   UNL     1     -16.201  -2.483  -7.175  0.00  0.00    +0.163 HD
ATOM      6  H   UNL     1     -19.299  -0.841  -7.034  0.00  0.00    +0.159 HD
ATOM      7  H   UNL     1     -18.446  -2.202  -7.661  0.00  0.00    +0.159 HD
ATOM      8  H   UNL     1     -16.549   0.622  -5.380  0.00  0.00    +0.159 HD
ATOM      9  H   UNL     1     -18.225   0.754  -5.745  0.00  0.00    +0.159 HD
ENDROOT
BRANCH   1  10
ATOM     10  C   UNL     1     -14.882  -1.186  -6.120  0.00  0.00    +0.151 C 
BRANCH  10  11
ATOM     11  C   UNL     1     -13.867  -1.156  -7.229  0.00  0.00    -0.028 A 
ATOM     12  C   UNL     1     -12.594  -1.715  -7.045  0.00  0.00    +0.005 A 
ATOM     13  C   UNL     1     -14.174  -0.576  -8.470  0.00  0.00    +0.005 A 
ATOM     14  C   UNL     1     -11.661  -1.714  -8.085  0.00  0.00    +0.000 A 
ATOM     15  C   UNL     1     -13.240  -0.576  -9.505  0.00  0.00    +0.000 A 
ATOM     16  C   UNL     1     -11.984  -1.148  -9.313  0.00  0.00    +0.000 A 
ENDBRANCH  10  11
ENDBRANCH   1  10
TORSDOF 2
ENDMDL
MODEL 6
REMARK VINA RESULT:    -5.397     21.712     23.012
REMARK INTER + INTRA:          -6.126
REMARK INTER:                  -6.012
REMARK INTRA:                  -0.114
REMARK UNBOUND:                -0.098
REMARK  Name = 1550473
REMARK  2 active torsions:
REMARK  status: ('A' for Active; 'I' for Inactive)
REMARK    1  A    between atoms: N_1  and  C_4
REMARK    2  A    between atoms: C_4  and  C_5
REMARK                            x       y       z     vdW  Elec       q    Type
REMARK                         _______ _______ _______ _____ _____    ______ ____
ROOT
ATOM      1  N   UNL     1      -5.067   9.524   7.610  0.00  0.00    -0.354 N 
ATOM      2  N   UNL     1      -5.275  10.164   5.394  0.00  0.00    -0.372 N 
ATOM      3  N   UNL     1      -3.508  10.964   6.618  0.00  0.00    -0.372 N 
ATOM      4  C   UNL     1      -4.613  10.215   6.556  0.00  0.00    +0.166 C 
ATOM      5  H   UNL     1      -5.928   8.999   7.507  0.00  0.00    +0.163 HD
ATOM      6  H   UNL     1      -4.955  10.672   4.581  0.00  0.00    +0.159 HD
ATOM      7  H   UNL     1      -6.110   9.602   5.280  0.00  0.00    +0.159 HD
ATOM      8  H   UNL     1      -2.965  11.049   7.468  0.00  0.00    +0.159 HD
ATOM      9  H   UNL     1      -3.177  11.489   5.818  0.00  0.00    +0.159 HD
ENDROOT
BRANCH   1  10
ATOM     10  C   UNL     1      -4.391   9.469   8.905  0.00  0.00    +0.151 C 
BRANCH  10  11
ATOM     11  C   UNL     1      -5.095   8.473   9.785  0.00  0.00    -0.028 A 
ATOM     12  C   UNL     1      -6.482   8.291   9.686  0.00  0.00    +0.005 A 
ATOM     13  C   UNL     1      -4.380   7.705  10.716  0.00  0.00    +0.005 A 
ATOM     14  C   UNL     1      -7.133   7.345  10.482  0.00  0.00    +0.000 A 
ATOM     15  C   UNL     1      -5.033   6.762  11.510  0.00  0.00    +0.000 A 
ATOM     16  C   UNL     1      -6.409   6.581  11.391  0.00  0.00    +0.000 A 
ENDBRANCH  10  11
ENDBRANCH   1  10
TORSDOF 2
ENDMDL
MODEL 7
REMARK VINA RESULT:    -5.372     23.626     25.071
REMARK INTER + INTRA:          -6.099
REMARK INTER:                  -5.935
REMARK INTRA:                  -0.163
REMARK UNBOUND:                -0.098
REMARK  Name = 1550473
REMARK  2 active torsions:
REMARK  status: ('A' for Active; 'I' for Inactive)
REMARK    1  A    between atoms: N_1  and  C_4
REMARK    2  A    between atoms: C_4  and  C_5
REMARK                            x       y       z     vdW  Elec       q    Type
REMARK                         _______ _______ _______ _____ _____    ______ ____
ROOT
ATOM      1  N   UNL     1       9.133  -7.034  -9.563  0.00  0.00    -0.354 N 
ATOM      2  N   UNL     1      10.236  -5.016  -9.288  0.00  0.00    -0.372 N 
ATOM      3  N   UNL     1      11.474  -6.929  -9.558  0.00  0.00    -0.372 N 
ATOM      4  C   UNL     1      10.276  -6.342  -9.471  0.00  0.00    +0.166 C 
ATOM      5  H   UNL     1       8.258  -6.535  -9.459  0.00  0.00    +0.163 HD
ATOM      6  H   UNL     1      11.082  -4.467  -9.219  0.00  0.00    +0.159 HD
ATOM      7  H   UNL     1       9.359  -4.513  -9.230  0.00  0.00    +0.159 HD
ATOM      8  H   UNL     1      11.573  -7.927  -9.691  0.00  0.00    +0.159 HD
ATOM      9  H   UNL     1      12.332  -6.397  -9.479  0.00  0.00    +0.159 HD
ENDROOT
BRANCH   1  10
ATOM     10  C   UNL     1       9.067  -8.473  -9.816  0.00  0.00    +0.151 C 
BRANCH  10  11
ATOM     11  C   UNL     1       8.561  -8.702 -11.214  0.00  0.00    -0.028 A 
ATOM     12  C   UNL     1       7.280  -8.269 -11.587  0.00  0.00    +0.005 A 
ATOM     13  C   UNL     1       9.359  -9.347 -12.171  0.00  0.00    +0.005 A 
ATOM     14  C   UNL     1       6.820  -8.456 -12.893  0.00  0.00    +0.000 A 
ATOM     15  C   UNL     1       8.896  -9.532 -13.473  0.00  0.00    +0.000 A 
ATOM     16  C   UNL     1       7.628  -9.084 -13.835  0.00  0.00    +0.000 A 
ENDBRANCH  10  11
ENDBRANCH   1  10
TORSDOF 2
ENDMDL
MODEL 8
REMARK VINA RESULT:    -5.130     31.876     32.970
REMARK INTER + INTRA:          -5.828
REMARK INTER:                  -5.660
REMARK INTRA:                  -0.168
REMARK UNBOUND:                -0.098
REMARK  Name = 1550473
REMARK  2 active torsions:
REMARK  status: ('A' for Active; 'I' for Inactive)
REMARK    1  A    between atoms: N_1  and  C_4
REMARK    2  A    between atoms: C_4  and  C_5
REMARK                            x       y       z     vdW  Elec       q    Type
REMARK                         _______ _______ _______ _____ _____    ______ ____
ROOT
ATOM      1  N   UNL     1       9.107  15.037   6.400  0.00  0.00    -0.354 N 
ATOM      2  N   UNL     1      10.908  13.641   5.989  0.00  0.00    -0.372 N 
ATOM      3  N   UNL     1       8.851  12.708   6.390  0.00  0.00    -0.372 N 
ATOM      4  C   UNL     1       9.608  13.802   6.263  0.00  0.00    +0.166 C 
ATOM      5  H   UNL     1       9.740  15.825   6.321  0.00  0.00    +0.163 HD
ATOM      6  H   UNL     1      11.314  12.721   5.877  0.00  0.00    +0.159 HD
ATOM      7  H   UNL     1      11.529  14.431   5.865  0.00  0.00    +0.159 HD
ATOM      8  H   UNL     1       7.864  12.761   6.603  0.00  0.00    +0.159 HD
ATOM      9  H   UNL     1       9.241  11.779   6.293  0.00  0.00    +0.159 HD
ENDROOT
BRANCH   1  10
ATOM     10  C   UNL     1       7.695  15.324   6.645  0.00  0.00    +0.151 C 
BRANCH  10  11
ATOM     11  C   UNL     1       7.471  15.458   8.126  0.00  0.00    -0.028 A 
ATOM     12  C   UNL     1       6.522  14.657   8.778  0.00  0.00    +0.005 A 
ATOM     13  C   UNL     1       8.208  16.381   8.884  0.00  0.00    +0.005 A 
ATOM     14  C   UNL     1       6.335  14.760  10.159  0.00  0.00    +0.000 A 
ATOM     15  C   UNL     1       8.018  16.481  10.262  0.00  0.00    +0.000 A 
ATOM     16  C   UNL     1       7.083  15.669  10.899  0.00  0.00    +0.000 A 
ENDBRANCH  10  11
ENDBRANCH   1  10
TORSDOF 2
ENDMDL
MODEL 9
REMARK VINA RESULT:    -5.100     15.329     16.080
REMARK INTER + INTRA:          -5.795
REMARK INTER:                  -5.688
REMARK INTRA:                  -0.106
REMARK UNBOUND:                -0.098
REMARK  Name = 1550473
REMARK  2 active torsions:
REMARK  status: ('A' for Active; 'I' for Inactive)
REMARK    1  A    between atoms: N_1  and  C_4
REMARK    2  A    between atoms: C_4  and  C_5
REMARK                            x       y       z     vdW  Elec       q    Type
REMARK                         _______ _______ _______ _____ _____    ______ ____
ROOT
ATOM      1  N   UNL     1     -17.760 -14.277  -5.739  0.00  0.00    -0.354 N 
ATOM      2  N   UNL     1     -17.453 -12.934  -7.601  0.00  0.00    -0.372 N 
ATOM      3  N   UNL     1     -17.432 -11.967  -5.520  0.00  0.00    -0.372 N 
ATOM      4  C   UNL     1     -17.551 -13.066  -6.272  0.00  0.00    +0.166 C 
ATOM      5  H   UNL     1     -17.872 -15.066  -6.365  0.00  0.00    +0.163 HD
ATOM      6  H   UNL     1     -17.292 -12.034  -8.032  0.00  0.00    +0.159 HD
ATOM      7  H   UNL     1     -17.519 -13.731  -8.222  0.00  0.00    +0.159 HD
ATOM      8  H   UNL     1     -17.502 -11.998  -4.512  0.00  0.00    +0.159 HD
ATOM      9  H   UNL     1     -17.282 -11.055  -5.933  0.00  0.00    +0.159 HD
ENDROOT
BRANCH   1  10
ATOM     10  C   UNL     1     -17.828 -14.537  -4.302  0.00  0.00    +0.151 C 
BRANCH  10  11
ATOM     11  C   UNL     1     -17.824 -16.023  -4.071  0.00  0.00    -0.028 A 
ATOM     12  C   UNL     1     -17.007 -16.587  -3.080  0.00  0.00    +0.005 A 
ATOM     13  C   UNL     1     -18.640 -16.872  -4.835  0.00  0.00    +0.005 A 
ATOM     14  C   UNL     1     -17.026 -17.964  -2.845  0.00  0.00    +0.000 A 
ATOM     15  C   UNL     1     -18.654 -18.246  -4.598  0.00  0.00    +0.000 A 
ATOM     16  C   UNL     1     -17.849 -18.791  -3.601  0.00  0.00    +0.000 A 
ENDBRANCH  10  11
ENDBRANCH   1  10
TORSDOF 2
ENDMDL
