MODEL 1
REMARK VINA RESULT:    -4.807      0.000      0.000
REMARK INTER + INTRA:          -5.528
REMARK INTER:                  -5.369
REMARK INTRA:                  -0.159
REMARK UNBOUND:                -0.159
REMARK  Name = 1550473
REMARK  2 active torsions:
REMARK  status: ('A' for Active; 'I' for Inactive)
REMARK    1  A    between atoms: N_1  and  C_4
REMARK    2  A    between atoms: C_4  and  C_5
REMARK                            x       y       z     vdW  Elec       q    Type
REMARK                         _______ _______ _______ _____ _____    ______ ____
ROOT
ATOM      1  N   UNL     1      11.160   7.750   9.998  0.00  0.00    -0.354 N 
ATOM      2  N   UNL     1      10.712   8.779  12.023  0.00  0.00    -0.372 N 
ATOM      3  N   UNL     1      10.431   6.509  11.847  0.00  0.00    -0.372 N 
ATOM      4  C   UNL     1      10.770   7.670  11.277  0.00  0.00    +0.166 C 
ATOM      5  H   UNL     1      11.375   8.664   9.616  0.00  0.00    +0.163 HD
ATOM      6  H   UNL     1      10.424   8.749  12.992  0.00  0.00    +0.159 HD
ATOM      7  H   UNL     1      10.971   9.685  11.652  0.00  0.00    +0.159 HD
ATOM      8  H   UNL     1      10.448   5.636  11.336  0.00  0.00    +0.159 HD
ATOM      9  H   UNL     1      10.129   6.460  12.812  0.00  0.00    +0.159 HD
ENDROOT
BRANCH   1  10
ATOM     10  C   UNL     1      11.309   6.594   9.114  0.00  0.00    +0.151 C 
BRANCH  10  11
ATOM     11  C   UNL     1      12.755   6.455   8.728  0.00  0.00    -0.028 A 
ATOM     12  C   UNL     1      13.172   6.730   7.417  0.00  0.00    +0.005 A 
ATOM     13  C   UNL     1      13.715   6.053   9.669  0.00  0.00    +0.005 A 
ATOM     14  C   UNL     1      14.520   6.629   7.065  0.00  0.00    +0.000 A 
ATOM     15  C   UNL     1      15.060   5.953   9.313  0.00  0.00    +0.000 A 
ATOM     16  C   UNL     1      15.462   6.243   8.012  0.00  0.00    +0.000 A 
ENDBRANCH  10  11
ENDBRANCH   1  10
TORSDOF 2
ENDMDL
MODEL 2
REMARK VINA RESULT:    -4.731      1.571      2.477
REMARK INTER + INTRA:          -5.443
REMARK INTER:                  -5.341
REMARK INTRA:                  -0.102
REMARK UNBOUND:                -0.159
REMARK  Name = 1550473
REMARK  2 active torsions:
REMARK  status: ('A' for Active; 'I' for Inactive)
REMARK    1  A    between atoms: N_1  and  C_4
REMARK    2  A    between atoms: C_4  and  C_5
REMARK                            x       y       z     vdW  Elec       q    Type
REMARK                         _______ _______ _______ _____ _____    ______ ____
ROOT
ATOM      1  N   UNL     1      12.706   6.732   8.990  0.00  0.00    -0.354 N 
ATOM      2  N   UNL     1      10.703   6.267  10.055  0.00  0.00    -0.372 N 
ATOM      3  N   UNL     1      11.075   8.391   9.271  0.00  0.00    -0.372 N 
ATOM      4  C   UNL     1      11.508   7.136   9.432  0.00  0.00    +0.166 C 
ATOM      5  H   UNL     1      12.988   5.775   9.169  0.00  0.00    +0.163 HD
ATOM      6  H   UNL     1       9.792   6.541  10.396  0.00  0.00    +0.159 HD
ATOM      7  H   UNL     1      10.968   5.299  10.192  0.00  0.00    +0.159 HD
ATOM      8  H   UNL     1      11.637   9.097   8.814  0.00  0.00    +0.159 HD
ATOM      9  H   UNL     1      10.171   8.688   9.616  0.00  0.00    +0.159 HD
ENDROOT
BRANCH   1  10
ATOM     10  C   UNL     1      13.636   7.585   8.252  0.00  0.00    +0.151 C 
BRANCH  10  11
ATOM     11  C   UNL     1      14.592   6.718   7.481  0.00  0.00    -0.028 A 
ATOM     12  C   UNL     1      14.767   6.902   6.101  0.00  0.00    +0.005 A 
ATOM     13  C   UNL     1      15.331   5.713   8.125  0.00  0.00    +0.005 A 
ATOM     14  C   UNL     1      15.677   6.117   5.390  0.00  0.00    +0.000 A 
ATOM     15  C   UNL     1      16.238   4.930   7.411  0.00  0.00    +0.000 A 
ATOM     16  C   UNL     1      16.413   5.134   6.044  0.00  0.00    +0.000 A 
ENDBRANCH  10  11
ENDBRANCH   1  10
TORSDOF 2
ENDMDL
MODEL 3
REMARK VINA RESULT:    -4.676     37.490     38.428
REMARK INTER + INTRA:          -5.382
REMARK INTER:                  -5.265
REMARK INTRA:                  -0.117
REMARK UNBOUND:                -0.159
REMARK  Name = 1550473
REMARK  2 active torsions:
REMARK  status: ('A' for Active; 'I' for Inactive)
REMARK    1  A    between atoms: N_1  and  C_4
REMARK    2  A    between atoms: C_4  and  C_5
REMARK                            x       y       z     vdW  Elec       q    Type
REMARK                         _______ _______ _______ _____ _____    ______ ____
ROOT
ATOM      1  N   UNL     1     -13.358 -10.340 -11.288  0.00  0.00    -0.354 N 
ATOM      2  N   UNL     1     -13.221  -8.966  -9.428  0.00  0.00    -0.372 N 
ATOM      3  N   UNL     1     -15.169 -10.114  -9.818  0.00  0.00    -0.372 N 
ATOM      4  C   UNL     1     -13.920  -9.817 -10.190  0.00  0.00    +0.166 C 
ATOM      5  H   UNL     1     -12.418 -10.051 -11.532  0.00  0.00    +0.163 HD
ATOM      6  H   UNL     1     -13.617  -8.558  -8.592  0.00  0.00    +0.159 HD
ATOM      7  H   UNL     1     -12.265  -8.715  -9.649  0.00  0.00    +0.159 HD
ATOM      8  H   UNL     1     -15.752 -10.745 -10.353  0.00  0.00    +0.159 HD
ATOM      9  H   UNL     1     -15.588  -9.707  -8.991  0.00  0.00    +0.159 HD
ENDROOT
BRANCH   1  10
ATOM     10  C   UNL     1     -14.014 -11.317 -12.155  0.00  0.00    +0.151 C 
BRANCH  10  11
ATOM     11  C   UNL     1     -13.137 -11.582 -13.347  0.00  0.00    -0.028 A 
ATOM     12  C   UNL     1     -11.744 -11.447 -13.251  0.00  0.00    +0.005 A 
ATOM     13  C   UNL     1     -13.692 -11.975 -14.575  0.00  0.00    +0.005 A 
ATOM     14  C   UNL     1     -10.927 -11.723 -14.350  0.00  0.00    +0.000 A 
ATOM     15  C   UNL     1     -12.872 -12.248 -15.670  0.00  0.00    +0.000 A 
ATOM     16  C   UNL     1     -11.490 -12.124 -15.556  0.00  0.00    +0.000 A 
ENDBRANCH  10  11
ENDBRANCH   1  10
TORSDOF 2
ENDMDL
MODEL 4
REMARK VINA RESULT:    -4.663     24.173     25.283
REMARK INTER + INTRA:          -5.366
REMARK INTER:                  -5.237
REMARK INTRA:                  -0.129
REMARK UNBOUND:                -0.159
REMARK  Name = 1550473
REMARK  2 active torsions:
REMARK  status: ('A' for Active; 'I' for Inactive)
REMARK    1  A    between atoms: N_1  and  C_4
REMARK    2  A    between atoms: C_4  and  C_5
REMARK                            x       y       z     vdW  Elec       q    Type
REMARK                         _______ _______ _______ _____ _____    ______ ____
ROOT
ATOM      1  N   UNL     1     -12.655   3.910   7.505  0.00  0.00    -0.354 N 
ATOM      2  N   UNL     1     -12.575   6.225   7.464  0.00  0.00    -0.372 N 
ATOM      3  N   UNL     1     -13.285   5.106   5.591  0.00  0.00    -0.372 N 
ATOM      4  C   UNL     1     -12.840   5.065   6.851  0.00  0.00    +0.166 C 
ATOM      5  H   UNL     1     -12.286   3.945   8.448  0.00  0.00    +0.163 HD
ATOM      6  H   UNL     1     -12.708   7.112   6.997  0.00  0.00    +0.159 HD
ATOM      7  H   UNL     1     -12.250   6.258   8.423  0.00  0.00    +0.159 HD
ATOM      8  H   UNL     1     -13.498   4.266   5.070  0.00  0.00    +0.159 HD
ATOM      9  H   UNL     1     -13.414   5.983   5.102  0.00  0.00    +0.159 HD
ENDROOT
BRANCH   1  10
ATOM     10  C   UNL     1     -12.963   2.595   6.946  0.00  0.00    +0.151 C 
BRANCH  10  11
ATOM     11  C   UNL     1     -12.093   1.563   7.609  0.00  0.00    -0.028 A 
ATOM     12  C   UNL     1     -12.280   0.198   7.345  0.00  0.00    +0.005 A 
ATOM     13  C   UNL     1     -11.076   1.944   8.497  0.00  0.00    +0.005 A 
ATOM     14  C   UNL     1     -11.453  -0.759   7.937  0.00  0.00    +0.000 A 
ATOM     15  C   UNL     1     -10.252   0.985   9.087  0.00  0.00    +0.000 A 
ATOM     16  C   UNL     1     -10.440  -0.366   8.805  0.00  0.00    +0.000 A 
ENDBRANCH  10  11
ENDBRANCH   1  10
TORSDOF 2
ENDMDL
MODEL 5
REMARK VINA RESULT:    -4.560     15.351     16.719
REMARK INTER + INTRA:          -5.252
REMARK INTER:                  -5.139
REMARK INTRA:                  -0.113
REMARK UNBOUND:                -0.159
REMARK  Name = 1550473
REMARK  2 active torsions:
REMARK  status: ('A' for Active; 'I' for Inactive)
REMARK    1  A    between atoms: N_1  and  C_4
REMARK    2  A    between atoms: C_4  and  C_5
REMARK                            x       y       z     vdW  Elec       q    Type
REMARK                         _______ _______ _______ _____ _____    ______ ____
ROOT
ATOM      1  N   UNL     1       1.556  -4.682  16.791  0.00  0.00    -0.354 N 
ATOM      2  N   UNL     1      -0.474  -4.818  15.684  0.00  0.00    -0.372 N 
ATOM      3  N   UNL     1       1.003  -6.565  15.509  0.00  0.00    -0.372 N 
ATOM      4  C   UNL     1       0.709  -5.356  16.001  0.00  0.00    +0.166 C 
ATOM      5  H   UNL     1       1.287  -3.758  17.107  0.00  0.00    +0.163 HD
ATOM      6  H   UNL     1      -1.135  -5.304  15.093  0.00  0.00    +0.159 HD
ATOM      7  H   UNL     1      -0.760  -3.913  16.039  0.00  0.00    +0.159 HD
ATOM      8  H   UNL     1       1.882  -7.024  15.705  0.00  0.00    +0.159 HD
ATOM      9  H   UNL     1       0.360  -7.062  14.906  0.00  0.00    +0.159 HD
ENDROOT
BRANCH   1  10
ATOM     10  C   UNL     1       2.846  -5.203  17.239  0.00  0.00    +0.151 C 
BRANCH  10  11
ATOM     11  C   UNL     1       3.759  -4.050  17.553  0.00  0.00    -0.028 A 
ATOM     12  C   UNL     1       5.118  -4.104  17.212  0.00  0.00    +0.005 A 
ATOM     13  C   UNL     1       3.269  -2.897  18.186  0.00  0.00    +0.005 A 
ATOM     14  C   UNL     1       5.960  -3.021  17.476  0.00  0.00    +0.000 A 
ATOM     15  C   UNL     1       4.113  -1.818  18.449  0.00  0.00    +0.000 A 
ATOM     16  C   UNL     1       5.458  -1.880  18.092  0.00  0.00    +0.000 A 
ENDBRANCH  10  11
ENDBRANCH   1  10
TORSDOF 2
ENDMDL
MODEL 6
REMARK VINA RESULT:    -4.453     19.024     20.128
REMARK INTER + INTRA:          -5.132
REMARK INTER:                  -4.996
REMARK INTRA:                  -0.136
REMARK UNBOUND:                -0.159
REMARK  Name = 1550473
REMARK  2 active torsions:
REMARK  status: ('A' for Active; 'I' for Inactive)
REMARK    1  A    between atoms: N_1  and  C_4
REMARK    2  A    between atoms: C_4  and  C_5
REMARK                            x       y       z     vdW  Elec       q    Type
REMARK                         _______ _______ _______ _____ _____    ______ ____
ROOT
ATOM      1  N   UNL     1      -4.953  14.678   5.071  0.00  0.00    -0.354 N 
ATOM      2  N   UNL     1      -3.525  15.116   6.841  0.00  0.00    -0.372 N 
ATOM      3  N   UNL     1      -5.084  13.446   7.060  0.00  0.00    -0.372 N 
ATOM      4  C   UNL     1      -4.532  14.409   6.314  0.00  0.00    +0.166 C 
ATOM      5  H   UNL     1      -4.513  15.441   4.568  0.00  0.00    +0.163 HD
ATOM      6  H   UNL     1      -3.184  14.933   7.775  0.00  0.00    +0.159 HD
ATOM      7  H   UNL     1      -3.057  15.847   6.319  0.00  0.00    +0.159 HD
ATOM      8  H   UNL     1      -5.851  12.880   6.722  0.00  0.00    +0.159 HD
ATOM      9  H   UNL     1      -4.764  13.256   8.001  0.00  0.00    +0.159 HD
ENDROOT
BRANCH   1  10
ATOM     10  C   UNL     1      -6.006  13.932   4.384  0.00  0.00    +0.151 C 
BRANCH  10  11
ATOM     11  C   UNL     1      -5.623  13.759   2.940  0.00  0.00    -0.028 A 
ATOM     12  C   UNL     1      -6.558  13.285   2.008  0.00  0.00    +0.005 A 
ATOM     13  C   UNL     1      -4.329  14.072   2.497  0.00  0.00    +0.005 A 
ATOM     14  C   UNL     1      -6.212  13.153   0.661  0.00  0.00    +0.000 A 
ATOM     15  C   UNL     1      -3.988  13.938   1.151  0.00  0.00    +0.000 A 
ATOM     16  C   UNL     1      -4.930  13.481   0.233  0.00  0.00    +0.000 A 
ENDBRANCH  10  11
ENDBRANCH   1  10
TORSDOF 2
ENDMDL
MODEL 7
REMARK VINA RESULT:    -4.443     11.529     12.404
REMARK INTER + INTRA:          -5.121
REMARK INTER:                  -5.019
REMARK INTRA:                  -0.102
REMARK UNBOUND:                -0.159
REMARK  Name = 1550473
REMARK  2 active torsions:
REMARK  status: ('A' for Active; 'I' for Inactive)
REMARK    1  A    between atoms: N_1  and  C_4
REMARK    2  A    between atoms: C_4  and  C_5
REMARK                            x       y       z     vdW  Elec       q    Type
REMARK                         _______ _______ _______ _____ _____    ______ ____
ROOT
ATOM      1  N   UNL     1       5.446  16.308   8.825  0.00  0.00    -0.354 N 
ATOM      2  N   UNL     1       5.062  15.922  11.076  0.00  0.00    -0.372 N 
ATOM      3  N   UNL     1       7.145  16.618  10.409  0.00  0.00    -0.372 N 
ATOM      4  C   UNL     1       5.890  16.285  10.089  0.00  0.00    +0.166 C 
ATOM      5  H   UNL     1       4.492  16.016   8.644  0.00  0.00    +0.163 HD
ATOM      6  H   UNL     1       5.368  15.898  12.040  0.00  0.00    +0.159 HD
ATOM      7  H   UNL     1       4.097  15.674  10.898  0.00  0.00    +0.159 HD
ATOM      8  H   UNL     1       7.820  16.896   9.710  0.00  0.00    +0.159 HD
ATOM      9  H   UNL     1       7.473  16.589  11.367  0.00  0.00    +0.159 HD
ENDROOT
BRANCH   1  10
ATOM     10  C   UNL     1       6.250  16.741   7.683  0.00  0.00    +0.151 C 
BRANCH  10  11
ATOM     11  C   UNL     1       5.547  16.353   6.412  0.00  0.00    -0.028 A 
ATOM     12  C   UNL     1       4.212  16.724   6.195  0.00  0.00    +0.005 A 
ATOM     13  C   UNL     1       6.212  15.620   5.417  0.00  0.00    +0.005 A 
ATOM     14  C   UNL     1       3.568  16.390   5.001  0.00  0.00    +0.000 A 
ATOM     15  C   UNL     1       5.565  15.288   4.227  0.00  0.00    +0.000 A 
ATOM     16  C   UNL     1       4.244  15.675   4.019  0.00  0.00    +0.000 A 
ENDBRANCH  10  11
ENDBRANCH   1  10
TORSDOF 2
ENDMDL
MODEL 8
REMARK VINA RESULT:    -4.405      3.815      5.465
REMARK INTER + INTRA:          -5.079
REMARK INTER:                  -4.922
REMARK INTRA:                  -0.157
REMARK UNBOUND:                -0.159
REMARK  Name = 1550473
REMARK  2 active torsions:
REMARK  status: ('A' for Active; 'I' for Inactive)
REMARK    1  A    between atoms: N_1  and  C_4
REMARK    2  A    between atoms: C_4  and  C_5
REMARK                            x       y       z     vdW  Elec       q    Type
REMARK                         _______ _______ _______ _____ _____    ______ ____
ROOT
ATOM      1  N   UNL     1      14.683   7.289   5.881  0.00  0.00    -0.354 N 
ATOM      2  N   UNL     1      15.206   6.235   3.887  0.00  0.00    -0.372 N 
ATOM      3  N   UNL     1      16.235   5.535   5.815  0.00  0.00    -0.372 N 
ATOM      4  C   UNL     1      15.373   6.359   5.209  0.00  0.00    +0.166 C 
ATOM      5  H   UNL     1      14.067   7.903   5.359  0.00  0.00    +0.163 HD
ATOM      6  H   UNL     1      15.711   5.540   3.353  0.00  0.00    +0.159 HD
ATOM      7  H   UNL     1      14.556   6.819   3.375  0.00  0.00    +0.159 HD
ATOM      8  H   UNL     1      16.410   5.581   6.810  0.00  0.00    +0.159 HD
ATOM      9  H   UNL     1      16.758   4.840   5.296  0.00  0.00    +0.159 HD
ENDROOT
BRANCH   1  10
ATOM     10  C   UNL     1      14.751   7.471   7.330  0.00  0.00    +0.151 C 
BRANCH  10  11
ATOM     11  C   UNL     1      13.399   7.188   7.925  0.00  0.00    -0.028 A 
ATOM     12  C   UNL     1      12.631   8.226   8.473  0.00  0.00    +0.005 A 
ATOM     13  C   UNL     1      12.878   5.885   7.939  0.00  0.00    +0.005 A 
ATOM     14  C   UNL     1      11.363   7.969   8.999  0.00  0.00    +0.000 A 
ATOM     15  C   UNL     1      11.611   5.633   8.465  0.00  0.00    +0.000 A 
ATOM     16  C   UNL     1      10.853   6.676   8.993  0.00  0.00    +0.000 A 
ENDBRANCH  10  11
ENDBRANCH   1  10
TORSDOF 2
ENDMDL
MODEL 9
REMARK VINA RESULT:    -4.345     27.095     28.195
REMARK INTER + INTRA:          -5.012
REMARK INTER:                  -4.835
REMARK INTRA:                  -0.176
REMARK UNBOUND:                -0.159
REMARK  Name = 1550473
REMARK  2 active torsions:
REMARK  status: ('A' for Active; 'I' for Inactive)
REMARK    1  A    between atoms: N_1  and  C_4
REMARK    2  A    between atoms: C_4  and  C_5
REMARK                            x       y       z     vdW  Elec       q    Type
REMARK                         _______ _______ _______ _____ _____    ______ ____
ROOT
ATOM      1  N   UNL     1       3.421  -7.998 -12.301  0.00  0.00    -0.354 N 
ATOM      2  N   UNL     1       5.403  -7.176 -11.429  0.00  0.00    -0.372 N 
ATOM      3  N   UNL     1       4.476  -9.056 -10.495  0.00  0.00    -0.372 N 
ATOM      4  C   UNL     1       4.420  -8.085 -11.412  0.00  0.00    +0.166 C 
ATOM      5  H   UNL     1       3.421  -7.220 -12.950  0.00  0.00    +0.163 HD
ATOM      6  H   UNL     1       6.172  -7.218 -10.773  0.00  0.00    +0.159 HD
ATOM      7  H   UNL     1       5.424  -6.426 -12.109  0.00  0.00    +0.159 HD
ATOM      8  H   UNL     1       3.762  -9.769 -10.426  0.00  0.00    +0.159 HD
ATOM      9  H   UNL     1       5.231  -9.108  -9.823  0.00  0.00    +0.159 HD
ENDROOT
BRANCH   1  10
ATOM     10  C   UNL     1       2.331  -8.967 -12.402  0.00  0.00    +0.151 C 
BRANCH  10  11
ATOM     11  C   UNL     1       1.099  -8.389 -11.763  0.00  0.00    -0.028 A 
ATOM     12  C   UNL     1       0.829  -8.614 -10.405  0.00  0.00    +0.005 A 
ATOM     13  C   UNL     1       0.201  -7.609 -12.507  0.00  0.00    +0.005 A 
ATOM     14  C   UNL     1      -0.300  -8.052  -9.803  0.00  0.00    +0.000 A 
ATOM     15  C   UNL     1      -0.925  -7.050 -11.903  0.00  0.00    +0.000 A 
ATOM     16  C   UNL     1      -1.174  -7.270 -10.551  0.00  0.00    +0.000 A 
ENDBRANCH  10  11
ENDBRANCH   1  10
TORSDOF 2
ENDMDL
