MODEL 1
REMARK VINA RESULT:    -7.060      0.000      0.000
REMARK INTER + INTRA:          -8.044
REMARK INTER:                  -7.886
REMARK INTRA:                  -0.158
REMARK UNBOUND:                -0.158
REMARK  Name = 1550473
REMARK  2 active torsions:
REMARK  status: ('A' for Active; 'I' for Inactive)
REMARK    1  A    between atoms: N_1  and  C_4
REMARK    2  A    between atoms: C_4  and  C_5
REMARK                            x       y       z     vdW  Elec       q    Type
REMARK                         _______ _______ _______ _____ _____    ______ ____
ROOT
ATOM      1  N   UNL     1       0.450  -1.928 -11.220  0.00  0.00    -0.354 N 
ATOM      2  N   UNL     1      -1.087  -2.226 -12.927  0.00  0.00    -0.372 N 
ATOM      3  N   UNL     1      -0.925  -3.825 -11.289  0.00  0.00    -0.372 N 
ATOM      4  C   UNL     1      -0.511  -2.660 -11.800  0.00  0.00    +0.166 C 
ATOM      5  H   UNL     1       0.739  -1.069 -11.674  0.00  0.00    +0.163 HD
ATOM      6  H   UNL     1      -1.817  -2.756 -13.385  0.00  0.00    +0.159 HD
ATOM      7  H   UNL     1      -0.828  -1.345 -13.353  0.00  0.00    +0.159 HD
ATOM      8  H   UNL     1      -0.526  -4.211 -10.444  0.00  0.00    +0.159 HD
ATOM      9  H   UNL     1      -1.646  -4.375 -11.739  0.00  0.00    +0.159 HD
ENDROOT
BRANCH   1  10
ATOM     10  C   UNL     1       1.103  -2.285  -9.962  0.00  0.00    +0.151 C 
BRANCH  10  11
ATOM     11  C   UNL     1       0.789  -1.237  -8.931  0.00  0.00    -0.028 A 
ATOM     12  C   UNL     1       1.668  -0.166  -8.712  0.00  0.00    +0.005 A 
ATOM     13  C   UNL     1      -0.391  -1.305  -8.173  0.00  0.00    +0.005 A 
ATOM     14  C   UNL     1       1.362   0.824  -7.775  0.00  0.00    +0.000 A 
ATOM     15  C   UNL     1      -0.693  -0.315  -7.238  0.00  0.00    +0.000 A 
ATOM     16  C   UNL     1       0.183   0.750  -7.041  0.00  0.00    +0.000 A 
ENDBRANCH  10  11
ENDBRANCH   1  10
TORSDOF 2
ENDMDL
MODEL 2
REMARK VINA RESULT:    -6.758      1.627      1.869
REMARK INTER + INTRA:          -7.706
REMARK INTER:                  -7.577
REMARK INTRA:                  -0.129
REMARK UNBOUND:                -0.158
REMARK  Name = 1550473
REMARK  2 active torsions:
REMARK  status: ('A' for Active; 'I' for Inactive)
REMARK    1  A    between atoms: N_1  and  C_4
REMARK    2  A    between atoms: C_4  and  C_5
REMARK                            x       y       z     vdW  Elec       q    Type
REMARK                         _______ _______ _______ _____ _____    ______ ____
ROOT
ATOM      1  N   UNL     1       0.849  -3.281 -10.426  0.00  0.00    -0.354 N 
ATOM      2  N   UNL     1       1.913  -4.630 -11.979  0.00  0.00    -0.372 N 
ATOM      3  N   UNL     1       0.699  -5.616 -10.300  0.00  0.00    -0.372 N 
ATOM      4  C   UNL     1       1.146  -4.502 -10.889  0.00  0.00    +0.166 C 
ATOM      5  H   UNL     1       1.243  -2.477 -10.901  0.00  0.00    +0.163 HD
ATOM      6  H   UNL     1       2.151  -5.539 -12.354  0.00  0.00    +0.159 HD
ATOM      7  H   UNL     1       2.268  -3.824 -12.478  0.00  0.00    +0.159 HD
ATOM      8  H   UNL     1       0.121  -5.588  -9.471  0.00  0.00    +0.159 HD
ATOM      9  H   UNL     1       0.936  -6.535 -10.653  0.00  0.00    +0.159 HD
ENDROOT
BRANCH   1  10
ATOM     10  C   UNL     1      -0.023  -3.031  -9.279  0.00  0.00    +0.151 C 
BRANCH  10  11
ATOM     11  C   UNL     1       0.306  -1.684  -8.697  0.00  0.00    -0.028 A 
ATOM     12  C   UNL     1       1.488  -1.021  -9.059  0.00  0.00    +0.005 A 
ATOM     13  C   UNL     1      -0.563  -1.063  -7.786  0.00  0.00    +0.005 A 
ATOM     14  C   UNL     1       1.779   0.243  -8.541  0.00  0.00    +0.000 A 
ATOM     15  C   UNL     1      -0.268   0.199  -7.271  0.00  0.00    +0.000 A 
ATOM     16  C   UNL     1       0.902   0.853  -7.650  0.00  0.00    +0.000 A 
ENDBRANCH  10  11
ENDBRANCH   1  10
TORSDOF 2
ENDMDL
MODEL 3
REMARK VINA RESULT:    -6.632      2.224      5.295
REMARK INTER + INTRA:          -7.566
REMARK INTER:                  -7.417
REMARK INTRA:                  -0.149
REMARK UNBOUND:                -0.158
REMARK  Name = 1550473
REMARK  2 active torsions:
REMARK  status: ('A' for Active; 'I' for Inactive)
REMARK    1  A    between atoms: N_1  and  C_4
REMARK    2  A    between atoms: C_4  and  C_5
REMARK                            x       y       z     vdW  Elec       q    Type
REMARK                         _______ _______ _______ _____ _____    ______ ____
ROOT
ATOM      1  N   UNL     1       0.711  -1.966 -10.966  0.00  0.00    -0.354 N 
ATOM      2  N   UNL     1       1.510  -0.114  -9.826  0.00  0.00    -0.372 N 
ATOM      3  N   UNL     1       0.076  -1.546  -8.749  0.00  0.00    -0.372 N 
ATOM      4  C   UNL     1       0.759  -1.222  -9.852  0.00  0.00    +0.166 C 
ATOM      5  H   UNL     1       1.228  -1.649 -11.778  0.00  0.00    +0.163 HD
ATOM      6  H   UNL     1       1.568   0.465  -8.999  0.00  0.00    +0.159 HD
ATOM      7  H   UNL     1       2.061   0.175 -10.625  0.00  0.00    +0.159 HD
ATOM      8  H   UNL     1      -0.514  -2.366  -8.706  0.00  0.00    +0.159 HD
ATOM      9  H   UNL     1       0.112  -0.973  -7.916  0.00  0.00    +0.159 HD
ENDROOT
BRANCH   1  10
ATOM     10  C   UNL     1      -0.034  -3.218 -11.081  0.00  0.00    +0.151 C 
BRANCH  10  11
ATOM     11  C   UNL     1      -1.048  -3.087 -12.183  0.00  0.00    -0.028 A 
ATOM     12  C   UNL     1      -0.967  -2.032 -13.104  0.00  0.00    +0.005 A 
ATOM     13  C   UNL     1      -2.091  -4.017 -12.315  0.00  0.00    +0.005 A 
ATOM     14  C   UNL     1      -1.892  -1.927 -14.145  0.00  0.00    +0.000 A 
ATOM     15  C   UNL     1      -3.013  -3.908 -13.356  0.00  0.00    +0.000 A 
ATOM     16  C   UNL     1      -2.912  -2.864 -14.272  0.00  0.00    +0.000 A 
ENDBRANCH  10  11
ENDBRANCH   1  10
TORSDOF 2
ENDMDL
MODEL 4
REMARK VINA RESULT:    -6.443      2.306      3.222
REMARK INTER + INTRA:          -7.354
REMARK INTER:                  -7.233
REMARK INTRA:                  -0.121
REMARK UNBOUND:                -0.158
REMARK  Name = 1550473
REMARK  2 active torsions:
REMARK  status: ('A' for Active; 'I' for Inactive)
REMARK    1  A    between atoms: N_1  and  C_4
REMARK    2  A    between atoms: C_4  and  C_5
REMARK                            x       y       z     vdW  Elec       q    Type
REMARK                         _______ _______ _______ _____ _____    ______ ____
ROOT
ATOM      1  N   UNL     1      -0.684  -3.910  -8.341  0.00  0.00    -0.354 N 
ATOM      2  N   UNL     1      -1.392  -5.872  -7.334  0.00  0.00    -0.372 N 
ATOM      3  N   UNL     1       0.108  -5.993  -9.067  0.00  0.00    -0.372 N 
ATOM      4  C   UNL     1      -0.650  -5.247  -8.256  0.00  0.00    +0.166 C 
ATOM      5  H   UNL     1      -1.301  -3.404  -7.717  0.00  0.00    +0.163 HD
ATOM      6  H   UNL     1      -1.384  -6.879  -7.244  0.00  0.00    +0.159 HD
ATOM      7  H   UNL     1      -1.973  -5.360  -6.681  0.00  0.00    +0.159 HD
ATOM      8  H   UNL     1       0.686  -5.583  -9.788  0.00  0.00    +0.159 HD
ATOM      9  H   UNL     1       0.120  -7.003  -9.000  0.00  0.00    +0.159 HD
ENDROOT
BRANCH   1  10
ATOM     10  C   UNL     1       0.127  -3.129  -9.274  0.00  0.00    +0.151 C 
BRANCH  10  11
ATOM     11  C   UNL     1       0.346  -1.755  -8.704  0.00  0.00    -0.028 A 
ATOM     12  C   UNL     1      -0.574  -1.205  -7.798  0.00  0.00    +0.005 A 
ATOM     13  C   UNL     1       1.473  -1.000  -9.060  0.00  0.00    +0.005 A 
ATOM     14  C   UNL     1      -0.356   0.059  -7.245  0.00  0.00    +0.000 A 
ATOM     15  C   UNL     1       1.687   0.262  -8.506  0.00  0.00    +0.000 A 
ATOM     16  C   UNL     1       0.774   0.790  -7.597  0.00  0.00    +0.000 A 
ENDBRANCH  10  11
ENDBRANCH   1  10
TORSDOF 2
ENDMDL
MODEL 5
REMARK VINA RESULT:    -6.424      2.287      5.532
REMARK INTER + INTRA:          -7.334
REMARK INTER:                  -7.232
REMARK INTRA:                  -0.102
REMARK UNBOUND:                -0.158
REMARK  Name = 1550473
REMARK  2 active torsions:
REMARK  status: ('A' for Active; 'I' for Inactive)
REMARK    1  A    between atoms: N_1  and  C_4
REMARK    2  A    between atoms: C_4  and  C_5
REMARK                            x       y       z     vdW  Elec       q    Type
REMARK                         _______ _______ _______ _____ _____    ______ ____
ROOT
ATOM      1  N   UNL     1       0.104  -1.872 -10.596  0.00  0.00    -0.354 N 
ATOM      2  N   UNL     1       0.470  -0.844  -8.554  0.00  0.00    -0.372 N 
ATOM      3  N   UNL     1       1.493  -2.853  -8.984  0.00  0.00    -0.372 N 
ATOM      4  C   UNL     1       0.688  -1.866  -9.391  0.00  0.00    +0.166 C 
ATOM      5  H   UNL     1      -0.520  -1.109 -10.833  0.00  0.00    +0.163 HD
ATOM      6  H   UNL     1       0.900  -0.810  -7.639  0.00  0.00    +0.159 HD
ATOM      7  H   UNL     1      -0.117  -0.060  -8.811  0.00  0.00    +0.159 HD
ATOM      8  H   UNL     1       1.693  -3.655  -9.566  0.00  0.00    +0.159 HD
ATOM      9  H   UNL     1       1.923  -2.842  -8.067  0.00  0.00    +0.159 HD
ENDROOT
BRANCH   1  10
ATOM     10  C   UNL     1       0.318  -2.911 -11.603  0.00  0.00    +0.151 C 
BRANCH  10  11
ATOM     11  C   UNL     1      -0.951  -3.103 -12.388  0.00  0.00    -0.028 A 
ATOM     12  C   UNL     1      -1.804  -4.180 -12.109  0.00  0.00    +0.005 A 
ATOM     13  C   UNL     1      -1.307  -2.207 -13.408  0.00  0.00    +0.005 A 
ATOM     14  C   UNL     1      -2.997  -4.342 -12.818  0.00  0.00    +0.000 A 
ATOM     15  C   UNL     1      -2.499  -2.373 -14.114  0.00  0.00    +0.000 A 
ATOM     16  C   UNL     1      -3.345  -3.439 -13.817  0.00  0.00    +0.000 A 
ENDBRANCH  10  11
ENDBRANCH   1  10
TORSDOF 2
ENDMDL
MODEL 6
REMARK VINA RESULT:    -6.103      5.188      6.782
REMARK INTER + INTRA:          -6.975
REMARK INTER:                  -6.829
REMARK INTRA:                  -0.147
REMARK UNBOUND:                -0.158
REMARK  Name = 1550473
REMARK  2 active torsions:
REMARK  status: ('A' for Active; 'I' for Inactive)
REMARK    1  A    between atoms: N_1  and  C_4
REMARK    2  A    between atoms: C_4  and  C_5
REMARK                            x       y       z     vdW  Elec       q    Type
REMARK                         _______ _______ _______ _____ _____    ______ ____
ROOT
ATOM      1  N   UNL     1      -3.834  -5.868 -14.549  0.00  0.00    -0.354 N 
ATOM      2  N   UNL     1      -4.431  -6.924 -16.522  0.00  0.00    -0.372 N 
ATOM      3  N   UNL     1      -6.005  -5.679 -15.410  0.00  0.00    -0.372 N 
ATOM      4  C   UNL     1      -4.755  -6.149 -15.480  0.00  0.00    +0.166 C 
ATOM      5  H   UNL     1      -2.913  -6.280 -14.644  0.00  0.00    +0.163 HD
ATOM      6  H   UNL     1      -5.104  -7.151 -17.242  0.00  0.00    +0.159 HD
ATOM      7  H   UNL     1      -3.497  -7.297 -16.638  0.00  0.00    +0.159 HD
ATOM      8  H   UNL     1      -6.315  -5.093 -14.646  0.00  0.00    +0.159 HD
ATOM      9  H   UNL     1      -6.697  -5.904 -16.115  0.00  0.00    +0.159 HD
ENDROOT
BRANCH   1  10
ATOM     10  C   UNL     1      -4.069  -4.990 -13.405  0.00  0.00    +0.151 C 
BRANCH  10  11
ATOM     11  C   UNL     1      -3.056  -3.879 -13.421  0.00  0.00    -0.028 A 
ATOM     12  C   UNL     1      -1.986  -3.879 -12.514  0.00  0.00    +0.005 A 
ATOM     13  C   UNL     1      -3.157  -2.827 -14.344  0.00  0.00    +0.005 A 
ATOM     14  C   UNL     1      -1.027  -2.863 -12.548  0.00  0.00    +0.000 A 
ATOM     15  C   UNL     1      -2.198  -1.814 -14.374  0.00  0.00    +0.000 A 
ATOM     16  C   UNL     1      -1.132  -1.834 -13.478  0.00  0.00    +0.000 A 
ENDBRANCH  10  11
ENDBRANCH   1  10
TORSDOF 2
ENDMDL
MODEL 7
REMARK VINA RESULT:    -5.777      5.228      6.650
REMARK INTER + INTRA:          -6.611
REMARK INTER:                  -6.457
REMARK INTRA:                  -0.154
REMARK UNBOUND:                -0.158
REMARK  Name = 1550473
REMARK  2 active torsions:
REMARK  status: ('A' for Active; 'I' for Inactive)
REMARK    1  A    between atoms: N_1  and  C_4
REMARK    2  A    between atoms: C_4  and  C_5
REMARK                            x       y       z     vdW  Elec       q    Type
REMARK                         _______ _______ _______ _____ _____    ______ ____
ROOT
ATOM      1  N   UNL     1      -4.920  -5.306 -12.980  0.00  0.00    -0.354 N 
ATOM      2  N   UNL     1      -6.171  -6.053 -11.180  0.00  0.00    -0.372 N 
ATOM      3  N   UNL     1      -4.402  -7.323 -11.904  0.00  0.00    -0.372 N 
ATOM      4  C   UNL     1      -5.154  -6.225 -12.034  0.00  0.00    +0.166 C 
ATOM      5  H   UNL     1      -5.545  -4.511 -13.045  0.00  0.00    +0.163 HD
ATOM      6  H   UNL     1      -6.371  -6.727 -10.453  0.00  0.00    +0.159 HD
ATOM      7  H   UNL     1      -6.766  -5.234 -11.218  0.00  0.00    +0.159 HD
ATOM      8  H   UNL     1      -3.624  -7.514 -12.520  0.00  0.00    +0.159 HD
ATOM      9  H   UNL     1      -4.593  -8.015 -11.190  0.00  0.00    +0.159 HD
ENDROOT
BRANCH   1  10
ATOM     10  C   UNL     1      -3.806  -5.372 -13.925  0.00  0.00    +0.151 C 
BRANCH  10  11
ATOM     11  C   UNL     1      -2.925  -4.169 -13.729  0.00  0.00    -0.028 A 
ATOM     12  C   UNL     1      -1.978  -4.141 -12.695  0.00  0.00    +0.005 A 
ATOM     13  C   UNL     1      -3.028  -3.057 -14.579  0.00  0.00    +0.005 A 
ATOM     14  C   UNL     1      -1.138  -3.036 -12.532  0.00  0.00    +0.000 A 
ATOM     15  C   UNL     1      -2.188  -1.956 -14.412  0.00  0.00    +0.000 A 
ATOM     16  C   UNL     1      -1.242  -1.947 -13.390  0.00  0.00    +0.000 A 
ENDBRANCH  10  11
ENDBRANCH   1  10
TORSDOF 2
ENDMDL
MODEL 8
REMARK VINA RESULT:    -5.750      4.413      5.830
REMARK INTER + INTRA:          -6.580
REMARK INTER:                  -6.443
REMARK INTRA:                  -0.137
REMARK UNBOUND:                -0.158
REMARK  Name = 1550473
REMARK  2 active torsions:
REMARK  status: ('A' for Active; 'I' for Inactive)
REMARK    1  A    between atoms: N_1  and  C_4
REMARK    2  A    between atoms: C_4  and  C_5
REMARK                            x       y       z     vdW  Elec       q    Type
REMARK                         _______ _______ _______ _____ _____    ______ ____
ROOT
ATOM      1  N   UNL     1       0.435  -5.036 -11.077  0.00  0.00    -0.354 N 
ATOM      2  N   UNL     1       2.329  -4.816  -9.763  0.00  0.00    -0.372 N 
ATOM      3  N   UNL     1       0.375  -5.518  -8.785  0.00  0.00    -0.372 N 
ATOM      4  C   UNL     1       1.032  -5.125  -9.882  0.00  0.00    +0.166 C 
ATOM      5  H   UNL     1       0.981  -4.703 -11.864  0.00  0.00    +0.163 HD
ATOM      6  H   UNL     1       2.807  -4.878  -8.874  0.00  0.00    +0.159 HD
ATOM      7  H   UNL     1       2.883  -4.528 -10.560  0.00  0.00    +0.159 HD
ATOM      8  H   UNL     1      -0.607  -5.759  -8.806  0.00  0.00    +0.159 HD
ATOM      9  H   UNL     1       0.834  -5.574  -7.884  0.00  0.00    +0.159 HD
ENDROOT
BRANCH   1  10
ATOM     10  C   UNL     1      -0.959  -5.400 -11.325  0.00  0.00    +0.151 C 
BRANCH  10  11
ATOM     11  C   UNL     1      -1.566  -4.405 -12.274  0.00  0.00    -0.028 A 
ATOM     12  C   UNL     1      -2.842  -4.622 -12.814  0.00  0.00    +0.005 A 
ATOM     13  C   UNL     1      -0.872  -3.239 -12.634  0.00  0.00    +0.005 A 
ATOM     14  C   UNL     1      -3.419  -3.683 -13.672  0.00  0.00    +0.000 A 
ATOM     15  C   UNL     1      -1.451  -2.304 -13.492  0.00  0.00    +0.000 A 
ATOM     16  C   UNL     1      -2.726  -2.525 -14.009  0.00  0.00    +0.000 A 
ENDBRANCH  10  11
ENDBRANCH   1  10
TORSDOF 2
ENDMDL
MODEL 9
REMARK VINA RESULT:    -5.441      5.872      7.186
REMARK INTER + INTRA:          -6.236
REMARK INTER:                  -6.079
REMARK INTRA:                  -0.157
REMARK UNBOUND:                -0.158
REMARK  Name = 1550473
REMARK  2 active torsions:
REMARK  status: ('A' for Active; 'I' for Inactive)
REMARK    1  A    between atoms: N_1  and  C_4
REMARK    2  A    between atoms: C_4  and  C_5
REMARK                            x       y       z     vdW  Elec       q    Type
REMARK                         _______ _______ _______ _____ _____    ______ ____
ROOT
ATOM      1  N   UNL     1      -4.346  -7.611 -11.859  0.00  0.00    -0.354 N 
ATOM      2  N   UNL     1      -6.604  -7.210 -12.186  0.00  0.00    -0.372 N 
ATOM      3  N   UNL     1      -5.111  -5.507 -12.552  0.00  0.00    -0.372 N 
ATOM      4  C   UNL     1      -5.338  -6.776 -12.197  0.00  0.00    +0.166 C 
ATOM      5  H   UNL     1      -4.587  -8.552 -11.570  0.00  0.00    +0.163 HD
ATOM      6  H   UNL     1      -7.373  -6.604 -12.440  0.00  0.00    +0.159 HD
ATOM      7  H   UNL     1      -6.838  -8.165 -11.941  0.00  0.00    +0.159 HD
ATOM      8  H   UNL     1      -4.179  -5.116 -12.575  0.00  0.00    +0.159 HD
ATOM      9  H   UNL     1      -5.868  -4.882 -12.798  0.00  0.00    +0.159 HD
ENDROOT
BRANCH   1  10
ATOM     10  C   UNL     1      -2.929  -7.253 -11.891  0.00  0.00    +0.151 C 
BRANCH  10  11
ATOM     11  C   UNL     1      -2.389  -7.261 -10.487  0.00  0.00    -0.028 A 
ATOM     12  C   UNL     1      -2.081  -6.058  -9.836  0.00  0.00    +0.005 A 
ATOM     13  C   UNL     1      -2.189  -8.469  -9.801  0.00  0.00    +0.005 A 
ATOM     14  C   UNL     1      -1.608  -6.063  -8.521  0.00  0.00    +0.000 A 
ATOM     15  C   UNL     1      -1.716  -8.470  -8.489  0.00  0.00    +0.000 A 
ATOM     16  C   UNL     1      -1.427  -7.267  -7.849  0.00  0.00    +0.000 A 
ENDBRANCH  10  11
ENDBRANCH   1  10
TORSDOF 2
ENDMDL
