MODEL 1
REMARK VINA RESULT:    -5.613      0.000      0.000
REMARK INTER + INTRA:          -6.447
REMARK INTER:                  -6.270
REMARK INTRA:                  -0.178
REMARK UNBOUND:                -0.178
REMARK  Name = 1550473
REMARK  2 active torsions:
REMARK  status: ('A' for Active; 'I' for Inactive)
REMARK    1  A    between atoms: N_1  and  C_4
REMARK    2  A    between atoms: C_4  and  C_5
REMARK                            x       y       z     vdW  Elec       q    Type
REMARK                         _______ _______ _______ _____ _____    ______ ____
ROOT
ATOM      1  N   UNL     1      -5.085   8.233  12.626  0.00  0.00    -0.354 N 
ATOM      2  N   UNL     1      -6.577   9.368  13.986  0.00  0.00    -0.372 N 
ATOM      3  N   UNL     1      -4.624   8.581  14.897  0.00  0.00    -0.372 N 
ATOM      4  C   UNL     1      -5.417   8.719  13.829  0.00  0.00    +0.166 C 
ATOM      5  H   UNL     1      -5.743   8.344  11.864  0.00  0.00    +0.163 HD
ATOM      6  H   UNL     1      -6.853   9.748  14.881  0.00  0.00    +0.159 HD
ATOM      7  H   UNL     1      -7.212   9.518  13.212  0.00  0.00    +0.159 HD
ATOM      8  H   UNL     1      -3.738   8.096  14.847  0.00  0.00    +0.159 HD
ATOM      9  H   UNL     1      -4.888   8.944  15.804  0.00  0.00    +0.159 HD
ENDROOT
BRANCH   1  10
ATOM     10  C   UNL     1      -3.821   7.558  12.337  0.00  0.00    +0.151 C 
BRANCH  10  11
ATOM     11  C   UNL     1      -4.060   6.075  12.266  0.00  0.00    -0.028 A 
ATOM     12  C   UNL     1      -3.415   5.206  13.158  0.00  0.00    +0.005 A 
ATOM     13  C   UNL     1      -4.936   5.533  11.313  0.00  0.00    +0.005 A 
ATOM     14  C   UNL     1      -3.660   3.832  13.112  0.00  0.00    +0.000 A 
ATOM     15  C   UNL     1      -5.178   4.160  11.270  0.00  0.00    +0.000 A 
ATOM     16  C   UNL     1      -4.542   3.310  12.171  0.00  0.00    +0.000 A 
ENDBRANCH  10  11
ENDBRANCH   1  10
TORSDOF 2
ENDMDL
MODEL 2
REMARK VINA RESULT:    -5.174      1.290      2.082
REMARK INTER + INTRA:          -5.957
REMARK INTER:                  -5.826
REMARK INTRA:                  -0.131
REMARK UNBOUND:                -0.178
REMARK  Name = 1550473
REMARK  2 active torsions:
REMARK  status: ('A' for Active; 'I' for Inactive)
REMARK    1  A    between atoms: N_1  and  C_4
REMARK    2  A    between atoms: C_4  and  C_5
REMARK                            x       y       z     vdW  Elec       q    Type
REMARK                         _______ _______ _______ _____ _____    ______ ____
ROOT
ATOM      1  N   UNL     1      -4.263   7.677  14.072  0.00  0.00    -0.354 N 
ATOM      2  N   UNL     1      -4.164   8.709  16.143  0.00  0.00    -0.372 N 
ATOM      3  N   UNL     1      -2.351   8.853  14.744  0.00  0.00    -0.372 N 
ATOM      4  C   UNL     1      -3.591   8.407  14.972  0.00  0.00    +0.166 C 
ATOM      5  H   UNL     1      -5.189   7.344  14.317  0.00  0.00    +0.163 HD
ATOM      6  H   UNL     1      -3.682   9.261  16.840  0.00  0.00    +0.159 HD
ATOM      7  H   UNL     1      -5.106   8.413  16.367  0.00  0.00    +0.159 HD
ATOM      8  H   UNL     1      -1.860   8.655  13.882  0.00  0.00    +0.159 HD
ATOM      9  H   UNL     1      -1.848   9.397  15.434  0.00  0.00    +0.159 HD
ENDROOT
BRANCH   1  10
ATOM     10  C   UNL     1      -3.750   7.339  12.745  0.00  0.00    +0.151 C 
BRANCH  10  11
ATOM     11  C   UNL     1      -4.029   5.888  12.466  0.00  0.00    -0.028 A 
ATOM     12  C   UNL     1      -4.858   5.515  11.398  0.00  0.00    +0.005 A 
ATOM     13  C   UNL     1      -3.463   4.881  13.263  0.00  0.00    +0.005 A 
ATOM     14  C   UNL     1      -5.093   4.166  11.120  0.00  0.00    +0.000 A 
ATOM     15  C   UNL     1      -3.701   3.535  12.983  0.00  0.00    +0.000 A 
ATOM     16  C   UNL     1      -4.514   3.178  11.910  0.00  0.00    +0.000 A 
ENDBRANCH  10  11
ENDBRANCH   1  10
TORSDOF 2
ENDMDL
MODEL 3
REMARK VINA RESULT:    -5.107     18.981     19.914
REMARK INTER + INTRA:          -5.882
REMARK INTER:                  -5.714
REMARK INTRA:                  -0.168
REMARK UNBOUND:                -0.178
REMARK  Name = 1550473
REMARK  2 active torsions:
REMARK  status: ('A' for Active; 'I' for Inactive)
REMARK    1  A    between atoms: N_1  and  C_4
REMARK    2  A    between atoms: C_4  and  C_5
REMARK                            x       y       z     vdW  Elec       q    Type
REMARK                         _______ _______ _______ _____ _____    ______ ____
ROOT
ATOM      1  N   UNL     1     -13.840   9.409  -5.061  0.00  0.00    -0.354 N 
ATOM      2  N   UNL     1     -12.394  11.183  -4.708  0.00  0.00    -0.372 N 
ATOM      3  N   UNL     1     -12.031   9.796  -6.499  0.00  0.00    -0.372 N 
ATOM      4  C   UNL     1     -12.763  10.116  -5.427  0.00  0.00    +0.166 C 
ATOM      5  H   UNL     1     -14.335   9.686  -4.221  0.00  0.00    +0.163 HD
ATOM      6  H   UNL     1     -11.587  11.738  -4.962  0.00  0.00    +0.159 HD
ATOM      7  H   UNL     1     -12.917  11.485  -3.895  0.00  0.00    +0.159 HD
ATOM      8  H   UNL     1     -12.253   8.999  -7.081  0.00  0.00    +0.159 HD
ATOM      9  H   UNL     1     -11.213  10.332  -6.763  0.00  0.00    +0.159 HD
ENDROOT
BRANCH   1  10
ATOM     10  C   UNL     1     -14.358   8.263  -5.807  0.00  0.00    +0.151 C 
BRANCH  10  11
ATOM     11  C   UNL     1     -13.887   6.995  -5.148  0.00  0.00    -0.028 A 
ATOM     12  C   UNL     1     -12.719   6.356  -5.588  0.00  0.00    +0.005 A 
ATOM     13  C   UNL     1     -14.603   6.432  -4.080  0.00  0.00    +0.005 A 
ATOM     14  C   UNL     1     -12.265   5.195  -4.957  0.00  0.00    +0.000 A 
ATOM     15  C   UNL     1     -14.147   5.272  -3.453  0.00  0.00    +0.000 A 
ATOM     16  C   UNL     1     -12.977   4.656  -3.890  0.00  0.00    +0.000 A 
ENDBRANCH  10  11
ENDBRANCH   1  10
TORSDOF 2
ENDMDL
MODEL 4
REMARK VINA RESULT:    -4.962     19.902     20.916
REMARK INTER + INTRA:          -5.720
REMARK INTER:                  -5.600
REMARK INTRA:                  -0.120
REMARK UNBOUND:                -0.178
REMARK  Name = 1550473
REMARK  2 active torsions:
REMARK  status: ('A' for Active; 'I' for Inactive)
REMARK    1  A    between atoms: N_1  and  C_4
REMARK    2  A    between atoms: C_4  and  C_5
REMARK                            x       y       z     vdW  Elec       q    Type
REMARK                         _______ _______ _______ _____ _____    ______ ____
ROOT
ATOM      1  N   UNL     1     -13.697   8.404  -7.253  0.00  0.00    -0.354 N 
ATOM      2  N   UNL     1     -14.930   9.892  -8.529  0.00  0.00    -0.372 N 
ATOM      3  N   UNL     1     -12.886  10.552  -7.722  0.00  0.00    -0.372 N 
ATOM      4  C   UNL     1     -13.828   9.608  -7.826  0.00  0.00    +0.166 C 
ATOM      5  H   UNL     1     -14.460   7.743  -7.343  0.00  0.00    +0.163 HD
ATOM      6  H   UNL     1     -15.055  10.791  -8.976  0.00  0.00    +0.159 HD
ATOM      7  H   UNL     1     -15.671   9.213  -8.657  0.00  0.00    +0.159 HD
ATOM      8  H   UNL     1     -12.033  10.403  -7.200  0.00  0.00    +0.159 HD
ATOM      9  H   UNL     1     -12.998  11.462  -8.152  0.00  0.00    +0.159 HD
ENDROOT
BRANCH   1  10
ATOM     10  C   UNL     1     -12.513   7.976  -6.510  0.00  0.00    +0.151 C 
BRANCH  10  11
ATOM     11  C   UNL     1     -12.911   6.919  -5.518  0.00  0.00    -0.028 A 
ATOM     12  C   UNL     1     -14.030   7.102  -4.693  0.00  0.00    +0.005 A 
ATOM     13  C   UNL     1     -12.177   5.728  -5.402  0.00  0.00    +0.005 A 
ATOM     14  C   UNL     1     -14.418   6.107  -3.792  0.00  0.00    +0.000 A 
ATOM     15  C   UNL     1     -12.567   4.738  -4.501  0.00  0.00    +0.000 A 
ATOM     16  C   UNL     1     -13.689   4.927  -3.698  0.00  0.00    +0.000 A 
ENDBRANCH  10  11
ENDBRANCH   1  10
TORSDOF 2
ENDMDL
MODEL 5
REMARK VINA RESULT:    -4.901     17.544     19.147
REMARK INTER + INTRA:          -5.651
REMARK INTER:                  -5.517
REMARK INTRA:                  -0.134
REMARK UNBOUND:                -0.178
REMARK  Name = 1550473
REMARK  2 active torsions:
REMARK  status: ('A' for Active; 'I' for Inactive)
REMARK    1  A    between atoms: N_1  and  C_4
REMARK    2  A    between atoms: C_4  and  C_5
REMARK                            x       y       z     vdW  Elec       q    Type
REMARK                         _______ _______ _______ _____ _____    ______ ____
ROOT
ATOM      1  N   UNL     1      -0.172  -7.264   3.035  0.00  0.00    -0.354 N 
ATOM      2  N   UNL     1      -0.602  -5.045   3.540  0.00  0.00    -0.372 N 
ATOM      3  N   UNL     1      -2.254  -6.600   3.882  0.00  0.00    -0.372 N 
ATOM      4  C   UNL     1      -1.009  -6.318   3.483  0.00  0.00    +0.166 C 
ATOM      5  H   UNL     1       0.749  -6.981   2.719  0.00  0.00    +0.163 HD
ATOM      6  H   UNL     1      -1.210  -4.310   3.877  0.00  0.00    +0.159 HD
ATOM      7  H   UNL     1       0.335  -4.772   3.267  0.00  0.00    +0.159 HD
ATOM      8  H   UNL     1      -2.624  -7.541   3.858  0.00  0.00    +0.159 HD
ATOM      9  H   UNL     1      -2.881  -5.877   4.211  0.00  0.00    +0.159 HD
ENDROOT
BRANCH   1  10
ATOM     10  C   UNL     1      -0.499  -8.688   2.984  0.00  0.00    +0.151 C 
BRANCH  10  11
ATOM     11  C   UNL     1       0.173  -9.303   1.787  0.00  0.00    -0.028 A 
ATOM     12  C   UNL     1       0.753  -8.492   0.801  0.00  0.00    +0.005 A 
ATOM     13  C   UNL     1       0.238 -10.696   1.637  0.00  0.00    +0.005 A 
ATOM     14  C   UNL     1       1.404  -9.063  -0.296  0.00  0.00    +0.000 A 
ATOM     15  C   UNL     1       0.888 -11.263   0.540  0.00  0.00    +0.000 A 
ATOM     16  C   UNL     1       1.472 -10.446  -0.424  0.00  0.00    +0.000 A 
ENDBRANCH  10  11
ENDBRANCH   1  10
TORSDOF 2
ENDMDL
MODEL 6
REMARK VINA RESULT:    -4.755     32.026     33.496
REMARK INTER + INTRA:          -5.489
REMARK INTER:                  -5.342
REMARK INTRA:                  -0.147
REMARK UNBOUND:                -0.178
REMARK  Name = 1550473
REMARK  2 active torsions:
REMARK  status: ('A' for Active; 'I' for Inactive)
REMARK    1  A    between atoms: N_1  and  C_4
REMARK    2  A    between atoms: C_4  and  C_5
REMARK                            x       y       z     vdW  Elec       q    Type
REMARK                         _______ _______ _______ _____ _____    ______ ____
ROOT
ATOM      1  N   UNL     1     -12.785 -14.513 -11.700  0.00  0.00    -0.354 N 
ATOM      2  N   UNL     1     -11.796 -15.811 -10.057  0.00  0.00    -0.372 N 
ATOM      3  N   UNL     1     -11.703 -13.525  -9.871  0.00  0.00    -0.372 N 
ATOM      4  C   UNL     1     -12.100 -14.605 -10.553  0.00  0.00    +0.166 C 
ATOM      5  H   UNL     1     -13.031 -15.368 -12.185  0.00  0.00    +0.163 HD
ATOM      6  H   UNL     1     -11.283 -15.912  -9.191  0.00  0.00    +0.159 HD
ATOM      7  H   UNL     1     -12.083 -16.665 -10.519  0.00  0.00    +0.159 HD
ATOM      8  H   UNL     1     -11.896 -12.587 -10.195  0.00  0.00    +0.159 HD
ATOM      9  H   UNL     1     -11.178 -13.606  -9.009  0.00  0.00    +0.159 HD
ENDROOT
BRANCH   1  10
ATOM     10  C   UNL     1     -13.213 -13.249 -12.298  0.00  0.00    +0.151 C 
BRANCH  10  11
ATOM     11  C   UNL     1     -14.712 -13.245 -12.417  0.00  0.00    -0.028 A 
ATOM     12  C   UNL     1     -15.396 -12.069 -12.758  0.00  0.00    +0.005 A 
ATOM     13  C   UNL     1     -15.454 -14.415 -12.196  0.00  0.00    +0.005 A 
ATOM     14  C   UNL     1     -16.786 -12.071 -12.899  0.00  0.00    +0.000 A 
ATOM     15  C   UNL     1     -16.842 -14.414 -12.336  0.00  0.00    +0.000 A 
ATOM     16  C   UNL     1     -17.507 -13.242 -12.690  0.00  0.00    +0.000 A 
ENDBRANCH  10  11
ENDBRANCH   1  10
TORSDOF 2
ENDMDL
MODEL 7
REMARK VINA RESULT:    -4.575     31.276     33.028
REMARK INTER + INTRA:          -5.288
REMARK INTER:                  -5.175
REMARK INTRA:                  -0.113
REMARK UNBOUND:                -0.178
REMARK  Name = 1550473
REMARK  2 active torsions:
REMARK  status: ('A' for Active; 'I' for Inactive)
REMARK    1  A    between atoms: N_1  and  C_4
REMARK    2  A    between atoms: C_4  and  C_5
REMARK                            x       y       z     vdW  Elec       q    Type
REMARK                         _______ _______ _______ _____ _____    ______ ____
ROOT
ATOM      1  N   UNL     1     -12.703 -12.367 -11.567  0.00  0.00    -0.354 N 
ATOM      2  N   UNL     1     -11.020 -11.100 -10.605  0.00  0.00    -0.372 N 
ATOM      3  N   UNL     1     -10.595 -13.293 -11.130  0.00  0.00    -0.372 N 
ATOM      4  C   UNL     1     -11.449 -12.264 -11.107  0.00  0.00    +0.166 C 
ATOM      5  H   UNL     1     -13.311 -11.559 -11.493  0.00  0.00    +0.163 HD
ATOM      6  H   UNL     1     -10.078 -10.991 -10.254  0.00  0.00    +0.159 HD
ATOM      7  H   UNL     1     -11.615 -10.281 -10.575  0.00  0.00    +0.159 HD
ATOM      8  H   UNL     1     -10.859 -14.200 -11.491  0.00  0.00    +0.159 HD
ATOM      9  H   UNL     1      -9.652 -13.207 -10.773  0.00  0.00    +0.159 HD
ENDROOT
BRANCH   1  10
ATOM     10  C   UNL     1     -13.252 -13.575 -12.182  0.00  0.00    +0.151 C 
BRANCH  10  11
ATOM     11  C   UNL     1     -14.733 -13.398 -12.376  0.00  0.00    -0.028 A 
ATOM     12  C   UNL     1     -15.604 -14.488 -12.240  0.00  0.00    +0.005 A 
ATOM     13  C   UNL     1     -15.271 -12.140 -12.690  0.00  0.00    +0.005 A 
ATOM     14  C   UNL     1     -16.982 -14.318 -12.391  0.00  0.00    +0.000 A 
ATOM     15  C   UNL     1     -16.648 -11.975 -12.840  0.00  0.00    +0.000 A 
ATOM     16  C   UNL     1     -17.503 -13.064 -12.688  0.00  0.00    +0.000 A 
ENDBRANCH  10  11
ENDBRANCH   1  10
TORSDOF 2
ENDMDL
MODEL 8
REMARK VINA RESULT:    -4.381     15.554     17.098
REMARK INTER + INTRA:          -5.071
REMARK INTER:                  -4.893
REMARK INTRA:                  -0.178
REMARK UNBOUND:                -0.178
REMARK  Name = 1550473
REMARK  2 active torsions:
REMARK  status: ('A' for Active; 'I' for Inactive)
REMARK    1  A    between atoms: N_1  and  C_4
REMARK    2  A    between atoms: C_4  and  C_5
REMARK                            x       y       z     vdW  Elec       q    Type
REMARK                         _______ _______ _______ _____ _____    ______ ____
ROOT
ATOM      1  N   UNL     1     -13.298  -5.395   7.014  0.00  0.00    -0.354 N 
ATOM      2  N   UNL     1     -12.497  -6.182   9.040  0.00  0.00    -0.372 N 
ATOM      3  N   UNL     1     -13.449  -4.096   8.958  0.00  0.00    -0.372 N 
ATOM      4  C   UNL     1     -13.087  -5.217   8.325  0.00  0.00    +0.166 C 
ATOM      5  H   UNL     1     -12.973  -6.255   6.587  0.00  0.00    +0.163 HD
ATOM      6  H   UNL     1     -12.328  -6.077  10.031  0.00  0.00    +0.159 HD
ATOM      7  H   UNL     1     -12.216  -7.060   8.620  0.00  0.00    +0.159 HD
ATOM      8  H   UNL     1     -13.893  -3.327   8.474  0.00  0.00    +0.159 HD
ATOM      9  H   UNL     1     -13.277  -3.967   9.948  0.00  0.00    +0.159 HD
ENDROOT
BRANCH   1  10
ATOM     10  C   UNL     1     -13.981  -4.428   6.156  0.00  0.00    +0.151 C 
BRANCH  10  11
ATOM     11  C   UNL     1     -15.405  -4.867   5.958  0.00  0.00    -0.028 A 
ATOM     12  C   UNL     1     -16.423  -4.379   6.792  0.00  0.00    +0.005 A 
ATOM     13  C   UNL     1     -15.746  -5.766   4.936  0.00  0.00    +0.005 A 
ATOM     14  C   UNL     1     -17.751  -4.763   6.590  0.00  0.00    +0.000 A 
ATOM     15  C   UNL     1     -17.072  -6.147   4.738  0.00  0.00    +0.000 A 
ATOM     16  C   UNL     1     -18.075  -5.643   5.563  0.00  0.00    +0.000 A 
ENDBRANCH  10  11
ENDBRANCH   1  10
TORSDOF 2
ENDMDL
MODEL 9
REMARK VINA RESULT:    -4.329     14.254     15.192
REMARK INTER + INTRA:          -5.013
REMARK INTER:                  -4.911
REMARK INTRA:                  -0.102
REMARK UNBOUND:                -0.178
REMARK  Name = 1550473
REMARK  2 active torsions:
REMARK  status: ('A' for Active; 'I' for Inactive)
REMARK    1  A    between atoms: N_1  and  C_4
REMARK    2  A    between atoms: C_4  and  C_5
REMARK                            x       y       z     vdW  Elec       q    Type
REMARK                         _______ _______ _______ _____ _____    ______ ____
ROOT
ATOM      1  N   UNL     1     -13.566  -4.136   8.883  0.00  0.00    -0.354 N 
ATOM      2  N   UNL     1     -11.406  -4.846   8.441  0.00  0.00    -0.372 N 
ATOM      3  N   UNL     1     -13.159  -5.947   7.451  0.00  0.00    -0.372 N 
ATOM      4  C   UNL     1     -12.726  -4.974   8.260  0.00  0.00    +0.166 C 
ATOM      5  H   UNL     1     -13.176  -3.439   9.507  0.00  0.00    +0.163 HD
ATOM      6  H   UNL     1     -10.748  -5.461   7.982  0.00  0.00    +0.159 HD
ATOM      7  H   UNL     1     -11.017  -4.119   9.029  0.00  0.00    +0.159 HD
ATOM      8  H   UNL     1     -14.144  -6.100   7.277  0.00  0.00    +0.159 HD
ATOM      9  H   UNL     1     -12.516  -6.579   6.992  0.00  0.00    +0.159 HD
ENDROOT
BRANCH   1  10
ATOM     10  C   UNL     1     -15.018  -4.157   8.711  0.00  0.00    +0.151 C 
BRANCH  10  11
ATOM     11  C   UNL     1     -15.584  -2.838   9.160  0.00  0.00    -0.028 A 
ATOM     12  C   UNL     1     -15.353  -1.673   8.413  0.00  0.00    +0.005 A 
ATOM     13  C   UNL     1     -16.356  -2.747  10.328  0.00  0.00    +0.005 A 
ATOM     14  C   UNL     1     -15.904  -0.453   8.814  0.00  0.00    +0.000 A 
ATOM     15  C   UNL     1     -16.904  -1.527  10.725  0.00  0.00    +0.000 A 
ATOM     16  C   UNL     1     -16.679  -0.381   9.966  0.00  0.00    +0.000 A 
ENDBRANCH  10  11
ENDBRANCH   1  10
TORSDOF 2
ENDMDL
