MODEL 1
REMARK VINA RESULT:    -5.837      0.000      0.000
REMARK INTER + INTRA:          -6.508
REMARK INTER:                  -6.520
REMARK INTRA:                   0.012
REMARK UNBOUND:                 0.012
REMARK  Name = 1550473
REMARK  2 active torsions:
REMARK  status: ('A' for Active; 'I' for Inactive)
REMARK    1  A    between atoms: N_1  and  C_4
REMARK    2  A    between atoms: C_4  and  C_5
REMARK                            x       y       z     vdW  Elec       q    Type
REMARK                         _______ _______ _______ _____ _____    ______ ____
ROOT
ATOM      1  N   UNL     1      -7.935  -4.911 -11.291  0.00  0.00    -0.354 N 
ATOM      2  N   UNL     1      -6.112  -3.996 -12.389  0.00  0.00    -0.372 N 
ATOM      3  N   UNL     1      -7.169  -5.809 -13.316  0.00  0.00    -0.372 N 
ATOM      4  C   UNL     1      -7.085  -4.913 -12.326  0.00  0.00    +0.166 C 
ATOM      5  H   UNL     1      -7.799  -4.224 -10.558  0.00  0.00    +0.163 HD
ATOM      6  H   UNL     1      -5.458  -3.971 -13.159  0.00  0.00    +0.159 HD
ATOM      7  H   UNL     1      -6.007  -3.282 -11.678  0.00  0.00    +0.159 HD
ATOM      8  H   UNL     1      -7.877  -6.532 -13.325  0.00  0.00    +0.159 HD
ATOM      9  H   UNL     1      -6.517  -5.808 -14.089  0.00  0.00    +0.159 HD
ENDROOT
BRANCH   1  10
ATOM     10  C   UNL     1      -9.061  -5.833 -11.156  0.00  0.00    +0.151 C 
BRANCH  10  11
ATOM     11  C   UNL     1      -8.694  -6.916 -10.180  0.00  0.00    -0.028 A 
ATOM     12  C   UNL     1      -9.684  -7.552  -9.416  0.00  0.00    +0.005 A 
ATOM     13  C   UNL     1      -7.358  -7.316 -10.019  0.00  0.00    +0.005 A 
ATOM     14  C   UNL     1      -9.347  -8.579  -8.531  0.00  0.00    +0.000 A 
ATOM     15  C   UNL     1      -7.026  -8.341  -9.134  0.00  0.00    +0.000 A 
ATOM     16  C   UNL     1      -8.020  -8.975  -8.392  0.00  0.00    +0.000 A 
ENDBRANCH  10  11
ENDBRANCH   1  10
TORSDOF 2
ENDMDL
MODEL 2
REMARK VINA RESULT:    -5.526      2.301      4.990
REMARK INTER + INTRA:          -6.160
REMARK INTER:                  -6.007
REMARK INTRA:                  -0.154
REMARK UNBOUND:                 0.012
REMARK  Name = 1550473
REMARK  2 active torsions:
REMARK  status: ('A' for Active; 'I' for Inactive)
REMARK    1  A    between atoms: N_1  and  C_4
REMARK    2  A    between atoms: C_4  and  C_5
REMARK                            x       y       z     vdW  Elec       q    Type
REMARK                         _______ _______ _______ _____ _____    ______ ____
ROOT
ATOM      1  N   UNL     1      -8.195  -7.507 -10.676  0.00  0.00    -0.354 N 
ATOM      2  N   UNL     1     -10.149  -7.371  -9.439  0.00  0.00    -0.372 N 
ATOM      3  N   UNL     1      -8.136  -7.360  -8.338  0.00  0.00    -0.372 N 
ATOM      4  C   UNL     1      -8.812  -7.413  -9.490  0.00  0.00    +0.166 C 
ATOM      5  H   UNL     1      -8.766  -7.574 -11.511  0.00  0.00    +0.163 HD
ATOM      6  H   UNL     1     -10.642  -7.297  -8.559  0.00  0.00    +0.159 HD
ATOM      7  H   UNL     1     -10.715  -7.392 -10.279  0.00  0.00    +0.159 HD
ATOM      8  H   UNL     1      -7.125  -7.394  -8.308  0.00  0.00    +0.159 HD
ATOM      9  H   UNL     1      -8.611  -7.298  -7.447  0.00  0.00    +0.159 HD
ENDROOT
BRANCH   1  10
ATOM     10  C   UNL     1      -6.743  -7.506 -10.845  0.00  0.00    +0.151 C 
BRANCH  10  11
ATOM     11  C   UNL     1      -6.327  -6.223 -11.511  0.00  0.00    -0.028 A 
ATOM     12  C   UNL     1      -5.134  -5.585 -11.142  0.00  0.00    +0.005 A 
ATOM     13  C   UNL     1      -7.118  -5.645 -12.515  0.00  0.00    +0.005 A 
ATOM     14  C   UNL     1      -4.731  -4.409 -11.781  0.00  0.00    +0.000 A 
ATOM     15  C   UNL     1      -6.713  -4.471 -13.150  0.00  0.00    +0.000 A 
ATOM     16  C   UNL     1      -5.519  -3.855 -12.784  0.00  0.00    +0.000 A 
ENDBRANCH  10  11
ENDBRANCH   1  10
TORSDOF 2
ENDMDL
MODEL 3
REMARK VINA RESULT:    -5.295      1.737      2.979
REMARK INTER + INTRA:          -5.903
REMARK INTER:                  -5.809
REMARK INTRA:                  -0.094
REMARK UNBOUND:                 0.012
REMARK  Name = 1550473
REMARK  2 active torsions:
REMARK  status: ('A' for Active; 'I' for Inactive)
REMARK    1  A    between atoms: N_1  and  C_4
REMARK    2  A    between atoms: C_4  and  C_5
REMARK                            x       y       z     vdW  Elec       q    Type
REMARK                         _______ _______ _______ _____ _____    ______ ____
ROOT
ATOM      1  N   UNL     1      -5.355  -3.936 -11.712  0.00  0.00    -0.354 N 
ATOM      2  N   UNL     1      -4.134  -1.973 -11.574  0.00  0.00    -0.372 N 
ATOM      3  N   UNL     1      -3.980  -3.243 -13.479  0.00  0.00    -0.372 N 
ATOM      4  C   UNL     1      -4.497  -3.065 -12.259  0.00  0.00    +0.166 C 
ATOM      5  H   UNL     1      -5.687  -3.759 -10.771  0.00  0.00    +0.163 HD
ATOM      6  H   UNL     1      -3.491  -1.296 -11.962  0.00  0.00    +0.159 HD
ATOM      7  H   UNL     1      -4.503  -1.775 -10.652  0.00  0.00    +0.159 HD
ATOM      8  H   UNL     1      -4.209  -4.050 -14.045  0.00  0.00    +0.159 HD
ATOM      9  H   UNL     1      -3.326  -2.583 -13.880  0.00  0.00    +0.159 HD
ENDROOT
BRANCH   1  10
ATOM     10  C   UNL     1      -5.855  -5.128 -12.395  0.00  0.00    +0.151 C 
BRANCH  10  11
ATOM     11  C   UNL     1      -6.933  -5.759 -11.556  0.00  0.00    -0.028 A 
ATOM     12  C   UNL     1      -8.221  -5.206 -11.519  0.00  0.00    +0.005 A 
ATOM     13  C   UNL     1      -6.673  -6.913 -10.801  0.00  0.00    +0.005 A 
ATOM     14  C   UNL     1      -9.230  -5.808 -10.764  0.00  0.00    +0.000 A 
ATOM     15  C   UNL     1      -7.683  -7.510 -10.047  0.00  0.00    +0.000 A 
ATOM     16  C   UNL     1      -8.962  -6.959 -10.031  0.00  0.00    +0.000 A 
ENDBRANCH  10  11
ENDBRANCH   1  10
TORSDOF 2
ENDMDL
MODEL 4
REMARK VINA RESULT:    -5.189      4.798      6.668
REMARK INTER + INTRA:          -5.784
REMARK INTER:                  -5.682
REMARK INTRA:                  -0.102
REMARK UNBOUND:                 0.012
REMARK  Name = 1550473
REMARK  2 active torsions:
REMARK  status: ('A' for Active; 'I' for Inactive)
REMARK    1  A    between atoms: N_1  and  C_4
REMARK    2  A    between atoms: C_4  and  C_5
REMARK                            x       y       z     vdW  Elec       q    Type
REMARK                         _______ _______ _______ _____ _____    ______ ____
ROOT
ATOM      1  N   UNL     1      -2.084  -2.559 -13.391  0.00  0.00    -0.354 N 
ATOM      2  N   UNL     1      -0.102  -2.143 -14.514  0.00  0.00    -0.372 N 
ATOM      3  N   UNL     1      -0.708  -0.761 -12.785  0.00  0.00    -0.372 N 
ATOM      4  C   UNL     1      -0.978  -1.822 -13.554  0.00  0.00    +0.166 C 
ATOM      5  H   UNL     1      -2.246  -3.332 -14.026  0.00  0.00    +0.163 HD
ATOM      6  H   UNL     1       0.744  -1.608 -14.658  0.00  0.00    +0.159 HD
ATOM      7  H   UNL     1      -0.243  -2.944 -15.117  0.00  0.00    +0.159 HD
ATOM      8  H   UNL     1      -1.332  -0.462 -12.048  0.00  0.00    +0.159 HD
ATOM      9  H   UNL     1       0.127  -0.206 -12.922  0.00  0.00    +0.159 HD
ENDROOT
BRANCH   1  10
ATOM     10  C   UNL     1      -3.075  -2.325 -12.342  0.00  0.00    +0.151 C 
BRANCH  10  11
ATOM     11  C   UNL     1      -4.228  -3.271 -12.535  0.00  0.00    -0.028 A 
ATOM     12  C   UNL     1      -4.970  -3.255 -13.725  0.00  0.00    +0.005 A 
ATOM     13  C   UNL     1      -4.580  -4.189 -11.534  0.00  0.00    +0.005 A 
ATOM     14  C   UNL     1      -6.022  -4.154 -13.918  0.00  0.00    +0.000 A 
ATOM     15  C   UNL     1      -5.632  -5.085 -11.730  0.00  0.00    +0.000 A 
ATOM     16  C   UNL     1      -6.351  -5.068 -12.922  0.00  0.00    +0.000 A 
ENDBRANCH  10  11
ENDBRANCH   1  10
TORSDOF 2
ENDMDL
MODEL 5
REMARK VINA RESULT:    -5.132     27.170     28.238
REMARK INTER + INTRA:          -5.720
REMARK INTER:                  -5.586
REMARK INTRA:                  -0.134
REMARK UNBOUND:                 0.012
REMARK  Name = 1550473
REMARK  2 active torsions:
REMARK  status: ('A' for Active; 'I' for Inactive)
REMARK    1  A    between atoms: N_1  and  C_4
REMARK    2  A    between atoms: C_4  and  C_5
REMARK                            x       y       z     vdW  Elec       q    Type
REMARK                         _______ _______ _______ _____ _____    ______ ____
ROOT
ATOM      1  N   UNL     1      11.010 -14.707   8.289  0.00  0.00    -0.354 N 
ATOM      2  N   UNL     1       9.120 -15.970   7.848  0.00  0.00    -0.372 N 
ATOM      3  N   UNL     1      11.045 -16.408   6.678  0.00  0.00    -0.372 N 
ATOM      4  C   UNL     1      10.406 -15.688   7.606  0.00  0.00    +0.166 C 
ATOM      5  H   UNL     1      10.462 -14.178   8.958  0.00  0.00    +0.163 HD
ATOM      6  H   UNL     1       8.638 -16.707   7.351  0.00  0.00    +0.159 HD
ATOM      7  H   UNL     1       8.587 -15.471   8.550  0.00  0.00    +0.159 HD
ATOM      8  H   UNL     1      12.014 -16.241   6.444  0.00  0.00    +0.159 HD
ATOM      9  H   UNL     1      10.576 -17.142   6.162  0.00  0.00    +0.159 HD
ENDROOT
BRANCH   1  10
ATOM     10  C   UNL     1      12.421 -14.355   8.140  0.00  0.00    +0.151 C 
BRANCH  10  11
ATOM     11  C   UNL     1      12.558 -12.858   8.150  0.00  0.00    -0.028 A 
ATOM     12  C   UNL     1      11.701 -12.059   7.379  0.00  0.00    +0.005 A 
ATOM     13  C   UNL     1      13.540 -12.231   8.933  0.00  0.00    +0.005 A 
ATOM     14  C   UNL     1      11.808 -10.667   7.411  0.00  0.00    +0.000 A 
ATOM     15  C   UNL     1      13.644 -10.840   8.961  0.00  0.00    +0.000 A 
ATOM     16  C   UNL     1      12.777 -10.059   8.202  0.00  0.00    +0.000 A 
ENDBRANCH  10  11
ENDBRANCH   1  10
TORSDOF 2
ENDMDL
MODEL 6
REMARK VINA RESULT:    -5.105     11.833     13.401
REMARK INTER + INTRA:          -5.691
REMARK INTER:                  -5.596
REMARK INTRA:                  -0.094
REMARK UNBOUND:                 0.012
REMARK  Name = 1550473
REMARK  2 active torsions:
REMARK  status: ('A' for Active; 'I' for Inactive)
REMARK    1  A    between atoms: N_1  and  C_4
REMARK    2  A    between atoms: C_4  and  C_5
REMARK                            x       y       z     vdW  Elec       q    Type
REMARK                         _______ _______ _______ _____ _____    ______ ____
ROOT
ATOM      1  N   UNL     1     -19.729  -5.228  -2.990  0.00  0.00    -0.354 N 
ATOM      2  N   UNL     1     -21.439  -4.843  -1.477  0.00  0.00    -0.372 N 
ATOM      3  N   UNL     1     -20.763  -7.002  -1.862  0.00  0.00    -0.372 N 
ATOM      4  C   UNL     1     -20.632  -5.696  -2.120  0.00  0.00    +0.166 C 
ATOM      5  H   UNL     1     -19.700  -4.230  -3.164  0.00  0.00    +0.163 HD
ATOM      6  H   UNL     1     -22.128  -5.167  -0.811  0.00  0.00    +0.159 HD
ATOM      7  H   UNL     1     -21.377  -3.842  -1.618  0.00  0.00    +0.159 HD
ATOM      8  H   UNL     1     -20.189  -7.698  -2.318  0.00  0.00    +0.159 HD
ATOM      9  H   UNL     1     -21.455  -7.347  -1.208  0.00  0.00    +0.159 HD
ENDROOT
BRANCH   1  10
ATOM     10  C   UNL     1     -18.767  -6.068  -3.702  0.00  0.00    +0.151 C 
BRANCH  10  11
ATOM     11  C   UNL     1     -17.923  -5.200  -4.595  0.00  0.00    -0.028 A 
ATOM     12  C   UNL     1     -18.089  -5.236  -5.987  0.00  0.00    +0.005 A 
ATOM     13  C   UNL     1     -16.959  -4.335  -4.053  0.00  0.00    +0.005 A 
ATOM     14  C   UNL     1     -17.326  -4.408  -6.814  0.00  0.00    +0.000 A 
ATOM     15  C   UNL     1     -16.199  -3.511  -4.883  0.00  0.00    +0.000 A 
ATOM     16  C   UNL     1     -16.384  -3.546  -6.263  0.00  0.00    +0.000 A 
ENDBRANCH  10  11
ENDBRANCH   1  10
TORSDOF 2
ENDMDL
MODEL 7
REMARK VINA RESULT:    -4.933     28.156     29.452
REMARK INTER + INTRA:          -5.498
REMARK INTER:                  -5.355
REMARK INTRA:                  -0.143
REMARK UNBOUND:                 0.012
REMARK  Name = 1550473
REMARK  2 active torsions:
REMARK  status: ('A' for Active; 'I' for Inactive)
REMARK    1  A    between atoms: N_1  and  C_4
REMARK    2  A    between atoms: C_4  and  C_5
REMARK                            x       y       z     vdW  Elec       q    Type
REMARK                         _______ _______ _______ _____ _____    ______ ____
ROOT
ATOM      1  N   UNL     1      12.278 -11.196   8.204  0.00  0.00    -0.354 N 
ATOM      2  N   UNL     1      10.916 -11.586   6.371  0.00  0.00    -0.372 N 
ATOM      3  N   UNL     1      12.704 -12.975   6.740  0.00  0.00    -0.372 N 
ATOM      4  C   UNL     1      11.977 -11.918   7.116  0.00  0.00    +0.166 C 
ATOM      5  H   UNL     1      11.704 -10.388   8.419  0.00  0.00    +0.163 HD
ATOM      6  H   UNL     1      10.662 -12.114   5.547  0.00  0.00    +0.159 HD
ATOM      7  H   UNL     1      10.318 -10.806   6.614  0.00  0.00    +0.159 HD
ATOM      8  H   UNL     1      13.521 -13.275   7.256  0.00  0.00    +0.159 HD
ATOM      9  H   UNL     1      12.474 -13.510   5.911  0.00  0.00    +0.159 HD
ENDROOT
BRANCH   1  10
ATOM     10  C   UNL     1      13.380 -11.506   9.113  0.00  0.00    +0.151 C 
BRANCH  10  11
ATOM     11  C   UNL     1      14.222 -10.275   9.302  0.00  0.00    -0.028 A 
ATOM     12  C   UNL     1      15.281 -10.271  10.222  0.00  0.00    +0.005 A 
ATOM     13  C   UNL     1      13.970  -9.111   8.560  0.00  0.00    +0.005 A 
ATOM     14  C   UNL     1      16.082  -9.137  10.376  0.00  0.00    +0.000 A 
ATOM     15  C   UNL     1      14.772  -7.981   8.717  0.00  0.00    +0.000 A 
ATOM     16  C   UNL     1      15.830  -7.995   9.623  0.00  0.00    +0.000 A 
ENDBRANCH  10  11
ENDBRANCH   1  10
TORSDOF 2
ENDMDL
MODEL 8
REMARK VINA RESULT:    -4.916      6.177      9.013
REMARK INTER + INTRA:          -5.479
REMARK INTER:                  -5.333
REMARK INTRA:                  -0.146
REMARK UNBOUND:                 0.012
REMARK  Name = 1550473
REMARK  2 active torsions:
REMARK  status: ('A' for Active; 'I' for Inactive)
REMARK    1  A    between atoms: N_1  and  C_4
REMARK    2  A    between atoms: C_4  and  C_5
REMARK                            x       y       z     vdW  Elec       q    Type
REMARK                         _______ _______ _______ _____ _____    ______ ____
ROOT
ATOM      1  N   UNL     1      -3.288  -3.322 -13.364  0.00  0.00    -0.354 N 
ATOM      2  N   UNL     1      -5.551  -3.341 -13.855  0.00  0.00    -0.372 N 
ATOM      3  N   UNL     1      -4.892  -3.394 -11.657  0.00  0.00    -0.372 N 
ATOM      4  C   UNL     1      -4.562  -3.353 -12.953  0.00  0.00    +0.166 C 
ATOM      5  H   UNL     1      -3.104  -3.322 -14.361  0.00  0.00    +0.163 HD
ATOM      6  H   UNL     1      -6.523  -3.360 -13.574  0.00  0.00    +0.159 HD
ATOM      7  H   UNL     1      -5.365  -3.295 -14.849  0.00  0.00    +0.159 HD
ATOM      8  H   UNL     1      -4.192  -3.411 -10.927  0.00  0.00    +0.159 HD
ATOM      9  H   UNL     1      -5.858  -3.425 -11.357  0.00  0.00    +0.159 HD
ENDROOT
BRANCH   1  10
ATOM     10  C   UNL     1      -2.138  -3.277 -12.463  0.00  0.00    +0.151 C 
BRANCH  10  11
ATOM     11  C   UNL     1      -1.310  -2.063 -12.782  0.00  0.00    -0.028 A 
ATOM     12  C   UNL     1      -0.353  -1.594 -11.871  0.00  0.00    +0.005 A 
ATOM     13  C   UNL     1      -1.475  -1.380 -13.997  0.00  0.00    +0.005 A 
ATOM     14  C   UNL     1       0.437  -0.484 -12.180  0.00  0.00    +0.000 A 
ATOM     15  C   UNL     1      -0.685  -0.272 -14.302  0.00  0.00    +0.000 A 
ATOM     16  C   UNL     1       0.273   0.174 -13.394  0.00  0.00    +0.000 A 
ENDBRANCH  10  11
ENDBRANCH   1  10
TORSDOF 2
ENDMDL
MODEL 9
REMARK VINA RESULT:    -4.852     31.442     32.340
REMARK INTER + INTRA:          -5.408
REMARK INTER:                  -5.298
REMARK INTRA:                  -0.110
REMARK UNBOUND:                 0.012
REMARK  Name = 1550473
REMARK  2 active torsions:
REMARK  status: ('A' for Active; 'I' for Inactive)
REMARK    1  A    between atoms: N_1  and  C_4
REMARK    2  A    between atoms: C_4  and  C_5
REMARK                            x       y       z     vdW  Elec       q    Type
REMARK                         _______ _______ _______ _____ _____    ______ ____
ROOT
ATOM      1  N   UNL     1      12.761  17.640  -5.929  0.00  0.00    -0.354 N 
ATOM      2  N   UNL     1      10.669  18.589  -6.227  0.00  0.00    -0.372 N 
ATOM      3  N   UNL     1      12.531  19.904  -6.485  0.00  0.00    -0.372 N 
ATOM      4  C   UNL     1      12.002  18.707  -6.212  0.00  0.00    +0.166 C 
ATOM      5  H   UNL     1      12.298  16.767  -5.701  0.00  0.00    +0.163 HD
ATOM      6  H   UNL     1      10.071  19.375  -6.440  0.00  0.00    +0.159 HD
ATOM      7  H   UNL     1      10.211  17.704  -6.043  0.00  0.00    +0.159 HD
ATOM      8  H   UNL     1      13.530  20.062  -6.485  0.00  0.00    +0.159 HD
ATOM      9  H   UNL     1      11.949  20.707  -6.690  0.00  0.00    +0.159 HD
ENDROOT
BRANCH   1  10
ATOM     10  C   UNL     1      14.223  17.649  -5.939  0.00  0.00    +0.151 C 
BRANCH  10  11
ATOM     11  C   UNL     1      14.721  16.270  -6.271  0.00  0.00    -0.028 A 
ATOM     12  C   UNL     1      15.410  15.512  -5.313  0.00  0.00    +0.005 A 
ATOM     13  C   UNL     1      14.502  15.712  -7.540  0.00  0.00    +0.005 A 
ATOM     14  C   UNL     1      15.846  14.219  -5.610  0.00  0.00    +0.000 A 
ATOM     15  C   UNL     1      14.940  14.421  -7.834  0.00  0.00    +0.000 A 
ATOM     16  C   UNL     1      15.610  13.674  -6.868  0.00  0.00    +0.000 A 
ENDBRANCH  10  11
ENDBRANCH   1  10
TORSDOF 2
ENDMDL
