MODEL 1
REMARK VINA RESULT:    -5.851      0.000      0.000
REMARK INTER + INTRA:          -6.680
REMARK INTER:                  -6.535
REMARK INTRA:                  -0.145
REMARK UNBOUND:                -0.145
REMARK  Name = 1550473
REMARK  2 active torsions:
REMARK  status: ('A' for Active; 'I' for Inactive)
REMARK    1  A    between atoms: N_1  and  C_4
REMARK    2  A    between atoms: C_4  and  C_5
REMARK                            x       y       z     vdW  Elec       q    Type
REMARK                         _______ _______ _______ _____ _____    ______ ____
ROOT
ATOM      1  N   UNL     1       3.267 -14.763   8.042  0.00  0.00    -0.354 N 
ATOM      2  N   UNL     1       3.795 -13.913  10.131  0.00  0.00    -0.372 N 
ATOM      3  N   UNL     1       4.488 -12.775   8.263  0.00  0.00    -0.372 N 
ATOM      4  C   UNL     1       3.848 -13.820   8.796  0.00  0.00    +0.166 C 
ATOM      5  H   UNL     1       2.823 -15.546   8.507  0.00  0.00    +0.163 HD
ATOM      6  H   UNL     1       4.221 -13.215  10.726  0.00  0.00    +0.159 HD
ATOM      7  H   UNL     1       3.311 -14.673  10.593  0.00  0.00    +0.159 HD
ATOM      8  H   UNL     1       4.569 -12.650   7.262  0.00  0.00    +0.159 HD
ATOM      9  H   UNL     1       4.931 -12.072   8.842  0.00  0.00    +0.159 HD
ENDROOT
BRANCH   1  10
ATOM     10  C   UNL     1       3.221 -14.727   6.581  0.00  0.00    +0.151 C 
BRANCH  10  11
ATOM     11  C   UNL     1       3.721 -16.039   6.042  0.00  0.00    -0.028 A 
ATOM     12  C   UNL     1       4.079 -17.077   6.915  0.00  0.00    +0.005 A 
ATOM     13  C   UNL     1       3.832 -16.253   4.660  0.00  0.00    +0.005 A 
ATOM     14  C   UNL     1       4.514 -18.307   6.414  0.00  0.00    +0.000 A 
ATOM     15  C   UNL     1       4.268 -17.481   4.164  0.00  0.00    +0.000 A 
ATOM     16  C   UNL     1       4.607 -18.509   5.041  0.00  0.00    +0.000 A 
ENDBRANCH  10  11
ENDBRANCH   1  10
TORSDOF 2
ENDMDL
MODEL 2
REMARK VINA RESULT:    -5.686     11.229     13.278
REMARK INTER + INTRA:          -6.496
REMARK INTER:                  -6.381
REMARK INTRA:                  -0.115
REMARK UNBOUND:                -0.145
REMARK  Name = 1550473
REMARK  2 active torsions:
REMARK  status: ('A' for Active; 'I' for Inactive)
REMARK    1  A    between atoms: N_1  and  C_4
REMARK    2  A    between atoms: C_4  and  C_5
REMARK                            x       y       z     vdW  Elec       q    Type
REMARK                         _______ _______ _______ _____ _____    ______ ____
ROOT
ATOM      1  N   UNL     1      11.906  -8.820  10.890  0.00  0.00    -0.354 N 
ATOM      2  N   UNL     1      10.066  -9.718   9.806  0.00  0.00    -0.372 N 
ATOM      3  N   UNL     1      10.863  -7.675   9.132  0.00  0.00    -0.372 N 
ATOM      4  C   UNL     1      10.957  -8.729   9.949  0.00  0.00    +0.166 C 
ATOM      5  H   UNL     1      11.905  -9.632  11.498  0.00  0.00    +0.163 HD
ATOM      6  H   UNL     1       9.342  -9.679   9.102  0.00  0.00    +0.159 HD
ATOM      7  H   UNL     1      10.096 -10.549  10.384  0.00  0.00    +0.159 HD
ATOM      8  H   UNL     1      11.501  -6.892   9.192  0.00  0.00    +0.159 HD
ATOM      9  H   UNL     1      10.137  -7.612   8.429  0.00  0.00    +0.159 HD
ENDROOT
BRANCH   1  10
ATOM     10  C   UNL     1      12.956  -7.824  11.092  0.00  0.00    +0.151 C 
BRANCH  10  11
ATOM     11  C   UNL     1      13.985  -8.379  12.038  0.00  0.00    -0.028 A 
ATOM     12  C   UNL     1      13.613  -9.284  13.043  0.00  0.00    +0.005 A 
ATOM     13  C   UNL     1      15.334  -8.009  11.930  0.00  0.00    +0.005 A 
ATOM     14  C   UNL     1      14.573  -9.823  13.903  0.00  0.00    +0.000 A 
ATOM     15  C   UNL     1      16.290  -8.549  12.791  0.00  0.00    +0.000 A 
ATOM     16  C   UNL     1      15.909  -9.457  13.776  0.00  0.00    +0.000 A 
ENDBRANCH  10  11
ENDBRANCH   1  10
TORSDOF 2
ENDMDL
MODEL 3
REMARK VINA RESULT:    -5.611     15.196     17.062
REMARK INTER + INTRA:          -6.412
REMARK INTER:                  -6.248
REMARK INTRA:                  -0.164
REMARK UNBOUND:                -0.145
REMARK  Name = 1550473
REMARK  2 active torsions:
REMARK  status: ('A' for Active; 'I' for Inactive)
REMARK    1  A    between atoms: N_1  and  C_4
REMARK    2  A    between atoms: C_4  and  C_5
REMARK                            x       y       z     vdW  Elec       q    Type
REMARK                         _______ _______ _______ _____ _____    ______ ____
ROOT
ATOM      1  N   UNL     1       0.249  -2.008   2.439  0.00  0.00    -0.354 N 
ATOM      2  N   UNL     1       0.195  -3.507   0.674  0.00  0.00    -0.372 N 
ATOM      3  N   UNL     1       2.222  -2.944   1.589  0.00  0.00    -0.372 N 
ATOM      4  C   UNL     1       0.892  -2.809   1.579  0.00  0.00    +0.166 C 
ATOM      5  H   UNL     1      -0.758  -1.927   2.360  0.00  0.00    +0.163 HD
ATOM      6  H   UNL     1       0.652  -4.122   0.015  0.00  0.00    +0.159 HD
ATOM      7  H   UNL     1      -0.816  -3.459   0.627  0.00  0.00    +0.159 HD
ATOM      8  H   UNL     1       2.806  -2.441   2.244  0.00  0.00    +0.159 HD
ATOM      9  H   UNL     1       2.699  -3.546   0.930  0.00  0.00    +0.159 HD
ENDROOT
BRANCH   1  10
ATOM     10  C   UNL     1       0.910  -1.247   3.498  0.00  0.00    +0.151 C 
BRANCH  10  11
ATOM     11  C   UNL     1       1.027   0.190   3.070  0.00  0.00    -0.028 A 
ATOM     12  C   UNL     1       2.119   0.617   2.301  0.00  0.00    +0.005 A 
ATOM     13  C   UNL     1       0.046   1.128   3.426  0.00  0.00    +0.005 A 
ATOM     14  C   UNL     1       2.214   1.945   1.879  0.00  0.00    +0.000 A 
ATOM     15  C   UNL     1       0.144   2.454   3.003  0.00  0.00    +0.000 A 
ATOM     16  C   UNL     1       1.227   2.861   2.227  0.00  0.00    +0.000 A 
ENDBRANCH  10  11
ENDBRANCH   1  10
TORSDOF 2
ENDMDL
MODEL 4
REMARK VINA RESULT:    -5.570     12.467     13.397
REMARK INTER + INTRA:          -6.366
REMARK INTER:                  -6.247
REMARK INTRA:                  -0.119
REMARK UNBOUND:                -0.145
REMARK  Name = 1550473
REMARK  2 active torsions:
REMARK  status: ('A' for Active; 'I' for Inactive)
REMARK    1  A    between atoms: N_1  and  C_4
REMARK    2  A    between atoms: C_4  and  C_5
REMARK                            x       y       z     vdW  Elec       q    Type
REMARK                         _______ _______ _______ _____ _____    ______ ____
ROOT
ATOM      1  N   UNL     1       3.116  -3.213   6.651  0.00  0.00    -0.354 N 
ATOM      2  N   UNL     1       4.709  -3.936   8.169  0.00  0.00    -0.372 N 
ATOM      3  N   UNL     1       2.565  -3.573   8.901  0.00  0.00    -0.372 N 
ATOM      4  C   UNL     1       3.451  -3.569   7.899  0.00  0.00    +0.166 C 
ATOM      5  H   UNL     1       3.840  -3.202   5.943  0.00  0.00    +0.163 HD
ATOM      6  H   UNL     1       4.991  -4.213   9.100  0.00  0.00    +0.159 HD
ATOM      7  H   UNL     1       5.421  -3.968   7.449  0.00  0.00    +0.159 HD
ATOM      8  H   UNL     1       1.600  -3.301   8.764  0.00  0.00    +0.159 HD
ATOM      9  H   UNL     1       2.830  -3.836   9.842  0.00  0.00    +0.159 HD
ENDROOT
BRANCH   1  10
ATOM     10  C   UNL     1       1.761  -2.849   6.241  0.00  0.00    +0.151 C 
BRANCH  10  11
ATOM     11  C   UNL     1       1.729  -2.681   4.747  0.00  0.00    -0.028 A 
ATOM     12  C   UNL     1       0.512  -2.735   4.051  0.00  0.00    +0.005 A 
ATOM     13  C   UNL     1       2.910  -2.463   4.022  0.00  0.00    +0.005 A 
ATOM     14  C   UNL     1       0.478  -2.549   2.666  0.00  0.00    +0.000 A 
ATOM     15  C   UNL     1       2.872  -2.278   2.640  0.00  0.00    +0.000 A 
ATOM     16  C   UNL     1       1.656  -2.319   1.963  0.00  0.00    +0.000 A 
ENDBRANCH  10  11
ENDBRANCH   1  10
TORSDOF 2
ENDMDL
MODEL 5
REMARK VINA RESULT:    -5.111     11.600     12.623
REMARK INTER + INTRA:          -5.853
REMARK INTER:                  -5.713
REMARK INTRA:                  -0.140
REMARK UNBOUND:                -0.145
REMARK  Name = 1550473
REMARK  2 active torsions:
REMARK  status: ('A' for Active; 'I' for Inactive)
REMARK    1  A    between atoms: N_1  and  C_4
REMARK    2  A    between atoms: C_4  and  C_5
REMARK                            x       y       z     vdW  Elec       q    Type
REMARK                         _______ _______ _______ _____ _____    ______ ____
ROOT
ATOM      1  N   UNL     1       4.512  -7.426  16.576  0.00  0.00    -0.354 N 
ATOM      2  N   UNL     1       5.685  -5.597  15.774  0.00  0.00    -0.372 N 
ATOM      3  N   UNL     1       4.507  -5.388  17.732  0.00  0.00    -0.372 N 
ATOM      4  C   UNL     1       4.892  -6.148  16.701  0.00  0.00    +0.166 C 
ATOM      5  H   UNL     1       4.813  -7.940  15.756  0.00  0.00    +0.163 HD
ATOM      6  H   UNL     1       5.991  -4.636  15.844  0.00  0.00    +0.159 HD
ATOM      7  H   UNL     1       6.022  -6.126  14.979  0.00  0.00    +0.159 HD
ATOM      8  H   UNL     1       3.904  -5.742  18.463  0.00  0.00    +0.159 HD
ATOM      9  H   UNL     1       4.794  -4.421  17.814  0.00  0.00    +0.159 HD
ENDROOT
BRANCH   1  10
ATOM     10  C   UNL     1       3.694  -8.137  17.558  0.00  0.00    +0.151 C 
BRANCH  10  11
ATOM     11  C   UNL     1       2.591  -8.867  16.843  0.00  0.00    -0.028 A 
ATOM     12  C   UNL     1       2.117 -10.094  17.329  0.00  0.00    +0.005 A 
ATOM     13  C   UNL     1       2.011  -8.334  15.681  0.00  0.00    +0.005 A 
ATOM     14  C   UNL     1       1.072 -10.758  16.682  0.00  0.00    +0.000 A 
ATOM     15  C   UNL     1       0.969  -9.000  15.037  0.00  0.00    +0.000 A 
ATOM     16  C   UNL     1       0.498 -10.211  15.540  0.00  0.00    +0.000 A 
ENDBRANCH  10  11
ENDBRANCH   1  10
TORSDOF 2
ENDMDL
MODEL 6
REMARK VINA RESULT:    -5.087      3.362      5.126
REMARK INTER + INTRA:          -5.827
REMARK INTER:                  -5.660
REMARK INTRA:                  -0.167
REMARK UNBOUND:                -0.145
REMARK  Name = 1550473
REMARK  2 active torsions:
REMARK  status: ('A' for Active; 'I' for Inactive)
REMARK    1  A    between atoms: N_1  and  C_4
REMARK    2  A    between atoms: C_4  and  C_5
REMARK                            x       y       z     vdW  Elec       q    Type
REMARK                         _______ _______ _______ _____ _____    ______ ____
ROOT
ATOM      1  N   UNL     1       3.108 -19.245   6.289  0.00  0.00    -0.354 N 
ATOM      2  N   UNL     1       1.180 -20.497   6.010  0.00  0.00    -0.372 N 
ATOM      3  N   UNL     1       1.935 -19.219   4.261  0.00  0.00    -0.372 N 
ATOM      4  C   UNL     1       2.087 -19.644   5.519  0.00  0.00    +0.166 C 
ATOM      5  H   UNL     1       3.150 -19.580   7.245  0.00  0.00    +0.163 HD
ATOM      6  H   UNL     1       0.401 -20.819   5.451  0.00  0.00    +0.159 HD
ATOM      7  H   UNL     1       1.250 -20.867   6.950  0.00  0.00    +0.159 HD
ATOM      8  H   UNL     1       2.582 -18.569   3.833  0.00  0.00    +0.159 HD
ATOM      9  H   UNL     1       1.155 -19.520   3.690  0.00  0.00    +0.159 HD
ENDROOT
BRANCH   1  10
ATOM     10  C   UNL     1       4.179 -18.360   5.833  0.00  0.00    +0.151 C 
BRANCH  10  11
ATOM     11  C   UNL     1       3.856 -16.949   6.240  0.00  0.00    -0.028 A 
ATOM     12  C   UNL     1       3.356 -16.034   5.301  0.00  0.00    +0.005 A 
ATOM     13  C   UNL     1       4.042 -16.521   7.563  0.00  0.00    +0.005 A 
ATOM     14  C   UNL     1       3.028 -14.732   5.684  0.00  0.00    +0.000 A 
ATOM     15  C   UNL     1       3.714 -15.219   7.942  0.00  0.00    +0.000 A 
ATOM     16  C   UNL     1       3.204 -14.326   7.003  0.00  0.00    +0.000 A 
ENDBRANCH  10  11
ENDBRANCH   1  10
TORSDOF 2
ENDMDL
MODEL 7
REMARK VINA RESULT:    -4.893      9.698     11.887
REMARK INTER + INTRA:          -5.610
REMARK INTER:                  -5.517
REMARK INTRA:                  -0.093
REMARK UNBOUND:                -0.145
REMARK  Name = 1550473
REMARK  2 active torsions:
REMARK  status: ('A' for Active; 'I' for Inactive)
REMARK    1  A    between atoms: N_1  and  C_4
REMARK    2  A    between atoms: C_4  and  C_5
REMARK                            x       y       z     vdW  Elec       q    Type
REMARK                         _______ _______ _______ _____ _____    ______ ____
ROOT
ATOM      1  N   UNL     1       2.312  -6.236   6.945  0.00  0.00    -0.354 N 
ATOM      2  N   UNL     1       3.378  -8.288   7.064  0.00  0.00    -0.372 N 
ATOM      3  N   UNL     1       2.149  -7.570   8.864  0.00  0.00    -0.372 N 
ATOM      4  C   UNL     1       2.605  -7.351   7.626  0.00  0.00    +0.166 C 
ATOM      5  H   UNL     1       2.713  -6.116   6.022  0.00  0.00    +0.163 HD
ATOM      6  H   UNL     1       3.613  -9.142   7.553  0.00  0.00    +0.159 HD
ATOM      7  H   UNL     1       3.740  -8.187   6.124  0.00  0.00    +0.159 HD
ATOM      8  H   UNL     1       1.566  -6.899   9.347  0.00  0.00    +0.159 HD
ATOM      9  H   UNL     1       2.383  -8.413   9.374  0.00  0.00    +0.159 HD
ENDROOT
BRANCH   1  10
ATOM     10  C   UNL     1       1.436  -5.178   7.445  0.00  0.00    +0.151 C 
BRANCH  10  11
ATOM     11  C   UNL     1       1.132  -4.221   6.325  0.00  0.00    -0.028 A 
ATOM     12  C   UNL     1      -0.144  -4.189   5.743  0.00  0.00    +0.005 A 
ATOM     13  C   UNL     1       2.113  -3.340   5.846  0.00  0.00    +0.005 A 
ATOM     14  C   UNL     1      -0.436  -3.280   4.723  0.00  0.00    +0.000 A 
ATOM     15  C   UNL     1       1.818  -2.434   4.827  0.00  0.00    +0.000 A 
ATOM     16  C   UNL     1       0.543  -2.403   4.268  0.00  0.00    +0.000 A 
ENDBRANCH  10  11
ENDBRANCH   1  10
TORSDOF 2
ENDMDL
MODEL 8
REMARK VINA RESULT:    -4.836      3.058      4.877
REMARK INTER + INTRA:          -5.546
REMARK INTER:                  -5.404
REMARK INTRA:                  -0.142
REMARK UNBOUND:                -0.145
REMARK  Name = 1550473
REMARK  2 active torsions:
REMARK  status: ('A' for Active; 'I' for Inactive)
REMARK    1  A    between atoms: N_1  and  C_4
REMARK    2  A    between atoms: C_4  and  C_5
REMARK                            x       y       z     vdW  Elec       q    Type
REMARK                         _______ _______ _______ _____ _____    ______ ____
ROOT
ATOM      1  N   UNL     1       2.870 -18.118   5.729  0.00  0.00    -0.354 N 
ATOM      2  N   UNL     1       1.420 -19.896   6.044  0.00  0.00    -0.372 N 
ATOM      3  N   UNL     1       3.677 -20.258   6.240  0.00  0.00    -0.372 N 
ATOM      4  C   UNL     1       2.668 -19.414   6.002  0.00  0.00    +0.166 C 
ATOM      5  H   UNL     1       2.065 -17.537   5.528  0.00  0.00    +0.163 HD
ATOM      6  H   UNL     1       1.236 -20.869   6.251  0.00  0.00    +0.159 HD
ATOM      7  H   UNL     1       0.614 -19.303   5.889  0.00  0.00    +0.159 HD
ATOM      8  H   UNL     1       4.643 -19.958   6.217  0.00  0.00    +0.159 HD
ATOM      9  H   UNL     1       3.514 -21.238   6.437  0.00  0.00    +0.159 HD
ENDROOT
BRANCH   1  10
ATOM     10  C   UNL     1       4.186 -17.482   5.712  0.00  0.00    +0.151 C 
BRANCH  10  11
ATOM     11  C   UNL     1       4.235 -16.425   6.781  0.00  0.00    -0.028 A 
ATOM     12  C   UNL     1       5.130 -16.539   7.854  0.00  0.00    +0.005 A 
ATOM     13  C   UNL     1       3.391 -15.305   6.723  0.00  0.00    +0.005 A 
ATOM     14  C   UNL     1       5.197 -15.542   8.831  0.00  0.00    +0.000 A 
ATOM     15  C   UNL     1       3.460 -14.313   7.701  0.00  0.00    +0.000 A 
ATOM     16  C   UNL     1       4.365 -14.431   8.753  0.00  0.00    +0.000 A 
ENDBRANCH  10  11
ENDBRANCH   1  10
TORSDOF 2
ENDMDL
MODEL 9
REMARK VINA RESULT:    -4.794     27.737     29.617
REMARK INTER + INTRA:          -5.499
REMARK INTER:                  -5.326
REMARK INTRA:                  -0.174
REMARK UNBOUND:                -0.145
REMARK  Name = 1550473
REMARK  2 active torsions:
REMARK  status: ('A' for Active; 'I' for Inactive)
REMARK    1  A    between atoms: N_1  and  C_4
REMARK    2  A    between atoms: C_4  and  C_5
REMARK                            x       y       z     vdW  Elec       q    Type
REMARK                         _______ _______ _______ _____ _____    ______ ____
ROOT
ATOM      1  N   UNL     1      14.260   9.693   2.357  0.00  0.00    -0.354 N 
ATOM      2  N   UNL     1      14.444   8.385   4.260  0.00  0.00    -0.372 N 
ATOM      3  N   UNL     1      12.359   9.037   3.559  0.00  0.00    -0.372 N 
ATOM      4  C   UNL     1      13.684   9.047   3.380  0.00  0.00    +0.166 C 
ATOM      5  H   UNL     1      15.272   9.688   2.293  0.00  0.00    +0.163 HD
ATOM      6  H   UNL     1      14.037   7.886   5.039  0.00  0.00    +0.159 HD
ATOM      7  H   UNL     1      15.452   8.343   4.168  0.00  0.00    +0.159 HD
ATOM      8  H   UNL     1      11.729   9.522   2.934  0.00  0.00    +0.159 HD
ATOM      9  H   UNL     1      11.933   8.553   4.340  0.00  0.00    +0.159 HD
ENDROOT
BRANCH   1  10
ATOM     10  C   UNL     1      13.519  10.399   1.314  0.00  0.00    +0.151 C 
BRANCH  10  11
ATOM     11  C   UNL     1      13.697  11.880   1.501  0.00  0.00    -0.028 A 
ATOM     12  C   UNL     1      12.882  12.588   2.397  0.00  0.00    +0.005 A 
ATOM     13  C   UNL     1      14.683  12.581   0.791  0.00  0.00    +0.005 A 
ATOM     14  C   UNL     1      13.066  13.958   2.594  0.00  0.00    +0.000 A 
ATOM     15  C   UNL     1      14.864  13.950   0.990  0.00  0.00    +0.000 A 
ATOM     16  C   UNL     1      14.057  14.637   1.893  0.00  0.00    +0.000 A 
ENDBRANCH  10  11
ENDBRANCH   1  10
TORSDOF 2
ENDMDL
