MODEL 1
REMARK VINA RESULT:    -5.350      0.000      0.000
REMARK INTER + INTRA:          -6.115
REMARK INTER:                  -5.975
REMARK INTRA:                  -0.140
REMARK UNBOUND:                -0.140
REMARK  Name = 1550473
REMARK  2 active torsions:
REMARK  status: ('A' for Active; 'I' for Inactive)
REMARK    1  A    between atoms: N_1  and  C_4
REMARK    2  A    between atoms: C_4  and  C_5
REMARK                            x       y       z     vdW  Elec       q    Type
REMARK                         _______ _______ _______ _____ _____    ______ ____
ROOT
ATOM      1  N   UNL     1       0.562 -11.048  -7.584  0.00  0.00    -0.354 N 
ATOM      2  N   UNL     1      -0.397 -12.764  -8.809  0.00  0.00    -0.372 N 
ATOM      3  N   UNL     1      -1.716 -11.557  -7.371  0.00  0.00    -0.372 N 
ATOM      4  C   UNL     1      -0.513 -11.777  -7.912  0.00  0.00    +0.166 C 
ATOM      5  H   UNL     1       1.452 -11.285  -8.008  0.00  0.00    +0.163 HD
ATOM      6  H   UNL     1      -1.191 -13.329  -9.079  0.00  0.00    +0.159 HD
ATOM      7  H   UNL     1       0.484 -12.969  -9.265  0.00  0.00    +0.159 HD
ATOM      8  H   UNL     1      -1.868 -10.831  -6.683  0.00  0.00    +0.159 HD
ATOM      9  H   UNL     1      -2.520 -12.119  -7.619  0.00  0.00    +0.159 HD
ENDROOT
BRANCH   1  10
ATOM     10  C   UNL     1       0.531  -9.917  -6.659  0.00  0.00    +0.151 C 
BRANCH  10  11
ATOM     11  C   UNL     1       1.114  -8.709  -7.339  0.00  0.00    -0.028 A 
ATOM     12  C   UNL     1       0.745  -7.417  -6.936  0.00  0.00    +0.005 A 
ATOM     13  C   UNL     1       2.040  -8.850  -8.384  0.00  0.00    +0.005 A 
ATOM     14  C   UNL     1       1.308  -6.295  -7.548  0.00  0.00    +0.000 A 
ATOM     15  C   UNL     1       2.600  -7.726  -8.993  0.00  0.00    +0.000 A 
ATOM     16  C   UNL     1       2.236  -6.449  -8.573  0.00  0.00    +0.000 A 
ENDBRANCH  10  11
ENDBRANCH   1  10
TORSDOF 2
ENDMDL
MODEL 2
REMARK VINA RESULT:    -5.281     17.734     18.892
REMARK INTER + INTRA:          -6.039
REMARK INTER:                  -5.904
REMARK INTRA:                  -0.135
REMARK UNBOUND:                -0.140
REMARK  Name = 1550473
REMARK  2 active torsions:
REMARK  status: ('A' for Active; 'I' for Inactive)
REMARK    1  A    between atoms: N_1  and  C_4
REMARK    2  A    between atoms: C_4  and  C_5
REMARK                            x       y       z     vdW  Elec       q    Type
REMARK                         _______ _______ _______ _____ _____    ______ ____
ROOT
ATOM      1  N   UNL     1      -3.461  -1.337   8.889  0.00  0.00    -0.354 N 
ATOM      2  N   UNL     1      -2.937  -3.539   9.384  0.00  0.00    -0.372 N 
ATOM      3  N   UNL     1      -1.862  -1.860  10.520  0.00  0.00    -0.372 N 
ATOM      4  C   UNL     1      -2.755  -2.230   9.596  0.00  0.00    +0.166 C 
ATOM      5  H   UNL     1      -4.101  -1.681   8.182  0.00  0.00    +0.163 HD
ATOM      6  H   UNL     1      -2.421  -4.235   9.905  0.00  0.00    +0.159 HD
ATOM      7  H   UNL     1      -3.610  -3.880   8.709  0.00  0.00    +0.159 HD
ATOM      8  H   UNL     1      -1.673  -0.888  10.724  0.00  0.00    +0.159 HD
ATOM      9  H   UNL     1      -1.327  -2.542  11.043  0.00  0.00    +0.159 HD
ENDROOT
BRANCH   1  10
ATOM     10  C   UNL     1      -3.377   0.109   9.081  0.00  0.00    +0.151 C 
BRANCH  10  11
ATOM     11  C   UNL     1      -3.542   0.792   7.751  0.00  0.00    -0.028 A 
ATOM     12  C   UNL     1      -3.538   0.046   6.563  0.00  0.00    +0.005 A 
ATOM     13  C   UNL     1      -3.708   2.183   7.673  0.00  0.00    +0.005 A 
ATOM     14  C   UNL     1      -3.721   0.676   5.330  0.00  0.00    +0.000 A 
ATOM     15  C   UNL     1      -3.890   2.808   6.439  0.00  0.00    +0.000 A 
ATOM     16  C   UNL     1      -3.899   2.054   5.268  0.00  0.00    +0.000 A 
ENDBRANCH  10  11
ENDBRANCH   1  10
TORSDOF 2
ENDMDL
MODEL 3
REMARK VINA RESULT:    -5.187     10.325     11.291
REMARK INTER + INTRA:          -5.934
REMARK INTER:                  -5.753
REMARK INTRA:                  -0.180
REMARK UNBOUND:                -0.140
REMARK  Name = 1550473
REMARK  2 active torsions:
REMARK  status: ('A' for Active; 'I' for Inactive)
REMARK    1  A    between atoms: N_1  and  C_4
REMARK    2  A    between atoms: C_4  and  C_5
REMARK                            x       y       z     vdW  Elec       q    Type
REMARK                         _______ _______ _______ _____ _____    ______ ____
ROOT
ATOM      1  N   UNL     1       8.118 -11.416  -1.480  0.00  0.00    -0.354 N 
ATOM      2  N   UNL     1       6.714 -11.515  -3.319  0.00  0.00    -0.372 N 
ATOM      3  N   UNL     1       7.030  -9.498  -2.272  0.00  0.00    -0.372 N 
ATOM      4  C   UNL     1       7.296 -10.806  -2.344  0.00  0.00    +0.166 C 
ATOM      5  H   UNL     1       8.255 -12.417  -1.570  0.00  0.00    +0.163 HD
ATOM      6  H   UNL     1       6.093 -11.081  -3.989  0.00  0.00    +0.159 HD
ATOM      7  H   UNL     1       6.889 -12.506  -3.435  0.00  0.00    +0.159 HD
ATOM      8  H   UNL     1       7.433  -8.908  -1.556  0.00  0.00    +0.159 HD
ATOM      9  H   UNL     1       6.401  -9.048  -2.925  0.00  0.00    +0.159 HD
ENDROOT
BRANCH   1  10
ATOM     10  C   UNL     1       8.843 -10.726  -0.415  0.00  0.00    +0.151 C 
BRANCH  10  11
ATOM     11  C   UNL     1       8.157 -10.989   0.897  0.00  0.00    -0.028 A 
ATOM     12  C   UNL     1       7.238 -10.067   1.417  0.00  0.00    +0.005 A 
ATOM     13  C   UNL     1       8.419 -12.161   1.623  0.00  0.00    +0.005 A 
ATOM     14  C   UNL     1       6.578 -10.324   2.621  0.00  0.00    +0.000 A 
ATOM     15  C   UNL     1       7.759 -12.415   2.825  0.00  0.00    +0.000 A 
ATOM     16  C   UNL     1       6.836 -11.497   3.323  0.00  0.00    +0.000 A 
ENDBRANCH  10  11
ENDBRANCH   1  10
TORSDOF 2
ENDMDL
MODEL 4
REMARK VINA RESULT:    -5.004     11.523     12.185
REMARK INTER + INTRA:          -5.729
REMARK INTER:                  -5.607
REMARK INTRA:                  -0.122
REMARK UNBOUND:                -0.140
REMARK  Name = 1550473
REMARK  2 active torsions:
REMARK  status: ('A' for Active; 'I' for Inactive)
REMARK    1  A    between atoms: N_1  and  C_4
REMARK    2  A    between atoms: C_4  and  C_5
REMARK                            x       y       z     vdW  Elec       q    Type
REMARK                         _______ _______ _______ _____ _____    ______ ____
ROOT
ATOM      1  N   UNL     1       7.538 -11.901   3.148  0.00  0.00    -0.354 N 
ATOM      2  N   UNL     1       8.055 -13.327   4.899  0.00  0.00    -0.372 N 
ATOM      3  N   UNL     1       6.610 -11.586   5.277  0.00  0.00    -0.372 N 
ATOM      4  C   UNL     1       7.396 -12.260   4.431  0.00  0.00    +0.166 C 
ATOM      5  H   UNL     1       8.173 -12.435   2.566  0.00  0.00    +0.163 HD
ATOM      6  H   UNL     1       7.965 -13.624   5.861  0.00  0.00    +0.159 HD
ATOM      7  H   UNL     1       8.653 -13.886   4.303  0.00  0.00    +0.159 HD
ATOM      8  H   UNL     1       6.090 -10.768   4.988  0.00  0.00    +0.159 HD
ATOM      9  H   UNL     1       6.516 -11.860   6.247  0.00  0.00    +0.159 HD
ENDROOT
BRANCH   1  10
ATOM     10  C   UNL     1       6.823 -10.787   2.527  0.00  0.00    +0.151 C 
BRANCH  10  11
ATOM     11  C   UNL     1       7.298 -10.628   1.109  0.00  0.00    -0.028 A 
ATOM     12  C   UNL     1       6.906  -9.518   0.347  0.00  0.00    +0.005 A 
ATOM     13  C   UNL     1       8.147 -11.581   0.524  0.00  0.00    +0.005 A 
ATOM     14  C   UNL     1       7.371  -9.355  -0.960  0.00  0.00    +0.000 A 
ATOM     15  C   UNL     1       8.609 -11.414  -0.781  0.00  0.00    +0.000 A 
ATOM     16  C   UNL     1       8.223 -10.300  -1.522  0.00  0.00    +0.000 A 
ENDBRANCH  10  11
ENDBRANCH   1  10
TORSDOF 2
ENDMDL
MODEL 5
REMARK VINA RESULT:    -4.939     19.546     20.731
REMARK INTER + INTRA:          -5.656
REMARK INTER:                  -5.529
REMARK INTRA:                  -0.127
REMARK UNBOUND:                -0.140
REMARK  Name = 1550473
REMARK  2 active torsions:
REMARK  status: ('A' for Active; 'I' for Inactive)
REMARK    1  A    between atoms: N_1  and  C_4
REMARK    2  A    between atoms: C_4  and  C_5
REMARK                            x       y       z     vdW  Elec       q    Type
REMARK                         _______ _______ _______ _____ _____    ______ ____
ROOT
ATOM      1  N   UNL     1      -3.859   0.908   7.708  0.00  0.00    -0.354 N 
ATOM      2  N   UNL     1      -4.274  -0.927   6.357  0.00  0.00    -0.372 N 
ATOM      3  N   UNL     1      -3.532  -1.273   8.501  0.00  0.00    -0.372 N 
ATOM      4  C   UNL     1      -3.885  -0.420   7.533  0.00  0.00    +0.166 C 
ATOM      5  H   UNL     1      -4.110   1.501   6.925  0.00  0.00    +0.163 HD
ATOM      6  H   UNL     1      -4.307  -1.925   6.197  0.00  0.00    +0.159 HD
ATOM      7  H   UNL     1      -4.568  -0.333   5.592  0.00  0.00    +0.159 HD
ATOM      8  H   UNL     1      -3.223  -0.954   9.409  0.00  0.00    +0.159 HD
ATOM      9  H   UNL     1      -3.547  -2.275   8.356  0.00  0.00    +0.159 HD
ENDROOT
BRANCH   1  10
ATOM     10  C   UNL     1      -3.502   1.560   8.966  0.00  0.00    +0.151 C 
BRANCH  10  11
ATOM     11  C   UNL     1      -4.033   2.967   8.958  0.00  0.00    -0.028 A 
ATOM     12  C   UNL     1      -4.819   3.425   7.890  0.00  0.00    +0.005 A 
ATOM     13  C   UNL     1      -3.758   3.846  10.017  0.00  0.00    +0.005 A 
ATOM     14  C   UNL     1      -5.337   4.723   7.896  0.00  0.00    +0.000 A 
ATOM     15  C   UNL     1      -4.277   5.140  10.019  0.00  0.00    +0.000 A 
ATOM     16  C   UNL     1      -5.068   5.578   8.960  0.00  0.00    +0.000 A 
ENDBRANCH  10  11
ENDBRANCH   1  10
TORSDOF 2
ENDMDL
MODEL 6
REMARK VINA RESULT:    -4.928     18.268     19.500
REMARK INTER + INTRA:          -5.645
REMARK INTER:                  -5.503
REMARK INTRA:                  -0.142
REMARK UNBOUND:                -0.140
REMARK  Name = 1550473
REMARK  2 active torsions:
REMARK  status: ('A' for Active; 'I' for Inactive)
REMARK    1  A    between atoms: N_1  and  C_4
REMARK    2  A    between atoms: C_4  and  C_5
REMARK                            x       y       z     vdW  Elec       q    Type
REMARK                         _______ _______ _______ _____ _____    ______ ____
ROOT
ATOM      1  N   UNL     1      -3.324   2.038   5.738  0.00  0.00    -0.354 N 
ATOM      2  N   UNL     1      -2.646   0.715   3.962  0.00  0.00    -0.372 N 
ATOM      3  N   UNL     1      -4.544   0.136   5.116  0.00  0.00    -0.372 N 
ATOM      4  C   UNL     1      -3.511   0.970   4.951  0.00  0.00    +0.166 C 
ATOM      5  H   UNL     1      -2.505   2.614   5.581  0.00  0.00    +0.163 HD
ATOM      6  H   UNL     1      -2.764  -0.081   3.350  0.00  0.00    +0.159 HD
ATOM      7  H   UNL     1      -1.854   1.318   3.778  0.00  0.00    +0.159 HD
ATOM      8  H   UNL     1      -5.229   0.270   5.847  0.00  0.00    +0.159 HD
ATOM      9  H   UNL     1      -4.672  -0.673   4.521  0.00  0.00    +0.159 HD
ENDROOT
BRANCH   1  10
ATOM     10  C   UNL     1      -4.237   2.435   6.809  0.00  0.00    +0.151 C 
BRANCH  10  11
ATOM     11  C   UNL     1      -3.654   2.017   8.131  0.00  0.00    -0.028 A 
ATOM     12  C   UNL     1      -2.986   2.948   8.940  0.00  0.00    +0.005 A 
ATOM     13  C   UNL     1      -3.772   0.694   8.583  0.00  0.00    +0.005 A 
ATOM     14  C   UNL     1      -2.470   2.568  10.181  0.00  0.00    +0.000 A 
ATOM     15  C   UNL     1      -3.255   0.318   9.823  0.00  0.00    +0.000 A 
ATOM     16  C   UNL     1      -2.606   1.256  10.623  0.00  0.00    +0.000 A 
ENDBRANCH  10  11
ENDBRANCH   1  10
TORSDOF 2
ENDMDL
MODEL 7
REMARK VINA RESULT:    -4.828     18.890     20.115
REMARK INTER + INTRA:          -5.532
REMARK INTER:                  -5.400
REMARK INTRA:                  -0.132
REMARK UNBOUND:                -0.140
REMARK  Name = 1550473
REMARK  2 active torsions:
REMARK  status: ('A' for Active; 'I' for Inactive)
REMARK    1  A    between atoms: N_1  and  C_4
REMARK    2  A    between atoms: C_4  and  C_5
REMARK                            x       y       z     vdW  Elec       q    Type
REMARK                         _______ _______ _______ _____ _____    ______ ____
ROOT
ATOM      1  N   UNL     1      -4.136   1.753   5.961  0.00  0.00    -0.354 N 
ATOM      2  N   UNL     1      -2.866   0.748   4.306  0.00  0.00    -0.372 N 
ATOM      3  N   UNL     1      -3.974  -0.580   5.815  0.00  0.00    -0.372 N 
ATOM      4  C   UNL     1      -3.668   0.645   5.373  0.00  0.00    +0.166 C 
ATOM      5  H   UNL     1      -3.843   2.652   5.597  0.00  0.00    +0.163 HD
ATOM      6  H   UNL     1      -2.500  -0.071   3.840  0.00  0.00    +0.159 HD
ATOM      7  H   UNL     1      -2.611   1.647   3.916  0.00  0.00    +0.159 HD
ATOM      8  H   UNL     1      -4.569  -0.726   6.619  0.00  0.00    +0.159 HD
ATOM      9  H   UNL     1      -3.607  -1.411   5.368  0.00  0.00    +0.159 HD
ENDROOT
BRANCH   1  10
ATOM     10  C   UNL     1      -5.059   1.750   7.095  0.00  0.00    +0.151 C 
BRANCH  10  11
ATOM     11  C   UNL     1      -4.558   2.710   8.139  0.00  0.00    -0.028 A 
ATOM     12  C   UNL     1      -3.430   2.398   8.912  0.00  0.00    +0.005 A 
ATOM     13  C   UNL     1      -5.204   3.937   8.355  0.00  0.00    +0.005 A 
ATOM     14  C   UNL     1      -2.947   3.303   9.860  0.00  0.00    +0.000 A 
ATOM     15  C   UNL     1      -4.719   4.838   9.304  0.00  0.00    +0.000 A 
ATOM     16  C   UNL     1      -3.589   4.521  10.054  0.00  0.00    +0.000 A 
ENDBRANCH  10  11
ENDBRANCH   1  10
TORSDOF 2
ENDMDL
MODEL 8
REMARK VINA RESULT:    -4.612     19.657     20.803
REMARK INTER + INTRA:          -5.292
REMARK INTER:                  -5.152
REMARK INTRA:                  -0.140
REMARK UNBOUND:                -0.140
REMARK  Name = 1550473
REMARK  2 active torsions:
REMARK  status: ('A' for Active; 'I' for Inactive)
REMARK    1  A    between atoms: N_1  and  C_4
REMARK    2  A    between atoms: C_4  and  C_5
REMARK                            x       y       z     vdW  Elec       q    Type
REMARK                         _______ _______ _______ _____ _____    ______ ____
ROOT
ATOM      1  N   UNL     1      -3.397  -0.903  10.181  0.00  0.00    -0.354 N 
ATOM      2  N   UNL     1      -2.995  -3.055   9.427  0.00  0.00    -0.372 N 
ATOM      3  N   UNL     1      -1.344  -1.959  10.583  0.00  0.00    -0.372 N 
ATOM      4  C   UNL     1      -2.579  -1.958  10.070  0.00  0.00    +0.166 C 
ATOM      5  H   UNL     1      -4.310  -0.953   9.744  0.00  0.00    +0.163 HD
ATOM      6  H   UNL     1      -2.401  -3.868   9.330  0.00  0.00    +0.159 HD
ATOM      7  H   UNL     1      -3.925  -3.120   9.031  0.00  0.00    +0.159 HD
ATOM      8  H   UNL     1      -0.967  -1.160  11.074  0.00  0.00    +0.159 HD
ATOM      9  H   UNL     1      -0.730  -2.759  10.485  0.00  0.00    +0.159 HD
ENDROOT
BRANCH   1  10
ATOM     10  C   UNL     1      -3.059   0.320  10.908  0.00  0.00    +0.151 C 
BRANCH  10  11
ATOM     11  C   UNL     1      -3.484   1.509  10.091  0.00  0.00    -0.028 A 
ATOM     12  C   UNL     1      -3.700   1.385   8.711  0.00  0.00    +0.005 A 
ATOM     13  C   UNL     1      -3.679   2.762  10.693  0.00  0.00    +0.005 A 
ATOM     14  C   UNL     1      -4.124   2.482   7.957  0.00  0.00    +0.000 A 
ATOM     15  C   UNL     1      -4.101   3.855   9.937  0.00  0.00    +0.000 A 
ATOM     16  C   UNL     1      -4.326   3.714   8.570  0.00  0.00    +0.000 A 
ENDBRANCH  10  11
ENDBRANCH   1  10
TORSDOF 2
ENDMDL
MODEL 9
REMARK VINA RESULT:    -4.450     12.011     12.662
REMARK INTER + INTRA:          -5.111
REMARK INTER:                  -5.038
REMARK INTRA:                  -0.073
REMARK UNBOUND:                -0.140
REMARK  Name = 1550473
REMARK  2 active torsions:
REMARK  status: ('A' for Active; 'I' for Inactive)
REMARK    1  A    between atoms: N_1  and  C_4
REMARK    2  A    between atoms: C_4  and  C_5
REMARK                            x       y       z     vdW  Elec       q    Type
REMARK                         _______ _______ _______ _____ _____    ______ ____
ROOT
ATOM      1  N   UNL     1       7.482 -13.136   4.167  0.00  0.00    -0.354 N 
ATOM      2  N   UNL     1       7.294 -15.443   4.074  0.00  0.00    -0.372 N 
ATOM      3  N   UNL     1       5.413 -14.164   3.772  0.00  0.00    -0.372 N 
ATOM      4  C   UNL     1       6.728 -14.232   4.005  0.00  0.00    +0.166 C 
ATOM      5  H   UNL     1       8.467 -13.256   4.371  0.00  0.00    +0.163 HD
ATOM      6  H   UNL     1       6.751 -16.287   3.953  0.00  0.00    +0.159 HD
ATOM      7  H   UNL     1       8.287 -15.558   4.232  0.00  0.00    +0.159 HD
ATOM      8  H   UNL     1       4.924 -13.280   3.714  0.00  0.00    +0.159 HD
ATOM      9  H   UNL     1       4.851 -14.998   3.659  0.00  0.00    +0.159 HD
ENDROOT
BRANCH   1  10
ATOM     10  C   UNL     1       6.973 -11.770   4.057  0.00  0.00    +0.151 C 
BRANCH  10  11
ATOM     11  C   UNL     1       7.278 -11.242   2.682  0.00  0.00    -0.028 A 
ATOM     12  C   UNL     1       6.724 -10.029   2.247  0.00  0.00    +0.005 A 
ATOM     13  C   UNL     1       8.124 -11.947   1.813  0.00  0.00    +0.005 A 
ATOM     14  C   UNL     1       7.030  -9.523   0.981  0.00  0.00    +0.000 A 
ATOM     15  C   UNL     1       8.426 -11.439   0.549  0.00  0.00    +0.000 A 
ATOM     16  C   UNL     1       7.881 -10.226   0.135  0.00  0.00    +0.000 A 
ENDBRANCH  10  11
ENDBRANCH   1  10
TORSDOF 2
ENDMDL
