MODEL 1
REMARK VINA RESULT:    -5.015      0.000      0.000
REMARK INTER + INTRA:          -5.698
REMARK INTER:                  -5.601
REMARK INTRA:                  -0.097
REMARK UNBOUND:                -0.097
REMARK  Name = 1550473
REMARK  2 active torsions:
REMARK  status: ('A' for Active; 'I' for Inactive)
REMARK    1  A    between atoms: N_1  and  C_4
REMARK    2  A    between atoms: C_4  and  C_5
REMARK                            x       y       z     vdW  Elec       q    Type
REMARK                         _______ _______ _______ _____ _____    ______ ____
ROOT
ATOM      1  N   UNL     1      -1.332 -11.612   8.437  0.00  0.00    -0.354 N 
ATOM      2  N   UNL     1      -0.184 -12.839  10.031  0.00  0.00    -0.372 N 
ATOM      3  N   UNL     1       0.952 -12.073   8.191  0.00  0.00    -0.372 N 
ATOM      4  C   UNL     1      -0.193 -12.166   8.874  0.00  0.00    +0.166 C 
ATOM      5  H   UNL     1      -2.174 -11.745   8.986  0.00  0.00    +0.163 HD
ATOM      6  H   UNL     1       0.661 -13.265  10.388  0.00  0.00    +0.159 HD
ATOM      7  H   UNL     1      -1.017 -12.931  10.600  0.00  0.00    +0.159 HD
ATOM      8  H   UNL     1       1.011 -11.583   7.308  0.00  0.00    +0.159 HD
ATOM      9  H   UNL     1       1.806 -12.502   8.526  0.00  0.00    +0.159 HD
ENDROOT
BRANCH   1  10
ATOM     10  C   UNL     1      -1.437 -10.813   7.217  0.00  0.00    +0.151 C 
BRANCH  10  11
ATOM     11  C   UNL     1      -2.807 -10.196   7.150  0.00  0.00    -0.028 A 
ATOM     12  C   UNL     1      -3.946 -11.004   7.015  0.00  0.00    +0.005 A 
ATOM     13  C   UNL     1      -2.973  -8.805   7.228  0.00  0.00    +0.005 A 
ATOM     14  C   UNL     1      -5.221 -10.433   6.983  0.00  0.00    +0.000 A 
ATOM     15  C   UNL     1      -4.248  -8.239   7.195  0.00  0.00    +0.000 A 
ATOM     16  C   UNL     1      -5.371  -9.054   7.075  0.00  0.00    +0.000 A 
ENDBRANCH  10  11
ENDBRANCH   1  10
TORSDOF 2
ENDMDL
MODEL 2
REMARK VINA RESULT:    -4.946      9.699     10.397
REMARK INTER + INTRA:          -5.621
REMARK INTER:                  -5.519
REMARK INTRA:                  -0.102
REMARK UNBOUND:                -0.097
REMARK  Name = 1550473
REMARK  2 active torsions:
REMARK  status: ('A' for Active; 'I' for Inactive)
REMARK    1  A    between atoms: N_1  and  C_4
REMARK    2  A    between atoms: C_4  and  C_5
REMARK                            x       y       z     vdW  Elec       q    Type
REMARK                         _______ _______ _______ _____ _____    ______ ____
ROOT
ATOM      1  N   UNL     1      -6.849  -2.296   5.890  0.00  0.00    -0.354 N 
ATOM      2  N   UNL     1      -6.104  -2.427   8.079  0.00  0.00    -0.372 N 
ATOM      3  N   UNL     1      -8.355  -2.217   7.684  0.00  0.00    -0.372 N 
ATOM      4  C   UNL     1      -7.110  -2.312   7.204  0.00  0.00    +0.166 C 
ATOM      5  H   UNL     1      -5.881  -2.341   5.591  0.00  0.00    +0.163 HD
ATOM      6  H   UNL     1      -6.271  -2.445   9.076  0.00  0.00    +0.159 HD
ATOM      7  H   UNL     1      -5.142  -2.518   7.776  0.00  0.00    +0.159 HD
ATOM      8  H   UNL     1      -9.157  -2.122   7.076  0.00  0.00    +0.159 HD
ATOM      9  H   UNL     1      -8.541  -2.222   8.679  0.00  0.00    +0.159 HD
ENDROOT
BRANCH   1  10
ATOM     10  C   UNL     1      -7.877  -2.229   4.853  0.00  0.00    +0.151 C 
BRANCH  10  11
ATOM     11  C   UNL     1      -7.298  -2.722   3.555  0.00  0.00    -0.028 A 
ATOM     12  C   UNL     1      -6.143  -2.132   3.021  0.00  0.00    +0.005 A 
ATOM     13  C   UNL     1      -7.897  -3.782   2.858  0.00  0.00    +0.005 A 
ATOM     14  C   UNL     1      -5.588  -2.609   1.831  0.00  0.00    +0.000 A 
ATOM     15  C   UNL     1      -7.340  -4.255   1.670  0.00  0.00    +0.000 A 
ATOM     16  C   UNL     1      -6.185  -3.670   1.158  0.00  0.00    +0.000 A 
ENDBRANCH  10  11
ENDBRANCH   1  10
TORSDOF 2
ENDMDL
MODEL 3
REMARK VINA RESULT:    -4.871      2.852      5.169
REMARK INTER + INTRA:          -5.538
REMARK INTER:                  -5.421
REMARK INTRA:                  -0.117
REMARK UNBOUND:                -0.097
REMARK  Name = 1550473
REMARK  2 active torsions:
REMARK  status: ('A' for Active; 'I' for Inactive)
REMARK    1  A    between atoms: N_1  and  C_4
REMARK    2  A    between atoms: C_4  and  C_5
REMARK                            x       y       z     vdW  Elec       q    Type
REMARK                         _______ _______ _______ _____ _____    ______ ____
ROOT
ATOM      1  N   UNL     1      -3.244  -9.632   6.255  0.00  0.00    -0.354 N 
ATOM      2  N   UNL     1      -4.793  -9.119   4.612  0.00  0.00    -0.372 N 
ATOM      3  N   UNL     1      -5.142  -8.348   6.744  0.00  0.00    -0.372 N 
ATOM      4  C   UNL     1      -4.384  -9.035   5.883  0.00  0.00    +0.166 C 
ATOM      5  H   UNL     1      -2.730 -10.163   5.561  0.00  0.00    +0.163 HD
ATOM      6  H   UNL     1      -5.647  -8.676   4.301  0.00  0.00    +0.159 HD
ATOM      7  H   UNL     1      -4.254  -9.612   3.910  0.00  0.00    +0.159 HD
ATOM      8  H   UNL     1      -4.893  -8.253   7.720  0.00  0.00    +0.159 HD
ATOM      9  H   UNL     1      -6.007  -7.908   6.455  0.00  0.00    +0.159 HD
ENDROOT
BRANCH   1  10
ATOM     10  C   UNL     1      -2.683  -9.556   7.603  0.00  0.00    +0.151 C 
BRANCH  10  11
ATOM     11  C   UNL     1      -1.916 -10.818   7.887  0.00  0.00    -0.028 A 
ATOM     12  C   UNL     1      -1.183 -11.450   6.872  0.00  0.00    +0.005 A 
ATOM     13  C   UNL     1      -1.913 -11.383   9.172  0.00  0.00    +0.005 A 
ATOM     14  C   UNL     1      -0.446 -12.605   7.143  0.00  0.00    +0.000 A 
ATOM     15  C   UNL     1      -1.177 -12.537   9.438  0.00  0.00    +0.000 A 
ATOM     16  C   UNL     1      -0.441 -13.146   8.425  0.00  0.00    +0.000 A 
ENDBRANCH  10  11
ENDBRANCH   1  10
TORSDOF 2
ENDMDL
MODEL 4
REMARK VINA RESULT:    -4.829      8.715      9.539
REMARK INTER + INTRA:          -5.491
REMARK INTER:                  -5.391
REMARK INTRA:                  -0.099
REMARK UNBOUND:                -0.097
REMARK  Name = 1550473
REMARK  2 active torsions:
REMARK  status: ('A' for Active; 'I' for Inactive)
REMARK    1  A    between atoms: N_1  and  C_4
REMARK    2  A    between atoms: C_4  and  C_5
REMARK                            x       y       z     vdW  Elec       q    Type
REMARK                         _______ _______ _______ _____ _____    ______ ____
ROOT
ATOM      1  N   UNL     1      -0.949  -3.822  13.142  0.00  0.00    -0.354 N 
ATOM      2  N   UNL     1       0.716  -5.335  12.590  0.00  0.00    -0.372 N 
ATOM      3  N   UNL     1       1.314  -3.278  13.414  0.00  0.00    -0.372 N 
ATOM      4  C   UNL     1       0.351  -4.133  13.053  0.00  0.00    +0.166 C 
ATOM      5  H   UNL     1      -1.629  -4.502  12.824  0.00  0.00    +0.163 HD
ATOM      6  H   UNL     1       1.689  -5.599  12.515  0.00  0.00    +0.159 HD
ATOM      7  H   UNL     1       0.032  -6.030  12.316  0.00  0.00    +0.159 HD
ATOM      8  H   UNL     1       1.106  -2.353  13.765  0.00  0.00    +0.159 HD
ATOM      9  H   UNL     1       2.294  -3.520  13.334  0.00  0.00    +0.159 HD
ENDROOT
BRANCH   1  10
ATOM     10  C   UNL     1      -1.453  -2.561  13.683  0.00  0.00    +0.151 C 
BRANCH  10  11
ATOM     11  C   UNL     1      -2.948  -2.521  13.525  0.00  0.00    -0.028 A 
ATOM     12  C   UNL     1      -3.781  -2.453  14.651  0.00  0.00    +0.005 A 
ATOM     13  C   UNL     1      -3.537  -2.545  12.252  0.00  0.00    +0.005 A 
ATOM     14  C   UNL     1      -5.169  -2.385  14.504  0.00  0.00    +0.000 A 
ATOM     15  C   UNL     1      -4.923  -2.479  12.109  0.00  0.00    +0.000 A 
ATOM     16  C   UNL     1      -5.738  -2.396  13.235  0.00  0.00    +0.000 A 
ENDBRANCH  10  11
ENDBRANCH   1  10
TORSDOF 2
ENDMDL
MODEL 5
REMARK VINA RESULT:    -4.768     22.317     22.728
REMARK INTER + INTRA:          -5.422
REMARK INTER:                  -5.247
REMARK INTRA:                  -0.175
REMARK UNBOUND:                -0.097
REMARK  Name = 1550473
REMARK  2 active torsions:
REMARK  status: ('A' for Active; 'I' for Inactive)
REMARK    1  A    between atoms: N_1  and  C_4
REMARK    2  A    between atoms: C_4  and  C_5
REMARK                            x       y       z     vdW  Elec       q    Type
REMARK                         _______ _______ _______ _____ _____    ______ ____
ROOT
ATOM      1  N   UNL     1       1.029 -13.341 -13.770  0.00  0.00    -0.354 N 
ATOM      2  N   UNL     1       1.095 -14.251 -11.641  0.00  0.00    -0.372 N 
ATOM      3  N   UNL     1       0.381 -15.560 -13.385  0.00  0.00    -0.372 N 
ATOM      4  C   UNL     1       0.833 -14.380 -12.948  0.00  0.00    +0.166 C 
ATOM      5  H   UNL     1       1.345 -12.465 -13.372  0.00  0.00    +0.163 HD
ATOM      6  H   UNL     1       0.961 -15.019 -10.997  0.00  0.00    +0.159 HD
ATOM      7  H   UNL     1       1.455 -13.388 -11.253  0.00  0.00    +0.159 HD
ATOM      8  H   UNL     1       0.159 -15.721 -14.359  0.00  0.00    +0.159 HD
ATOM      9  H   UNL     1       0.229 -16.337 -12.754  0.00  0.00    +0.159 HD
ENDROOT
BRANCH   1  10
ATOM     10  C   UNL     1       0.826 -13.394 -15.217  0.00  0.00    +0.151 C 
BRANCH  10  11
ATOM     11  C   UNL     1      -0.545 -12.868 -15.540  0.00  0.00    -0.028 A 
ATOM     12  C   UNL     1      -1.543 -13.728 -16.023  0.00  0.00    +0.005 A 
ATOM     13  C   UNL     1      -0.856 -11.511 -15.359  0.00  0.00    +0.005 A 
ATOM     14  C   UNL     1      -2.825 -13.245 -16.294  0.00  0.00    +0.000 A 
ATOM     15  C   UNL     1      -2.137 -11.033 -15.632  0.00  0.00    +0.000 A 
ATOM     16  C   UNL     1      -3.122 -11.901 -16.097  0.00  0.00    +0.000 A 
ENDBRANCH  10  11
ENDBRANCH   1  10
TORSDOF 2
ENDMDL
MODEL 6
REMARK VINA RESULT:    -4.652      1.506      2.458
REMARK INTER + INTRA:          -5.292
REMARK INTER:                  -5.119
REMARK INTRA:                  -0.174
REMARK UNBOUND:                -0.097
REMARK  Name = 1550473
REMARK  2 active torsions:
REMARK  status: ('A' for Active; 'I' for Inactive)
REMARK    1  A    between atoms: N_1  and  C_4
REMARK    2  A    between atoms: C_4  and  C_5
REMARK                            x       y       z     vdW  Elec       q    Type
REMARK                         _______ _______ _______ _____ _____    ______ ____
ROOT
ATOM      1  N   UNL     1      -0.568 -13.628   8.785  0.00  0.00    -0.354 N 
ATOM      2  N   UNL     1       0.050 -13.901  11.000  0.00  0.00    -0.372 N 
ATOM      3  N   UNL     1       1.249 -12.453   9.684  0.00  0.00    -0.372 N 
ATOM      4  C   UNL     1       0.241 -13.324   9.807  0.00  0.00    +0.166 C 
ATOM      5  H   UNL     1      -1.295 -14.319   8.935  0.00  0.00    +0.163 HD
ATOM      6  H   UNL     1       0.642 -13.688  11.791  0.00  0.00    +0.159 HD
ATOM      7  H   UNL     1      -0.706 -14.556  11.159  0.00  0.00    +0.159 HD
ATOM      8  H   UNL     1       1.450 -11.987   8.809  0.00  0.00    +0.159 HD
ATOM      9  H   UNL     1       1.860 -12.236  10.461  0.00  0.00    +0.159 HD
ENDROOT
BRANCH   1  10
ATOM     10  C   UNL     1      -0.478 -13.016   7.460  0.00  0.00    +0.151 C 
BRANCH  10  11
ATOM     11  C   UNL     1      -1.637 -12.076   7.274  0.00  0.00    -0.028 A 
ATOM     12  C   UNL     1      -1.551 -10.744   7.708  0.00  0.00    +0.005 A 
ATOM     13  C   UNL     1      -2.822 -12.508   6.660  0.00  0.00    +0.005 A 
ATOM     14  C   UNL     1      -2.615  -9.863   7.508  0.00  0.00    +0.000 A 
ATOM     15  C   UNL     1      -3.884 -11.625   6.463  0.00  0.00    +0.000 A 
ATOM     16  C   UNL     1      -3.779 -10.302   6.885  0.00  0.00    +0.000 A 
ENDBRANCH  10  11
ENDBRANCH   1  10
TORSDOF 2
ENDMDL
MODEL 7
REMARK VINA RESULT:    -4.573     16.173     16.897
REMARK INTER + INTRA:          -5.204
REMARK INTER:                  -5.060
REMARK INTRA:                  -0.144
REMARK UNBOUND:                -0.097
REMARK  Name = 1550473
REMARK  2 active torsions:
REMARK  status: ('A' for Active; 'I' for Inactive)
REMARK    1  A    between atoms: N_1  and  C_4
REMARK    2  A    between atoms: C_4  and  C_5
REMARK                            x       y       z     vdW  Elec       q    Type
REMARK                         _______ _______ _______ _____ _____    ______ ____
ROOT
ATOM      1  N   UNL     1      -4.511  -6.193  -6.286  0.00  0.00    -0.354 N 
ATOM      2  N   UNL     1      -3.031  -6.326  -4.511  0.00  0.00    -0.372 N 
ATOM      3  N   UNL     1      -3.595  -4.259  -5.331  0.00  0.00    -0.372 N 
ATOM      4  C   UNL     1      -3.722  -5.589  -5.388  0.00  0.00    +0.166 C 
ATOM      5  H   UNL     1      -4.541  -7.206  -6.297  0.00  0.00    +0.163 HD
ATOM      6  H   UNL     1      -2.430  -5.898  -3.819  0.00  0.00    +0.159 HD
ATOM      7  H   UNL     1      -3.098  -7.337  -4.494  0.00  0.00    +0.159 HD
ATOM      8  H   UNL     1      -4.085  -3.646  -5.969  0.00  0.00    +0.159 HD
ATOM      9  H   UNL     1      -2.989  -3.813  -4.654  0.00  0.00    +0.159 HD
ENDROOT
BRANCH   1  10
ATOM     10  C   UNL     1      -5.347  -5.480  -7.251  0.00  0.00    +0.151 C 
BRANCH  10  11
ATOM     11  C   UNL     1      -4.956  -5.895  -8.642  0.00  0.00    -0.028 A 
ATOM     12  C   UNL     1      -3.613  -5.852  -9.046  0.00  0.00    +0.005 A 
ATOM     13  C   UNL     1      -5.921  -6.337  -9.559  0.00  0.00    +0.005 A 
ATOM     14  C   UNL     1      -3.245  -6.266 -10.329  0.00  0.00    +0.000 A 
ATOM     15  C   UNL     1      -5.550  -6.749 -10.839  0.00  0.00    +0.000 A 
ATOM     16  C   UNL     1      -4.211  -6.716 -11.222  0.00  0.00    +0.000 A 
ENDBRANCH  10  11
ENDBRANCH   1  10
TORSDOF 2
ENDMDL
MODEL 8
REMARK VINA RESULT:    -4.464      9.689     10.429
REMARK INTER + INTRA:          -5.082
REMARK INTER:                  -4.901
REMARK INTRA:                  -0.181
REMARK UNBOUND:                -0.097
REMARK  Name = 1550473
REMARK  2 active torsions:
REMARK  status: ('A' for Active; 'I' for Inactive)
REMARK    1  A    between atoms: N_1  and  C_4
REMARK    2  A    between atoms: C_4  and  C_5
REMARK                            x       y       z     vdW  Elec       q    Type
REMARK                         _______ _______ _______ _____ _____    ______ ____
ROOT
ATOM      1  N   UNL     1       0.409  -3.932  14.883  0.00  0.00    -0.354 N 
ATOM      2  N   UNL     1      -0.067  -6.196  14.793  0.00  0.00    -0.372 N 
ATOM      3  N   UNL     1       0.614  -5.130  12.879  0.00  0.00    -0.372 N 
ATOM      4  C   UNL     1       0.322  -5.071  14.183  0.00  0.00    +0.166 C 
ATOM      5  H   UNL     1       0.146  -3.947  15.861  0.00  0.00    +0.163 HD
ATOM      6  H   UNL     1      -0.139  -7.072  14.292  0.00  0.00    +0.159 HD
ATOM      7  H   UNL     1      -0.286  -6.218  15.782  0.00  0.00    +0.159 HD
ATOM      8  H   UNL     1       0.908  -4.314  12.358  0.00  0.00    +0.159 HD
ATOM      9  H   UNL     1       0.536  -5.994  12.357  0.00  0.00    +0.159 HD
ENDROOT
BRANCH   1  10
ATOM     10  C   UNL     1       0.875  -2.663  14.325  0.00  0.00    +0.151 C 
BRANCH  10  11
ATOM     11  C   UNL     1      -0.316  -1.809  13.986  0.00  0.00    -0.028 A 
ATOM     12  C   UNL     1      -0.616  -1.505  12.650  0.00  0.00    +0.005 A 
ATOM     13  C   UNL     1      -1.151  -1.307  14.995  0.00  0.00    +0.005 A 
ATOM     14  C   UNL     1      -1.739  -0.737  12.333  0.00  0.00    +0.000 A 
ATOM     15  C   UNL     1      -2.271  -0.540  14.674  0.00  0.00    +0.000 A 
ATOM     16  C   UNL     1      -2.566  -0.257  13.343  0.00  0.00    +0.000 A 
ENDBRANCH  10  11
ENDBRANCH   1  10
TORSDOF 2
ENDMDL
MODEL 9
REMARK VINA RESULT:    -4.430     16.741     17.545
REMARK INTER + INTRA:          -5.044
REMARK INTER:                  -4.921
REMARK INTRA:                  -0.123
REMARK UNBOUND:                -0.097
REMARK  Name = 1550473
REMARK  2 active torsions:
REMARK  status: ('A' for Active; 'I' for Inactive)
REMARK    1  A    between atoms: N_1  and  C_4
REMARK    2  A    between atoms: C_4  and  C_5
REMARK                            x       y       z     vdW  Elec       q    Type
REMARK                         _______ _______ _______ _____ _____    ______ ____
ROOT
ATOM      1  N   UNL     1      -4.547  -6.956 -10.193  0.00  0.00    -0.354 N 
ATOM      2  N   UNL     1      -4.177  -8.507 -11.873  0.00  0.00    -0.372 N 
ATOM      3  N   UNL     1      -6.264  -7.577 -11.662  0.00  0.00    -0.372 N 
ATOM      4  C   UNL     1      -5.001  -7.669 -11.232  0.00  0.00    +0.166 C 
ATOM      5  H   UNL     1      -3.587  -7.095  -9.897  0.00  0.00    +0.163 HD
ATOM      6  H   UNL     1      -4.490  -9.056 -12.662  0.00  0.00    +0.159 HD
ATOM      7  H   UNL     1      -3.206  -8.609 -11.604  0.00  0.00    +0.159 HD
ATOM      8  H   UNL     1      -6.938  -6.967 -11.217  0.00  0.00    +0.159 HD
ATOM      9  H   UNL     1      -6.600  -8.126 -12.443  0.00  0.00    +0.159 HD
ENDROOT
BRANCH   1  10
ATOM     10  C   UNL     1      -5.348  -5.977  -9.460  0.00  0.00    +0.151 C 
BRANCH  10  11
ATOM     11  C   UNL     1      -4.838  -5.882  -8.049  0.00  0.00    -0.028 A 
ATOM     12  C   UNL     1      -5.672  -5.420  -7.020  0.00  0.00    +0.005 A 
ATOM     13  C   UNL     1      -3.524  -6.259  -7.732  0.00  0.00    +0.005 A 
ATOM     14  C   UNL     1      -5.209  -5.361  -5.704  0.00  0.00    +0.000 A 
ATOM     15  C   UNL     1      -3.064  -6.197  -6.417  0.00  0.00    +0.000 A 
ATOM     16  C   UNL     1      -3.908  -5.750  -5.402  0.00  0.00    +0.000 A 
ENDBRANCH  10  11
ENDBRANCH   1  10
TORSDOF 2
ENDMDL
