MODEL 1
REMARK VINA RESULT:    -5.943      0.000      0.000
REMARK INTER + INTRA:          -6.736
REMARK INTER:                  -6.638
REMARK INTRA:                  -0.098
REMARK UNBOUND:                -0.098
REMARK  Name = 1550473
REMARK  2 active torsions:
REMARK  status: ('A' for Active; 'I' for Inactive)
REMARK    1  A    between atoms: N_1  and  C_4
REMARK    2  A    between atoms: C_4  and  C_5
REMARK                            x       y       z     vdW  Elec       q    Type
REMARK                         _______ _______ _______ _____ _____    ______ ____
ROOT
ATOM      1  N   UNL     1      -4.554   7.957   1.525  0.00  0.00    -0.354 N 
ATOM      2  N   UNL     1      -3.326   9.466   0.269  0.00  0.00    -0.372 N 
ATOM      3  N   UNL     1      -2.393   8.591   2.174  0.00  0.00    -0.372 N 
ATOM      4  C   UNL     1      -3.431   8.661   1.333  0.00  0.00    +0.166 C 
ATOM      5  H   UNL     1      -5.316   8.078   0.868  0.00  0.00    +0.163 HD
ATOM      6  H   UNL     1      -2.489  10.007   0.096  0.00  0.00    +0.159 HD
ATOM      7  H   UNL     1      -4.071   9.549  -0.412  0.00  0.00    +0.159 HD
ATOM      8  H   UNL     1      -2.411   8.007   2.999  0.00  0.00    +0.159 HD
ATOM      9  H   UNL     1      -1.552   9.134   2.024  0.00  0.00    +0.159 HD
ENDROOT
BRANCH   1  10
ATOM     10  C   UNL     1      -4.749   7.012   2.623  0.00  0.00    +0.151 C 
BRANCH  10  11
ATOM     11  C   UNL     1      -6.220   6.881   2.903  0.00  0.00    -0.028 A 
ATOM     12  C   UNL     1      -6.844   7.718   3.840  0.00  0.00    +0.005 A 
ATOM     13  C   UNL     1      -6.998   5.925   2.232  0.00  0.00    +0.005 A 
ATOM     14  C   UNL     1      -8.217   7.617   4.079  0.00  0.00    +0.000 A 
ATOM     15  C   UNL     1      -8.368   5.826   2.473  0.00  0.00    +0.000 A 
ATOM     16  C   UNL     1      -8.977   6.674   3.395  0.00  0.00    +0.000 A 
ENDBRANCH  10  11
ENDBRANCH   1  10
TORSDOF 2
ENDMDL
MODEL 2
REMARK VINA RESULT:    -5.258      2.709      4.067
REMARK INTER + INTRA:          -5.970
REMARK INTER:                  -5.813
REMARK INTRA:                  -0.157
REMARK UNBOUND:                -0.098
REMARK  Name = 1550473
REMARK  2 active torsions:
REMARK  status: ('A' for Active; 'I' for Inactive)
REMARK    1  A    between atoms: N_1  and  C_4
REMARK    2  A    between atoms: C_4  and  C_5
REMARK                            x       y       z     vdW  Elec       q    Type
REMARK                         _______ _______ _______ _____ _____    ______ ____
ROOT
ATOM      1  N   UNL     1      -7.861   7.901   3.624  0.00  0.00    -0.354 N 
ATOM      2  N   UNL     1      -5.793   8.942   3.664  0.00  0.00    -0.372 N 
ATOM      3  N   UNL     1      -5.885   6.669   3.365  0.00  0.00    -0.372 N 
ATOM      4  C   UNL     1      -6.526   7.828   3.551  0.00  0.00    +0.166 C 
ATOM      5  H   UNL     1      -8.285   8.805   3.797  0.00  0.00    +0.163 HD
ATOM      6  H   UNL     1      -4.784   8.919   3.609  0.00  0.00    +0.159 HD
ATOM      7  H   UNL     1      -6.222   9.851   3.791  0.00  0.00    +0.159 HD
ATOM      8  H   UNL     1      -6.379   5.792   3.277  0.00  0.00    +0.159 HD
ATOM      9  H   UNL     1      -4.874   6.624   3.319  0.00  0.00    +0.159 HD
ENDROOT
BRANCH   1  10
ATOM     10  C   UNL     1      -8.753   6.754   3.459  0.00  0.00    +0.151 C 
BRANCH  10  11
ATOM     11  C   UNL     1      -9.621   6.977   2.252  0.00  0.00    -0.028 A 
ATOM     12  C   UNL     1      -9.151   6.662   0.969  0.00  0.00    +0.005 A 
ATOM     13  C   UNL     1     -10.918   7.497   2.385  0.00  0.00    +0.005 A 
ATOM     14  C   UNL     1      -9.967   6.840  -0.150  0.00  0.00    +0.000 A 
ATOM     15  C   UNL     1     -11.730   7.675   1.265  0.00  0.00    +0.000 A 
ATOM     16  C   UNL     1     -11.255   7.344  -0.002  0.00  0.00    +0.000 A 
ENDBRANCH  10  11
ENDBRANCH   1  10
TORSDOF 2
ENDMDL
MODEL 3
REMARK VINA RESULT:    -5.226      2.920      4.880
REMARK INTER + INTRA:          -5.935
REMARK INTER:                  -5.835
REMARK INTRA:                  -0.099
REMARK UNBOUND:                -0.098
REMARK  Name = 1550473
REMARK  2 active torsions:
REMARK  status: ('A' for Active; 'I' for Inactive)
REMARK    1  A    between atoms: N_1  and  C_4
REMARK    2  A    between atoms: C_4  and  C_5
REMARK                            x       y       z     vdW  Elec       q    Type
REMARK                         _______ _______ _______ _____ _____    ______ ____
ROOT
ATOM      1  N   UNL     1      -7.363   6.372   3.054  0.00  0.00    -0.354 N 
ATOM      2  N   UNL     1      -9.640   5.962   3.170  0.00  0.00    -0.372 N 
ATOM      3  N   UNL     1      -8.755   7.670   4.421  0.00  0.00    -0.372 N 
ATOM      4  C   UNL     1      -8.571   6.672   3.550  0.00  0.00    +0.166 C 
ATOM      5  H   UNL     1      -7.286   5.585   2.420  0.00  0.00    +0.163 HD
ATOM      6  H   UNL     1     -10.564   6.168   3.525  0.00  0.00    +0.159 HD
ATOM      7  H   UNL     1      -9.566   5.205   2.501  0.00  0.00    +0.159 HD
ATOM      8  H   UNL     1      -7.988   8.240   4.752  0.00  0.00    +0.159 HD
ATOM      9  H   UNL     1      -9.671   7.884   4.796  0.00  0.00    +0.159 HD
ENDROOT
BRANCH   1  10
ATOM     10  C   UNL     1      -6.144   7.118   3.361  0.00  0.00    +0.151 C 
BRANCH  10  11
ATOM     11  C   UNL     1      -5.662   7.806   2.114  0.00  0.00    -0.028 A 
ATOM     12  C   UNL     1      -4.365   8.337   2.050  0.00  0.00    +0.005 A 
ATOM     13  C   UNL     1      -6.494   7.925   0.991  0.00  0.00    +0.005 A 
ATOM     14  C   UNL     1      -3.906   8.950   0.882  0.00  0.00    +0.000 A 
ATOM     15  C   UNL     1      -6.033   8.538  -0.174  0.00  0.00    +0.000 A 
ATOM     16  C   UNL     1      -4.738   9.048  -0.229  0.00  0.00    +0.000 A 
ENDBRANCH  10  11
ENDBRANCH   1  10
TORSDOF 2
ENDMDL
MODEL 4
REMARK VINA RESULT:    -4.988      2.984      3.995
REMARK INTER + INTRA:          -5.669
REMARK INTER:                  -5.547
REMARK INTRA:                  -0.122
REMARK UNBOUND:                -0.098
REMARK  Name = 1550473
REMARK  2 active torsions:
REMARK  status: ('A' for Active; 'I' for Inactive)
REMARK    1  A    between atoms: N_1  and  C_4
REMARK    2  A    between atoms: C_4  and  C_5
REMARK                            x       y       z     vdW  Elec       q    Type
REMARK                         _______ _______ _______ _____ _____    ______ ____
ROOT
ATOM      1  N   UNL     1      -6.909   5.463   0.309  0.00  0.00    -0.354 N 
ATOM      2  N   UNL     1      -5.654   4.745  -1.500  0.00  0.00    -0.372 N 
ATOM      3  N   UNL     1      -7.943   4.713  -1.655  0.00  0.00    -0.372 N 
ATOM      4  C   UNL     1      -6.847   4.978  -0.938  0.00  0.00    +0.166 C 
ATOM      5  H   UNL     1      -6.042   5.614   0.811  0.00  0.00    +0.163 HD
ATOM      6  H   UNL     1      -5.576   4.382  -2.440  0.00  0.00    +0.159 HD
ATOM      7  H   UNL     1      -4.788   4.940  -1.012  0.00  0.00    +0.159 HD
ATOM      8  H   UNL     1      -8.873   4.862  -1.287  0.00  0.00    +0.159 HD
ATOM      9  H   UNL     1      -7.885   4.339  -2.594  0.00  0.00    +0.159 HD
ENDROOT
BRANCH   1  10
ATOM     10  C   UNL     1      -8.156   5.803   0.993  0.00  0.00    +0.151 C 
BRANCH  10  11
ATOM     11  C   UNL     1      -7.839   6.616   2.217  0.00  0.00    -0.028 A 
ATOM     12  C   UNL     1      -8.854   7.308   2.895  0.00  0.00    +0.005 A 
ATOM     13  C   UNL     1      -6.527   6.695   2.708  0.00  0.00    +0.005 A 
ATOM     14  C   UNL     1      -8.566   8.040   4.049  0.00  0.00    +0.000 A 
ATOM     15  C   UNL     1      -6.243   7.427   3.861  0.00  0.00    +0.000 A 
ATOM     16  C   UNL     1      -7.263   8.097   4.532  0.00  0.00    +0.000 A 
ENDBRANCH  10  11
ENDBRANCH   1  10
TORSDOF 2
ENDMDL
MODEL 5
REMARK VINA RESULT:    -4.868      9.644     11.233
REMARK INTER + INTRA:          -5.535
REMARK INTER:                  -5.425
REMARK INTRA:                  -0.110
REMARK UNBOUND:                -0.098
REMARK  Name = 1550473
REMARK  2 active torsions:
REMARK  status: ('A' for Active; 'I' for Inactive)
REMARK    1  A    between atoms: N_1  and  C_4
REMARK    2  A    between atoms: C_4  and  C_5
REMARK                            x       y       z     vdW  Elec       q    Type
REMARK                         _______ _______ _______ _____ _____    ______ ____
ROOT
ATOM      1  N   UNL     1     -11.964  11.721  10.180  0.00  0.00    -0.354 N 
ATOM      2  N   UNL     1     -13.296   9.993  10.957  0.00  0.00    -0.372 N 
ATOM      3  N   UNL     1     -13.158  11.926  12.186  0.00  0.00    -0.372 N 
ATOM      4  C   UNL     1     -12.797  11.226  11.105  0.00  0.00    +0.166 C 
ATOM      5  H   UNL     1     -11.706  11.129   9.399  0.00  0.00    +0.163 HD
ATOM      6  H   UNL     1     -13.930   9.595  11.637  0.00  0.00    +0.159 HD
ATOM      7  H   UNL     1     -13.072   9.421  10.152  0.00  0.00    +0.159 HD
ATOM      8  H   UNL     1     -12.812  12.860  12.359  0.00  0.00    +0.159 HD
ATOM      9  H   UNL     1     -13.782  11.540  12.884  0.00  0.00    +0.159 HD
ENDROOT
BRANCH   1  10
ATOM     10  C   UNL     1     -11.408  13.072  10.219  0.00  0.00    +0.151 C 
BRANCH  10  11
ATOM     11  C   UNL     1     -10.587  13.302   8.980  0.00  0.00    -0.028 A 
ATOM     12  C   UNL     1     -11.062  12.892   7.726  0.00  0.00    +0.005 A 
ATOM     13  C   UNL     1      -9.336  13.934   9.054  0.00  0.00    +0.005 A 
ATOM     14  C   UNL     1     -10.313  13.132   6.571  0.00  0.00    +0.000 A 
ATOM     15  C   UNL     1      -8.592  14.171   7.898  0.00  0.00    +0.000 A 
ATOM     16  C   UNL     1      -9.082  13.773   6.657  0.00  0.00    +0.000 A 
ENDBRANCH  10  11
ENDBRANCH   1  10
TORSDOF 2
ENDMDL
MODEL 6
REMARK VINA RESULT:    -4.855     17.578     18.992
REMARK INTER + INTRA:          -5.520
REMARK INTER:                  -5.428
REMARK INTRA:                  -0.092
REMARK UNBOUND:                -0.098
REMARK  Name = 1550473
REMARK  2 active torsions:
REMARK  status: ('A' for Active; 'I' for Inactive)
REMARK    1  A    between atoms: N_1  and  C_4
REMARK    2  A    between atoms: C_4  and  C_5
REMARK                            x       y       z     vdW  Elec       q    Type
REMARK                         _______ _______ _______ _____ _____    ______ ____
ROOT
ATOM      1  N   UNL     1       4.352  15.323  14.015  0.00  0.00    -0.354 N 
ATOM      2  N   UNL     1       3.222  16.515  12.382  0.00  0.00    -0.372 N 
ATOM      3  N   UNL     1       2.838  14.261  12.575  0.00  0.00    -0.372 N 
ATOM      4  C   UNL     1       3.477  15.356  13.001  0.00  0.00    +0.166 C 
ATOM      5  H   UNL     1       4.826  16.182  14.270  0.00  0.00    +0.163 HD
ATOM      6  H   UNL     1       2.564  16.571  11.616  0.00  0.00    +0.159 HD
ATOM      7  H   UNL     1       3.662  17.380  12.669  0.00  0.00    +0.159 HD
ATOM      8  H   UNL     1       2.991  13.354  12.996  0.00  0.00    +0.159 HD
ATOM      9  H   UNL     1       2.185  14.295  11.803  0.00  0.00    +0.159 HD
ENDROOT
BRANCH   1  10
ATOM     10  C   UNL     1       4.660  14.122  14.790  0.00  0.00    +0.151 C 
BRANCH  10  11
ATOM     11  C   UNL     1       5.551  14.497  15.942  0.00  0.00    -0.028 A 
ATOM     12  C   UNL     1       6.943  14.360  15.839  0.00  0.00    +0.005 A 
ATOM     13  C   UNL     1       5.010  14.995  17.137  0.00  0.00    +0.005 A 
ATOM     14  C   UNL     1       7.773  14.736  16.898  0.00  0.00    +0.000 A 
ATOM     15  C   UNL     1       5.842  15.368  18.193  0.00  0.00    +0.000 A 
ATOM     16  C   UNL     1       7.224  15.241  18.072  0.00  0.00    +0.000 A 
ENDBRANCH  10  11
ENDBRANCH   1  10
TORSDOF 2
ENDMDL
MODEL 7
REMARK VINA RESULT:    -4.813      2.589      3.846
REMARK INTER + INTRA:          -5.474
REMARK INTER:                  -5.294
REMARK INTRA:                  -0.180
REMARK UNBOUND:                -0.098
REMARK  Name = 1550473
REMARK  2 active torsions:
REMARK  status: ('A' for Active; 'I' for Inactive)
REMARK    1  A    between atoms: N_1  and  C_4
REMARK    2  A    between atoms: C_4  and  C_5
REMARK                            x       y       z     vdW  Elec       q    Type
REMARK                         _______ _______ _______ _____ _____    ______ ____
ROOT
ATOM      1  N   UNL     1      -7.220   7.462   2.745  0.00  0.00    -0.354 N 
ATOM      2  N   UNL     1      -5.405   8.867   3.053  0.00  0.00    -0.372 N 
ATOM      3  N   UNL     1      -5.033   6.620   2.777  0.00  0.00    -0.372 N 
ATOM      4  C   UNL     1      -5.896   7.638   2.856  0.00  0.00    +0.166 C 
ATOM      5  H   UNL     1      -7.823   8.270   2.844  0.00  0.00    +0.163 HD
ATOM      6  H   UNL     1      -4.411   9.032   3.137  0.00  0.00    +0.159 HD
ATOM      7  H   UNL     1      -6.007   9.680   3.105  0.00  0.00    +0.159 HD
ATOM      8  H   UNL     1      -5.340   5.667   2.636  0.00  0.00    +0.159 HD
ATOM      9  H   UNL     1      -4.035   6.763   2.871  0.00  0.00    +0.159 HD
ENDROOT
BRANCH   1  10
ATOM     10  C   UNL     1      -7.853   6.172   2.476  0.00  0.00    +0.151 C 
BRANCH  10  11
ATOM     11  C   UNL     1      -8.177   6.079   1.011  0.00  0.00    -0.028 A 
ATOM     12  C   UNL     1      -7.315   5.408   0.132  0.00  0.00    +0.005 A 
ATOM     13  C   UNL     1      -9.348   6.656   0.496  0.00  0.00    +0.005 A 
ATOM     14  C   UNL     1      -7.631   5.296  -1.224  0.00  0.00    +0.000 A 
ATOM     15  C   UNL     1      -9.659   6.543  -0.859  0.00  0.00    +0.000 A 
ATOM     16  C   UNL     1      -8.802   5.861  -1.718  0.00  0.00    +0.000 A 
ENDBRANCH  10  11
ENDBRANCH   1  10
TORSDOF 2
ENDMDL
MODEL 8
REMARK VINA RESULT:    -4.749      4.206      5.816
REMARK INTER + INTRA:          -5.403
REMARK INTER:                  -5.273
REMARK INTRA:                  -0.130
REMARK UNBOUND:                -0.098
REMARK  Name = 1550473
REMARK  2 active torsions:
REMARK  status: ('A' for Active; 'I' for Inactive)
REMARK    1  A    between atoms: N_1  and  C_4
REMARK    2  A    between atoms: C_4  and  C_5
REMARK                            x       y       z     vdW  Elec       q    Type
REMARK                         _______ _______ _______ _____ _____    ______ ____
ROOT
ATOM      1  N   UNL     1     -10.786   7.244   1.891  0.00  0.00    -0.354 N 
ATOM      2  N   UNL     1     -12.947   8.074   1.945  0.00  0.00    -0.372 N 
ATOM      3  N   UNL     1     -11.897   7.847  -0.082  0.00  0.00    -0.372 N 
ATOM      4  C   UNL     1     -11.862   7.716   1.248  0.00  0.00    +0.166 C 
ATOM      5  H   UNL     1     -10.811   7.198   2.903  0.00  0.00    +0.163 HD
ATOM      6  H   UNL     1     -13.775   8.431   1.487  0.00  0.00    +0.159 HD
ATOM      7  H   UNL     1     -12.987   7.984   2.953  0.00  0.00    +0.159 HD
ATOM      8  H   UNL     1     -11.108   7.600  -0.666  0.00  0.00    +0.159 HD
ATOM      9  H   UNL     1     -12.712   8.213  -0.558  0.00  0.00    +0.159 HD
ENDROOT
BRANCH   1  10
ATOM     10  C   UNL     1      -9.573   6.776   1.221  0.00  0.00    +0.151 C 
BRANCH  10  11
ATOM     11  C   UNL     1      -8.401   6.955   2.147  0.00  0.00    -0.028 A 
ATOM     12  C   UNL     1      -7.163   6.367   1.850  0.00  0.00    +0.005 A 
ATOM     13  C   UNL     1      -8.521   7.717   3.319  0.00  0.00    +0.005 A 
ATOM     14  C   UNL     1      -6.066   6.558   2.693  0.00  0.00    +0.000 A 
ATOM     15  C   UNL     1      -7.423   7.905   4.159  0.00  0.00    +0.000 A 
ATOM     16  C   UNL     1      -6.196   7.327   3.845  0.00  0.00    +0.000 A 
ENDBRANCH  10  11
ENDBRANCH   1  10
TORSDOF 2
ENDMDL
MODEL 9
REMARK VINA RESULT:    -4.709      3.792      4.758
REMARK INTER + INTRA:          -5.357
REMARK INTER:                  -5.264
REMARK INTRA:                  -0.093
REMARK UNBOUND:                -0.098
REMARK  Name = 1550473
REMARK  2 active torsions:
REMARK  status: ('A' for Active; 'I' for Inactive)
REMARK    1  A    between atoms: N_1  and  C_4
REMARK    2  A    between atoms: C_4  and  C_5
REMARK                            x       y       z     vdW  Elec       q    Type
REMARK                         _______ _______ _______ _____ _____    ______ ____
ROOT
ATOM      1  N   UNL     1      -5.979   4.562  -1.403  0.00  0.00    -0.354 N 
ATOM      2  N   UNL     1      -5.386   2.751  -2.720  0.00  0.00    -0.372 N 
ATOM      3  N   UNL     1      -5.859   4.753  -3.736  0.00  0.00    -0.372 N 
ATOM      4  C   UNL     1      -5.746   4.036  -2.613  0.00  0.00    +0.166 C 
ATOM      5  H   UNL     1      -5.905   3.958  -0.593  0.00  0.00    +0.163 HD
ATOM      6  H   UNL     1      -5.200   2.327  -3.619  0.00  0.00    +0.159 HD
ATOM      7  H   UNL     1      -5.269   2.161  -1.905  0.00  0.00    +0.159 HD
ATOM      8  H   UNL     1      -6.132   5.727  -3.724  0.00  0.00    +0.159 HD
ATOM      9  H   UNL     1      -5.688   4.344  -4.646  0.00  0.00    +0.159 HD
ENDROOT
BRANCH   1  10
ATOM     10  C   UNL     1      -6.323   5.964  -1.174  0.00  0.00    +0.151 C 
BRANCH  10  11
ATOM     11  C   UNL     1      -6.184   6.271   0.292  0.00  0.00    -0.028 A 
ATOM     12  C   UNL     1      -5.129   7.072   0.754  0.00  0.00    +0.005 A 
ATOM     13  C   UNL     1      -7.106   5.769   1.222  0.00  0.00    +0.005 A 
ATOM     14  C   UNL     1      -5.017   7.382   2.112  0.00  0.00    +0.000 A 
ATOM     15  C   UNL     1      -6.990   6.080   2.577  0.00  0.00    +0.000 A 
ATOM     16  C   UNL     1      -5.946   6.888   3.021  0.00  0.00    +0.000 A 
ENDBRANCH  10  11
ENDBRANCH   1  10
TORSDOF 2
ENDMDL
