MODEL 1
REMARK VINA RESULT:    -6.099      0.000      0.000
REMARK INTER + INTRA:          -6.916
REMARK INTER:                  -6.812
REMARK INTRA:                  -0.104
REMARK UNBOUND:                -0.104
REMARK  Name = 1550473
REMARK  2 active torsions:
REMARK  status: ('A' for Active; 'I' for Inactive)
REMARK    1  A    between atoms: N_1  and  C_4
REMARK    2  A    between atoms: C_4  and  C_5
REMARK                            x       y       z     vdW  Elec       q    Type
REMARK                         _______ _______ _______ _____ _____    ______ ____
ROOT
ATOM      1  N   UNL     1      -5.104  -5.009   4.398  0.00  0.00    -0.354 N 
ATOM      2  N   UNL     1      -6.958  -6.269   3.816  0.00  0.00    -0.372 N 
ATOM      3  N   UNL     1      -6.421  -4.435   2.547  0.00  0.00    -0.372 N 
ATOM      4  C   UNL     1      -6.149  -5.227   3.589  0.00  0.00    +0.166 C 
ATOM      5  H   UNL     1      -4.970  -5.629   5.189  0.00  0.00    +0.163 HD
ATOM      6  H   UNL     1      -7.752  -6.461   3.221  0.00  0.00    +0.159 HD
ATOM      7  H   UNL     1      -6.795  -6.914   4.581  0.00  0.00    +0.159 HD
ATOM      8  H   UNL     1      -5.852  -3.629   2.324  0.00  0.00    +0.159 HD
ATOM      9  H   UNL     1      -7.218  -4.604   1.946  0.00  0.00    +0.159 HD
ENDROOT
BRANCH   1  10
ATOM     10  C   UNL     1      -4.132  -3.934   4.207  0.00  0.00    +0.151 C 
BRANCH  10  11
ATOM     11  C   UNL     1      -2.785  -4.398   4.689  0.00  0.00    -0.028 A 
ATOM     12  C   UNL     1      -1.687  -4.425   3.817  0.00  0.00    +0.005 A 
ATOM     13  C   UNL     1      -2.599  -4.808   6.018  0.00  0.00    +0.005 A 
ATOM     14  C   UNL     1      -0.429  -4.827   4.272  0.00  0.00    +0.000 A 
ATOM     15  C   UNL     1      -1.342  -5.209   6.469  0.00  0.00    +0.000 A 
ATOM     16  C   UNL     1      -0.257  -5.217   5.596  0.00  0.00    +0.000 A 
ENDBRANCH  10  11
ENDBRANCH   1  10
TORSDOF 2
ENDMDL
MODEL 2
REMARK VINA RESULT:    -5.821      2.738      4.104
REMARK INTER + INTRA:          -6.605
REMARK INTER:                  -6.486
REMARK INTRA:                  -0.120
REMARK UNBOUND:                -0.104
REMARK  Name = 1550473
REMARK  2 active torsions:
REMARK  status: ('A' for Active; 'I' for Inactive)
REMARK    1  A    between atoms: N_1  and  C_4
REMARK    2  A    between atoms: C_4  and  C_5
REMARK                            x       y       z     vdW  Elec       q    Type
REMARK                         _______ _______ _______ _____ _____    ______ ____
ROOT
ATOM      1  N   UNL     1      -1.185  -4.830   5.352  0.00  0.00    -0.354 N 
ATOM      2  N   UNL     1      -3.473  -4.542   5.566  0.00  0.00    -0.372 N 
ATOM      3  N   UNL     1      -2.516  -4.319   3.493  0.00  0.00    -0.372 N 
ATOM      4  C   UNL     1      -2.376  -4.565   4.800  0.00  0.00    +0.166 C 
ATOM      5  H   UNL     1      -1.141  -4.977   6.354  0.00  0.00    +0.163 HD
ATOM      6  H   UNL     1      -4.386  -4.349   5.177  0.00  0.00    +0.159 HD
ATOM      7  H   UNL     1      -3.433  -4.736   6.560  0.00  0.00    +0.159 HD
ATOM      8  H   UNL     1      -1.727  -4.316   2.861  0.00  0.00    +0.159 HD
ATOM      9  H   UNL     1      -3.420  -4.112   3.086  0.00  0.00    +0.159 HD
ENDROOT
BRANCH   1  10
ATOM     10  C   UNL     1       0.063  -4.931   4.597  0.00  0.00    +0.151 C 
BRANCH  10  11
ATOM     11  C   UNL     1       1.156  -5.404   5.514  0.00  0.00    -0.028 A 
ATOM     12  C   UNL     1       2.498  -5.108   5.235  0.00  0.00    +0.005 A 
ATOM     13  C   UNL     1       0.855  -6.145   6.668  0.00  0.00    +0.005 A 
ATOM     14  C   UNL     1       3.511  -5.522   6.103  0.00  0.00    +0.000 A 
ATOM     15  C   UNL     1       1.870  -6.557   7.532  0.00  0.00    +0.000 A 
ATOM     16  C   UNL     1       3.198  -6.243   7.250  0.00  0.00    +0.000 A 
ENDBRANCH  10  11
ENDBRANCH   1  10
TORSDOF 2
ENDMDL
MODEL 3
REMARK VINA RESULT:    -5.732      6.450      7.411
REMARK INTER + INTRA:          -6.506
REMARK INTER:                  -6.361
REMARK INTRA:                  -0.145
REMARK UNBOUND:                -0.104
REMARK  Name = 1550473
REMARK  2 active torsions:
REMARK  status: ('A' for Active; 'I' for Inactive)
REMARK    1  A    between atoms: N_1  and  C_4
REMARK    2  A    between atoms: C_4  and  C_5
REMARK                            x       y       z     vdW  Elec       q    Type
REMARK                         _______ _______ _______ _____ _____    ______ ____
ROOT
ATOM      1  N   UNL     1      -0.348  -4.924  11.432  0.00  0.00    -0.354 N 
ATOM      2  N   UNL     1      -0.802  -2.928  12.515  0.00  0.00    -0.372 N 
ATOM      3  N   UNL     1      -2.118  -3.551  10.742  0.00  0.00    -0.372 N 
ATOM      4  C   UNL     1      -1.088  -3.814  11.554  0.00  0.00    +0.166 C 
ATOM      5  H   UNL     1       0.437  -5.050  12.060  0.00  0.00    +0.163 HD
ATOM      6  H   UNL     1      -1.344  -2.083  12.634  0.00  0.00    +0.159 HD
ATOM      7  H   UNL     1      -0.044  -3.079  13.171  0.00  0.00    +0.159 HD
ATOM      8  H   UNL     1      -2.382  -4.176   9.992  0.00  0.00    +0.159 HD
ATOM      9  H   UNL     1      -2.665  -2.705  10.837  0.00  0.00    +0.159 HD
ENDROOT
BRANCH   1  10
ATOM     10  C   UNL     1      -0.610  -5.977  10.453  0.00  0.00    +0.151 C 
BRANCH  10  11
ATOM     11  C   UNL     1       0.627  -6.197   9.626  0.00  0.00    -0.028 A 
ATOM     12  C   UNL     1       0.545  -6.835   8.379  0.00  0.00    +0.005 A 
ATOM     13  C   UNL     1       1.882  -5.766  10.081  0.00  0.00    +0.005 A 
ATOM     14  C   UNL     1       1.689  -7.012   7.597  0.00  0.00    +0.000 A 
ATOM     15  C   UNL     1       3.022  -5.946   9.298  0.00  0.00    +0.000 A 
ATOM     16  C   UNL     1       2.925  -6.567   8.055  0.00  0.00    +0.000 A 
ENDBRANCH  10  11
ENDBRANCH   1  10
TORSDOF 2
ENDMDL
MODEL 4
REMARK VINA RESULT:    -5.679      4.675      6.397
REMARK INTER + INTRA:          -6.447
REMARK INTER:                  -6.311
REMARK INTRA:                  -0.136
REMARK UNBOUND:                -0.104
REMARK  Name = 1550473
REMARK  2 active torsions:
REMARK  status: ('A' for Active; 'I' for Inactive)
REMARK    1  A    between atoms: N_1  and  C_4
REMARK    2  A    between atoms: C_4  and  C_5
REMARK                            x       y       z     vdW  Elec       q    Type
REMARK                         _______ _______ _______ _____ _____    ______ ____
ROOT
ATOM      1  N   UNL     1       1.637  -6.430   6.610  0.00  0.00    -0.354 N 
ATOM      2  N   UNL     1       3.188  -6.230   8.318  0.00  0.00    -0.372 N 
ATOM      3  N   UNL     1       3.866  -5.866   6.157  0.00  0.00    -0.372 N 
ATOM      4  C   UNL     1       2.889  -6.176   7.015  0.00  0.00    +0.166 C 
ATOM      5  H   UNL     1       0.949  -6.689   7.307  0.00  0.00    +0.163 HD
ATOM      6  H   UNL     1       4.123  -6.040   8.654  0.00  0.00    +0.159 HD
ATOM      7  H   UNL     1       2.488  -6.444   9.018  0.00  0.00    +0.159 HD
ATOM      8  H   UNL     1       3.707  -5.815   5.159  0.00  0.00    +0.159 HD
ATOM      9  H   UNL     1       4.811  -5.684   6.472  0.00  0.00    +0.159 HD
ENDROOT
BRANCH   1  10
ATOM     10  C   UNL     1       1.195  -6.346   5.219  0.00  0.00    +0.151 C 
BRANCH  10  11
ATOM     11  C   UNL     1      -0.154  -5.684   5.172  0.00  0.00    -0.028 A 
ATOM     12  C   UNL     1      -0.720  -5.306   3.945  0.00  0.00    +0.005 A 
ATOM     13  C   UNL     1      -0.875  -5.436   6.350  0.00  0.00    +0.005 A 
ATOM     14  C   UNL     1      -1.986  -4.718   3.899  0.00  0.00    +0.000 A 
ATOM     15  C   UNL     1      -2.139  -4.848   6.300  0.00  0.00    +0.000 A 
ATOM     16  C   UNL     1      -2.695  -4.492   5.074  0.00  0.00    +0.000 A 
ENDBRANCH  10  11
ENDBRANCH   1  10
TORSDOF 2
ENDMDL
MODEL 5
REMARK VINA RESULT:    -5.578      5.893      6.925
REMARK INTER + INTRA:          -6.333
REMARK INTER:                  -6.182
REMARK INTRA:                  -0.152
REMARK UNBOUND:                -0.104
REMARK  Name = 1550473
REMARK  2 active torsions:
REMARK  status: ('A' for Active; 'I' for Inactive)
REMARK    1  A    between atoms: N_1  and  C_4
REMARK    2  A    between atoms: C_4  and  C_5
REMARK                            x       y       z     vdW  Elec       q    Type
REMARK                         _______ _______ _______ _____ _____    ______ ____
ROOT
ATOM      1  N   UNL     1      -0.539  -5.421   9.746  0.00  0.00    -0.354 N 
ATOM      2  N   UNL     1      -1.831  -3.659  10.513  0.00  0.00    -0.372 N 
ATOM      3  N   UNL     1       0.101  -4.187  11.633  0.00  0.00    -0.372 N 
ATOM      4  C   UNL     1      -0.746  -4.434  10.628  0.00  0.00    +0.166 C 
ATOM      5  H   UNL     1      -1.233  -5.575   9.025  0.00  0.00    +0.163 HD
ATOM      6  H   UNL     1      -2.013  -2.904  11.162  0.00  0.00    +0.159 HD
ATOM      7  H   UNL     1      -2.501  -3.786   9.764  0.00  0.00    +0.159 HD
ATOM      8  H   UNL     1       0.935  -4.739  11.778  0.00  0.00    +0.159 HD
ATOM      9  H   UNL     1      -0.070  -3.444  12.299  0.00  0.00    +0.159 HD
ENDROOT
BRANCH   1  10
ATOM     10  C   UNL     1       0.639  -6.287   9.750  0.00  0.00    +0.151 C 
BRANCH  10  11
ATOM     11  C   UNL     1       1.436  -6.038   8.499  0.00  0.00    -0.028 A 
ATOM     12  C   UNL     1       0.835  -5.450   7.377  0.00  0.00    +0.005 A 
ATOM     13  C   UNL     1       2.794  -6.384   8.432  0.00  0.00    +0.005 A 
ATOM     14  C   UNL     1       1.582  -5.192   6.226  0.00  0.00    +0.000 A 
ATOM     15  C   UNL     1       3.537  -6.125   7.280  0.00  0.00    +0.000 A 
ATOM     16  C   UNL     1       2.931  -5.527   6.178  0.00  0.00    +0.000 A 
ENDBRANCH  10  11
ENDBRANCH   1  10
TORSDOF 2
ENDMDL
MODEL 6
REMARK VINA RESULT:    -5.417     16.019     16.787
REMARK INTER + INTRA:          -6.154
REMARK INTER:                  -6.038
REMARK INTRA:                  -0.116
REMARK UNBOUND:                -0.104
REMARK  Name = 1550473
REMARK  2 active torsions:
REMARK  status: ('A' for Active; 'I' for Inactive)
REMARK    1  A    between atoms: N_1  and  C_4
REMARK    2  A    between atoms: C_4  and  C_5
REMARK                            x       y       z     vdW  Elec       q    Type
REMARK                         _______ _______ _______ _____ _____    ______ ____
ROOT
ATOM      1  N   UNL     1      -0.377 -20.119   0.434  0.00  0.00    -0.354 N 
ATOM      2  N   UNL     1       1.642 -19.596   1.440  0.00  0.00    -0.372 N 
ATOM      3  N   UNL     1       1.444 -21.591   0.324  0.00  0.00    -0.372 N 
ATOM      4  C   UNL     1       0.891 -20.441   0.725  0.00  0.00    +0.166 C 
ATOM      5  H   UNL     1      -0.746 -19.247   0.793  0.00  0.00    +0.163 HD
ATOM      6  H   UNL     1       2.603 -19.810   1.673  0.00  0.00    +0.159 HD
ATOM      7  H   UNL     1       1.284 -18.703   1.759  0.00  0.00    +0.159 HD
ATOM      8  H   UNL     1       0.928 -22.274  -0.213  0.00  0.00    +0.159 HD
ATOM      9  H   UNL     1       2.400 -21.828   0.557  0.00  0.00    +0.159 HD
ENDROOT
BRANCH   1  10
ATOM     10  C   UNL     1      -1.263 -20.946  -0.384  0.00  0.00    +0.151 C 
BRANCH  10  11
ATOM     11  C   UNL     1      -2.030 -20.060  -1.327  0.00  0.00    -0.028 A 
ATOM     12  C   UNL     1      -1.474 -19.679  -2.557  0.00  0.00    +0.005 A 
ATOM     13  C   UNL     1      -3.315 -19.603  -0.998  0.00  0.00    +0.005 A 
ATOM     14  C   UNL     1      -2.198 -18.880  -3.445  0.00  0.00    +0.000 A 
ATOM     15  C   UNL     1      -4.034 -18.805  -1.888  0.00  0.00    +0.000 A 
ATOM     16  C   UNL     1      -3.476 -18.446  -3.112  0.00  0.00    +0.000 A 
ENDBRANCH  10  11
ENDBRANCH   1  10
TORSDOF 2
ENDMDL
MODEL 7
REMARK VINA RESULT:    -5.225      5.905      6.618
REMARK INTER + INTRA:          -5.940
REMARK INTER:                  -5.829
REMARK INTRA:                  -0.111
REMARK UNBOUND:                -0.104
REMARK  Name = 1550473
REMARK  2 active torsions:
REMARK  status: ('A' for Active; 'I' for Inactive)
REMARK    1  A    between atoms: N_1  and  C_4
REMARK    2  A    between atoms: C_4  and  C_5
REMARK                            x       y       z     vdW  Elec       q    Type
REMARK                         _______ _______ _______ _____ _____    ______ ____
ROOT
ATOM      1  N   UNL     1      -1.334  -5.375  10.438  0.00  0.00    -0.354 N 
ATOM      2  N   UNL     1      -2.862  -5.891  12.100  0.00  0.00    -0.372 N 
ATOM      3  N   UNL     1      -2.881  -3.784  11.192  0.00  0.00    -0.372 N 
ATOM      4  C   UNL     1      -2.350  -5.011  11.232  0.00  0.00    +0.166 C 
ATOM      5  H   UNL     1      -0.956  -6.310  10.539  0.00  0.00    +0.163 HD
ATOM      6  H   UNL     1      -3.631  -5.646  12.710  0.00  0.00    +0.159 HD
ATOM      7  H   UNL     1      -2.513  -6.839  12.166  0.00  0.00    +0.159 HD
ATOM      8  H   UNL     1      -2.536  -3.071  10.563  0.00  0.00    +0.159 HD
ATOM      9  H   UNL     1      -3.644  -3.516  11.802  0.00  0.00    +0.159 HD
ENDROOT
BRANCH   1  10
ATOM     10  C   UNL     1      -0.740  -4.509   9.422  0.00  0.00    +0.151 C 
BRANCH  10  11
ATOM     11  C   UNL     1       0.453  -5.201   8.823  0.00  0.00    -0.028 A 
ATOM     12  C   UNL     1       1.380  -5.861   9.644  0.00  0.00    +0.005 A 
ATOM     13  C   UNL     1       0.660  -5.206   7.435  0.00  0.00    +0.005 A 
ATOM     14  C   UNL     1       2.472  -6.530   9.086  0.00  0.00    +0.000 A 
ATOM     15  C   UNL     1       1.752  -5.875   6.882  0.00  0.00    +0.000 A 
ATOM     16  C   UNL     1       2.656  -6.539   7.707  0.00  0.00    +0.000 A 
ENDBRANCH  10  11
ENDBRANCH   1  10
TORSDOF 2
ENDMDL
MODEL 8
REMARK VINA RESULT:    -5.201     17.944     19.034
REMARK INTER + INTRA:          -5.912
REMARK INTER:                  -5.760
REMARK INTRA:                  -0.152
REMARK UNBOUND:                -0.104
REMARK  Name = 1550473
REMARK  2 active torsions:
REMARK  status: ('A' for Active; 'I' for Inactive)
REMARK    1  A    between atoms: N_1  and  C_4
REMARK    2  A    between atoms: C_4  and  C_5
REMARK                            x       y       z     vdW  Elec       q    Type
REMARK                         _______ _______ _______ _____ _____    ______ ____
ROOT
ATOM      1  N   UNL     1      -2.102 -22.037  13.793  0.00  0.00    -0.354 N 
ATOM      2  N   UNL     1      -1.698 -23.917  15.084  0.00  0.00    -0.372 N 
ATOM      3  N   UNL     1      -2.233 -24.187  12.870  0.00  0.00    -0.372 N 
ATOM      4  C   UNL     1      -2.014 -23.370  13.905  0.00  0.00    +0.166 C 
ATOM      5  H   UNL     1      -1.954 -21.474  14.623  0.00  0.00    +0.163 HD
ATOM      6  H   UNL     1      -1.621 -24.919  15.198  0.00  0.00    +0.159 HD
ATOM      7  H   UNL     1      -1.506 -23.350  15.901  0.00  0.00    +0.159 HD
ATOM      8  H   UNL     1      -2.481 -23.837  11.954  0.00  0.00    +0.159 HD
ATOM      9  H   UNL     1      -2.172 -25.193  12.966  0.00  0.00    +0.159 HD
ENDROOT
BRANCH   1  10
ATOM     10  C   UNL     1      -2.387 -21.339  12.541  0.00  0.00    +0.151 C 
BRANCH  10  11
ATOM     11  C   UNL     1      -3.636 -20.518  12.710  0.00  0.00    -0.028 A 
ATOM     12  C   UNL     1      -3.553 -19.145  12.989  0.00  0.00    +0.005 A 
ATOM     13  C   UNL     1      -4.904 -21.104  12.588  0.00  0.00    +0.005 A 
ATOM     14  C   UNL     1      -4.712 -18.376  13.116  0.00  0.00    +0.000 A 
ATOM     15  C   UNL     1      -6.059 -20.333  12.717  0.00  0.00    +0.000 A 
ATOM     16  C   UNL     1      -5.962 -18.968  12.979  0.00  0.00    +0.000 A 
ENDBRANCH  10  11
ENDBRANCH   1  10
TORSDOF 2
ENDMDL
MODEL 9
REMARK VINA RESULT:    -5.181     19.990     21.096
REMARK INTER + INTRA:          -5.890
REMARK INTER:                  -5.723
REMARK INTRA:                  -0.168
REMARK UNBOUND:                -0.104
REMARK  Name = 1550473
REMARK  2 active torsions:
REMARK  status: ('A' for Active; 'I' for Inactive)
REMARK    1  A    between atoms: N_1  and  C_4
REMARK    2  A    between atoms: C_4  and  C_5
REMARK                            x       y       z     vdW  Elec       q    Type
REMARK                         _______ _______ _______ _____ _____    ______ ____
ROOT
ATOM      1  N   UNL     1      -0.724 -22.535  13.541  0.00  0.00    -0.354 N 
ATOM      2  N   UNL     1      -1.904 -24.360  12.742  0.00  0.00    -0.372 N 
ATOM      3  N   UNL     1      -1.909 -23.937  14.997  0.00  0.00    -0.372 N 
ATOM      4  C   UNL     1      -1.505 -23.599  13.768  0.00  0.00    +0.166 C 
ATOM      5  H   UNL     1      -0.427 -22.350  12.590  0.00  0.00    +0.163 HD
ATOM      6  H   UNL     1      -2.496 -25.168  12.882  0.00  0.00    +0.159 HD
ATOM      7  H   UNL     1      -1.643 -24.147  11.787  0.00  0.00    +0.159 HD
ATOM      8  H   UNL     1      -1.638 -23.407  15.815  0.00  0.00    +0.159 HD
ATOM      9  H   UNL     1      -2.493 -24.748  15.159  0.00  0.00    +0.159 HD
ENDROOT
BRANCH   1  10
ATOM     10  C   UNL     1      -0.278 -21.611  14.583  0.00  0.00    +0.151 C 
BRANCH  10  11
ATOM     11  C   UNL     1       1.107 -21.996  15.022  0.00  0.00    -0.028 A 
ATOM     12  C   UNL     1       1.302 -22.733  16.199  0.00  0.00    +0.005 A 
ATOM     13  C   UNL     1       2.230 -21.632  14.262  0.00  0.00    +0.005 A 
ATOM     14  C   UNL     1       2.586 -23.117  16.592  0.00  0.00    +0.000 A 
ATOM     15  C   UNL     1       3.511 -22.017  14.658  0.00  0.00    +0.000 A 
ATOM     16  C   UNL     1       3.688 -22.761  15.821  0.00  0.00    +0.000 A 
ENDBRANCH  10  11
ENDBRANCH   1  10
TORSDOF 2
ENDMDL
