MODEL 1
REMARK VINA RESULT:    -5.884      0.000      0.000
REMARK INTER + INTRA:          -6.692
REMARK INTER:                  -6.572
REMARK INTRA:                  -0.120
REMARK UNBOUND:                -0.120
REMARK  Name = 1550473
REMARK  2 active torsions:
REMARK  status: ('A' for Active; 'I' for Inactive)
REMARK    1  A    between atoms: N_1  and  C_4
REMARK    2  A    between atoms: C_4  and  C_5
REMARK                            x       y       z     vdW  Elec       q    Type
REMARK                         _______ _______ _______ _____ _____    ______ ____
ROOT
ATOM      1  N   UNL     1       1.600  10.244  12.889  0.00  0.00    -0.354 N 
ATOM      2  N   UNL     1       1.237  10.499  10.616  0.00  0.00    -0.372 N 
ATOM      3  N   UNL     1      -0.566  10.509  12.036  0.00  0.00    -0.372 N 
ATOM      4  C   UNL     1       0.757  10.415  11.863  0.00  0.00    +0.166 C 
ATOM      5  H   UNL     1       2.590  10.150  12.689  0.00  0.00    +0.163 HD
ATOM      6  H   UNL     1       0.625  10.632   9.822  0.00  0.00    +0.159 HD
ATOM      7  H   UNL     1       2.230  10.451  10.423  0.00  0.00    +0.159 HD
ATOM      8  H   UNL     1      -0.992  10.448  12.951  0.00  0.00    +0.159 HD
ATOM      9  H   UNL     1      -1.196  10.631  11.253  0.00  0.00    +0.159 HD
ENDROOT
BRANCH   1  10
ATOM     10  C   UNL     1       1.185  10.194  14.290  0.00  0.00    +0.151 C 
BRANCH  10  11
ATOM     11  C   UNL     1       2.022   9.177  15.015  0.00  0.00    -0.028 A 
ATOM     12  C   UNL     1       3.385   9.033  14.716  0.00  0.00    +0.005 A 
ATOM     13  C   UNL     1       1.460   8.357  16.006  0.00  0.00    +0.005 A 
ATOM     14  C   UNL     1       4.170   8.110  15.411  0.00  0.00    +0.000 A 
ATOM     15  C   UNL     1       2.247   7.436  16.696  0.00  0.00    +0.000 A 
ATOM     16  C   UNL     1       3.603   7.314  16.400  0.00  0.00    +0.000 A 
ENDBRANCH  10  11
ENDBRANCH   1  10
TORSDOF 2
ENDMDL
MODEL 2
REMARK VINA RESULT:    -5.309     23.058     24.379
REMARK INTER + INTRA:          -6.050
REMARK INTER:                  -5.917
REMARK INTRA:                  -0.133
REMARK UNBOUND:                -0.120
REMARK  Name = 1550473
REMARK  2 active torsions:
REMARK  status: ('A' for Active; 'I' for Inactive)
REMARK    1  A    between atoms: N_1  and  C_4
REMARK    2  A    between atoms: C_4  and  C_5
REMARK                            x       y       z     vdW  Elec       q    Type
REMARK                         _______ _______ _______ _____ _____    ______ ____
ROOT
ATOM      1  N   UNL     1       7.668   7.278  -8.915  0.00  0.00    -0.354 N 
ATOM      2  N   UNL     1       5.717   7.682  -7.735  0.00  0.00    -0.372 N 
ATOM      3  N   UNL     1       6.921   9.466  -8.530  0.00  0.00    -0.372 N 
ATOM      4  C   UNL     1       6.782   8.142  -8.401  0.00  0.00    +0.166 C 
ATOM      5  H   UNL     1       7.522   6.288  -8.757  0.00  0.00    +0.163 HD
ATOM      6  H   UNL     1       5.029   8.309  -7.340  0.00  0.00    +0.159 HD
ATOM      7  H   UNL     1       5.549   6.690  -7.619  0.00  0.00    +0.159 HD
ATOM      8  H   UNL     1       7.706   9.877  -9.016  0.00  0.00    +0.159 HD
ATOM      9  H   UNL     1       6.250  10.110  -8.131  0.00  0.00    +0.159 HD
ENDROOT
BRANCH   1  10
ATOM     10  C   UNL     1       8.834   7.674  -9.703  0.00  0.00    +0.151 C 
BRANCH  10  11
ATOM     11  C   UNL     1      10.022   6.862  -9.267  0.00  0.00    -0.028 A 
ATOM     12  C   UNL     1      10.414   6.842  -7.920  0.00  0.00    +0.005 A 
ATOM     13  C   UNL     1      10.755   6.106 -10.193  0.00  0.00    +0.005 A 
ATOM     14  C   UNL     1      11.499   6.064  -7.509  0.00  0.00    +0.000 A 
ATOM     15  C   UNL     1      11.838   5.331  -9.779  0.00  0.00    +0.000 A 
ATOM     16  C   UNL     1      12.208   5.308  -8.437  0.00  0.00    +0.000 A 
ENDBRANCH  10  11
ENDBRANCH   1  10
TORSDOF 2
ENDMDL
MODEL 3
REMARK VINA RESULT:    -5.236     22.815     23.929
REMARK INTER + INTRA:          -5.968
REMARK INTER:                  -5.796
REMARK INTRA:                  -0.172
REMARK UNBOUND:                -0.120
REMARK  Name = 1550473
REMARK  2 active torsions:
REMARK  status: ('A' for Active; 'I' for Inactive)
REMARK    1  A    between atoms: N_1  and  C_4
REMARK    2  A    between atoms: C_4  and  C_5
REMARK                            x       y       z     vdW  Elec       q    Type
REMARK                         _______ _______ _______ _____ _____    ______ ____
ROOT
ATOM      1  N   UNL     1       3.847  10.172 -10.073  0.00  0.00    -0.354 N 
ATOM      2  N   UNL     1       5.174   8.719  -8.852  0.00  0.00    -0.372 N 
ATOM      3  N   UNL     1       5.668  10.960  -8.825  0.00  0.00    -0.372 N 
ATOM      4  C   UNL     1       4.889   9.962  -9.258  0.00  0.00    +0.166 C 
ATOM      5  H   UNL     1       3.314   9.370 -10.389  0.00  0.00    +0.163 HD
ATOM      6  H   UNL     1       5.952   8.530  -8.234  0.00  0.00    +0.159 HD
ATOM      7  H   UNL     1       4.612   7.925  -9.133  0.00  0.00    +0.159 HD
ATOM      8  H   UNL     1       5.509  11.920  -9.100  0.00  0.00    +0.159 HD
ATOM      9  H   UNL     1       6.458  10.789  -8.216  0.00  0.00    +0.159 HD
ENDROOT
BRANCH   1  10
ATOM     10  C   UNL     1       3.419  11.493 -10.529  0.00  0.00    +0.151 C 
BRANCH  10  11
ATOM     11  C   UNL     1       2.213  11.920  -9.738  0.00  0.00    -0.028 A 
ATOM     12  C   UNL     1       2.365  12.596  -8.518  0.00  0.00    +0.005 A 
ATOM     13  C   UNL     1       0.917  11.656 -10.205  0.00  0.00    +0.005 A 
ATOM     14  C   UNL     1       1.245  13.018  -7.798  0.00  0.00    +0.000 A 
ATOM     15  C   UNL     1      -0.199  12.079  -9.482  0.00  0.00    +0.000 A 
ATOM     16  C   UNL     1      -0.034  12.762  -8.280  0.00  0.00    +0.000 A 
ENDBRANCH  10  11
ENDBRANCH   1  10
TORSDOF 2
ENDMDL
MODEL 4
REMARK VINA RESULT:    -5.016     10.012     11.596
REMARK INTER + INTRA:          -5.722
REMARK INTER:                  -5.627
REMARK INTRA:                  -0.095
REMARK UNBOUND:                -0.120
REMARK  Name = 1550473
REMARK  2 active torsions:
REMARK  status: ('A' for Active; 'I' for Inactive)
REMARK    1  A    between atoms: N_1  and  C_4
REMARK    2  A    between atoms: C_4  and  C_5
REMARK                            x       y       z     vdW  Elec       q    Type
REMARK                         _______ _______ _______ _____ _____    ______ ____
ROOT
ATOM      1  N   UNL     1       2.044   0.601  19.139  0.00  0.00    -0.354 N 
ATOM      2  N   UNL     1       3.266   2.386  19.967  0.00  0.00    -0.372 N 
ATOM      3  N   UNL     1       3.217   2.032  17.700  0.00  0.00    -0.372 N 
ATOM      4  C   UNL     1       2.835   1.661  18.927  0.00  0.00    +0.166 C 
ATOM      5  H   UNL     1       1.814   0.355  20.095  0.00  0.00    +0.163 HD
ATOM      6  H   UNL     1       3.861   3.193  19.838  0.00  0.00    +0.159 HD
ATOM      7  H   UNL     1       2.998   2.164  20.918  0.00  0.00    +0.159 HD
ATOM      8  H   UNL     1       2.931   1.524  16.874  0.00  0.00    +0.159 HD
ATOM      9  H   UNL     1       3.822   2.830  17.552  0.00  0.00    +0.159 HD
ENDROOT
BRANCH   1  10
ATOM     10  C   UNL     1       1.476  -0.222  18.072  0.00  0.00    +0.151 C 
BRANCH  10  11
ATOM     11  C   UNL     1       0.689  -1.347  18.685  0.00  0.00    -0.028 A 
ATOM     12  C   UNL     1       1.346  -2.413  19.318  0.00  0.00    +0.005 A 
ATOM     13  C   UNL     1      -0.713  -1.350  18.641  0.00  0.00    +0.005 A 
ATOM     14  C   UNL     1       0.614  -3.443  19.914  0.00  0.00    +0.000 A 
ATOM     15  C   UNL     1      -1.440  -2.381  19.236  0.00  0.00    +0.000 A 
ATOM     16  C   UNL     1      -0.776  -3.426  19.875  0.00  0.00    +0.000 A 
ENDBRANCH  10  11
ENDBRANCH   1  10
TORSDOF 2
ENDMDL
MODEL 5
REMARK VINA RESULT:    -4.914      2.325      5.295
REMARK INTER + INTRA:          -5.608
REMARK INTER:                  -5.473
REMARK INTRA:                  -0.135
REMARK UNBOUND:                -0.120
REMARK  Name = 1550473
REMARK  2 active torsions:
REMARK  status: ('A' for Active; 'I' for Inactive)
REMARK    1  A    between atoms: N_1  and  C_4
REMARK    2  A    between atoms: C_4  and  C_5
REMARK                            x       y       z     vdW  Elec       q    Type
REMARK                         _______ _______ _______ _____ _____    ______ ____
ROOT
ATOM      1  N   UNL     1       1.810  10.621  14.436  0.00  0.00    -0.354 N 
ATOM      2  N   UNL     1       3.908  10.327  15.373  0.00  0.00    -0.372 N 
ATOM      3  N   UNL     1       2.409   8.592  15.443  0.00  0.00    -0.372 N 
ATOM      4  C   UNL     1       2.694   9.846  15.079  0.00  0.00    +0.166 C 
ATOM      5  H   UNL     1       2.077  11.573  14.214  0.00  0.00    +0.163 HD
ATOM      6  H   UNL     1       4.597   9.765  15.854  0.00  0.00    +0.159 HD
ATOM      7  H   UNL     1       4.188  11.264  15.109  0.00  0.00    +0.159 HD
ATOM      8  H   UNL     1       1.508   8.171  15.256  0.00  0.00    +0.159 HD
ATOM      9  H   UNL     1       3.081   8.017  15.936  0.00  0.00    +0.159 HD
ENDROOT
BRANCH   1  10
ATOM     10  C   UNL     1       0.481  10.175  14.021  0.00  0.00    +0.151 C 
BRANCH  10  11
ATOM     11  C   UNL     1       0.215  10.659  12.623  0.00  0.00    -0.028 A 
ATOM     12  C   UNL     1       1.221  10.606  11.647  0.00  0.00    +0.005 A 
ATOM     13  C   UNL     1      -1.044  11.166  12.265  0.00  0.00    +0.005 A 
ATOM     14  C   UNL     1       0.966  11.027  10.340  0.00  0.00    +0.000 A 
ATOM     15  C   UNL     1      -1.295  11.586  10.958  0.00  0.00    +0.000 A 
ATOM     16  C   UNL     1      -0.291  11.514   9.996  0.00  0.00    +0.000 A 
ENDBRANCH  10  11
ENDBRANCH   1  10
TORSDOF 2
ENDMDL
MODEL 6
REMARK VINA RESULT:    -4.886     23.767     24.860
REMARK INTER + INTRA:          -5.578
REMARK INTER:                  -5.445
REMARK INTRA:                  -0.133
REMARK UNBOUND:                -0.120
REMARK  Name = 1550473
REMARK  2 active torsions:
REMARK  status: ('A' for Active; 'I' for Inactive)
REMARK    1  A    between atoms: N_1  and  C_4
REMARK    2  A    between atoms: C_4  and  C_5
REMARK                            x       y       z     vdW  Elec       q    Type
REMARK                         _______ _______ _______ _____ _____    ______ ____
ROOT
ATOM      1  N   UNL     1       3.746  10.913 -10.001  0.00  0.00    -0.354 N 
ATOM      2  N   UNL     1       5.639  10.907  -8.667  0.00  0.00    -0.372 N 
ATOM      3  N   UNL     1       4.901   8.924  -9.555  0.00  0.00    -0.372 N 
ATOM      4  C   UNL     1       4.749  10.245  -9.417  0.00  0.00    +0.166 C 
ATOM      5  H   UNL     1       3.669  11.910  -9.833  0.00  0.00    +0.163 HD
ATOM      6  H   UNL     1       6.409  10.430  -8.217  0.00  0.00    +0.159 HD
ATOM      7  H   UNL     1       5.586  11.910  -8.538  0.00  0.00    +0.159 HD
ATOM      8  H   UNL     1       4.260   8.365 -10.103  0.00  0.00    +0.159 HD
ATOM      9  H   UNL     1       5.658   8.427  -9.102  0.00  0.00    +0.159 HD
ENDROOT
BRANCH   1  10
ATOM     10  C   UNL     1       2.755  10.295 -10.881  0.00  0.00    +0.151 C 
BRANCH  10  11
ATOM     11  C   UNL     1       1.437  10.999 -10.708  0.00  0.00    -0.028 A 
ATOM     12  C   UNL     1       0.406  10.820 -11.641  0.00  0.00    +0.005 A 
ATOM     13  C   UNL     1       1.212  11.841  -9.608  0.00  0.00    +0.005 A 
ATOM     14  C   UNL     1      -0.828  11.449 -11.464  0.00  0.00    +0.000 A 
ATOM     15  C   UNL     1      -0.022  12.468  -9.436  0.00  0.00    +0.000 A 
ATOM     16  C   UNL     1      -1.043  12.270 -10.363  0.00  0.00    +0.000 A 
ENDBRANCH  10  11
ENDBRANCH   1  10
TORSDOF 2
ENDMDL
MODEL 7
REMARK VINA RESULT:    -4.614     10.778     12.365
REMARK INTER + INTRA:          -5.274
REMARK INTER:                  -5.092
REMARK INTRA:                  -0.182
REMARK UNBOUND:                -0.120
REMARK  Name = 1550473
REMARK  2 active torsions:
REMARK  status: ('A' for Active; 'I' for Inactive)
REMARK    1  A    between atoms: N_1  and  C_4
REMARK    2  A    between atoms: C_4  and  C_5
REMARK                            x       y       z     vdW  Elec       q    Type
REMARK                         _______ _______ _______ _____ _____    ______ ____
ROOT
ATOM      1  N   UNL     1       1.369  -0.853  19.109  0.00  0.00    -0.354 N 
ATOM      2  N   UNL     1       1.991   1.096  18.023  0.00  0.00    -0.372 N 
ATOM      3  N   UNL     1       0.800  -0.487  16.865  0.00  0.00    -0.372 N 
ATOM      4  C   UNL     1       1.381  -0.096  18.004  0.00  0.00    +0.166 C 
ATOM      5  H   UNL     1       1.854  -0.513  19.931  0.00  0.00    +0.163 HD
ATOM      6  H   UNL     1       2.013   1.691  17.206  0.00  0.00    +0.159 HD
ATOM      7  H   UNL     1       2.435   1.454  18.860  0.00  0.00    +0.159 HD
ATOM      8  H   UNL     1       0.329  -1.378  16.783  0.00  0.00    +0.159 HD
ATOM      9  H   UNL     1       0.822   0.089  16.033  0.00  0.00    +0.159 HD
ENDROOT
BRANCH   1  10
ATOM     10  C   UNL     1       0.687  -2.143  19.209  0.00  0.00    +0.151 C 
BRANCH  10  11
ATOM     11  C   UNL     1      -0.623  -1.951  19.921  0.00  0.00    -0.028 A 
ATOM     12  C   UNL     1      -1.836  -2.150  19.246  0.00  0.00    +0.005 A 
ATOM     13  C   UNL     1      -0.658  -1.577  21.273  0.00  0.00    +0.005 A 
ATOM     14  C   UNL     1      -3.053  -2.002  19.916  0.00  0.00    +0.000 A 
ATOM     15  C   UNL     1      -1.875  -1.429  21.938  0.00  0.00    +0.000 A 
ATOM     16  C   UNL     1      -3.073  -1.644  21.259  0.00  0.00    +0.000 A 
ENDBRANCH  10  11
ENDBRANCH   1  10
TORSDOF 2
ENDMDL
MODEL 8
REMARK VINA RESULT:    -4.514     20.417     21.559
REMARK INTER + INTRA:          -5.162
REMARK INTER:                  -5.044
REMARK INTRA:                  -0.118
REMARK UNBOUND:                -0.120
REMARK  Name = 1550473
REMARK  2 active torsions:
REMARK  status: ('A' for Active; 'I' for Inactive)
REMARK    1  A    between atoms: N_1  and  C_4
REMARK    2  A    between atoms: C_4  and  C_5
REMARK                            x       y       z     vdW  Elec       q    Type
REMARK                         _______ _______ _______ _____ _____    ______ ____
ROOT
ATOM      1  N   UNL     1      13.429  -4.698   6.044  0.00  0.00    -0.354 N 
ATOM      2  N   UNL     1      11.683  -3.178   5.955  0.00  0.00    -0.372 N 
ATOM      3  N   UNL     1      12.072  -4.308   7.914  0.00  0.00    -0.372 N 
ATOM      4  C   UNL     1      12.405  -4.072   6.641  0.00  0.00    +0.166 C 
ATOM      5  H   UNL     1      13.612  -4.497   5.067  0.00  0.00    +0.163 HD
ATOM      6  H   UNL     1      10.907  -2.688   6.381  0.00  0.00    +0.159 HD
ATOM      7  H   UNL     1      11.897  -2.945   4.993  0.00  0.00    +0.159 HD
ATOM      8  H   UNL     1      12.573  -4.975   8.485  0.00  0.00    +0.159 HD
ATOM      9  H   UNL     1      11.291  -3.836   8.354  0.00  0.00    +0.159 HD
ENDROOT
BRANCH   1  10
ATOM     10  C   UNL     1      14.311  -5.648   6.718  0.00  0.00    +0.151 C 
BRANCH  10  11
ATOM     11  C   UNL     1      15.356  -6.122   5.746  0.00  0.00    -0.028 A 
ATOM     12  C   UNL     1      15.751  -5.309   4.673  0.00  0.00    +0.005 A 
ATOM     13  C   UNL     1      15.960  -7.380   5.895  0.00  0.00    +0.005 A 
ATOM     14  C   UNL     1      16.744  -5.736   3.787  0.00  0.00    +0.000 A 
ATOM     15  C   UNL     1      16.950  -7.803   5.008  0.00  0.00    +0.000 A 
ATOM     16  C   UNL     1      17.343  -6.980   3.956  0.00  0.00    +0.000 A 
ENDBRANCH  10  11
ENDBRANCH   1  10
TORSDOF 2
ENDMDL
MODEL 9
REMARK VINA RESULT:    -4.446     14.933     16.151
REMARK INTER + INTRA:          -5.086
REMARK INTER:                  -4.910
REMARK INTRA:                  -0.176
REMARK UNBOUND:                -0.120
REMARK  Name = 1550473
REMARK  2 active torsions:
REMARK  status: ('A' for Active; 'I' for Inactive)
REMARK    1  A    between atoms: N_1  and  C_4
REMARK    2  A    between atoms: C_4  and  C_5
REMARK                            x       y       z     vdW  Elec       q    Type
REMARK                         _______ _______ _______ _____ _____    ______ ____
ROOT
ATOM      1  N   UNL     1      13.075  -2.186   8.316  0.00  0.00    -0.354 N 
ATOM      2  N   UNL     1      11.661  -3.037   6.692  0.00  0.00    -0.372 N 
ATOM      3  N   UNL     1      12.346  -4.412   8.396  0.00  0.00    -0.372 N 
ATOM      4  C   UNL     1      12.370  -3.208   7.814  0.00  0.00    +0.166 C 
ATOM      5  H   UNL     1      13.076  -1.307   7.811  0.00  0.00    +0.163 HD
ATOM      6  H   UNL     1      11.117  -3.789   6.291  0.00  0.00    +0.159 HD
ATOM      7  H   UNL     1      11.627  -2.145   6.213  0.00  0.00    +0.159 HD
ATOM      8  H   UNL     1      12.865  -4.607   9.242  0.00  0.00    +0.159 HD
ATOM      9  H   UNL     1      11.817  -5.180   8.004  0.00  0.00    +0.159 HD
ENDROOT
BRANCH   1  10
ATOM     10  C   UNL     1      13.838  -2.252   9.562  0.00  0.00    +0.151 C 
BRANCH  10  11
ATOM     11  C   UNL     1      12.989  -1.726  10.686  0.00  0.00    -0.028 A 
ATOM     12  C   UNL     1      12.782  -0.347  10.837  0.00  0.00    +0.005 A 
ATOM     13  C   UNL     1      12.385  -2.602  11.601  0.00  0.00    +0.005 A 
ATOM     14  C   UNL     1      11.969   0.140  11.863  0.00  0.00    +0.000 A 
ATOM     15  C   UNL     1      11.575  -2.112  12.625  0.00  0.00    +0.000 A 
ATOM     16  C   UNL     1      11.365  -0.741  12.754  0.00  0.00    +0.000 A 
ENDBRANCH  10  11
ENDBRANCH   1  10
TORSDOF 2
ENDMDL
