MODEL 1
REMARK VINA RESULT:    -4.895      0.000      0.000
REMARK INTER + INTRA:          -5.625
REMARK INTER:                  -5.467
REMARK INTRA:                  -0.158
REMARK UNBOUND:                -0.158
REMARK  Name = 1550473
REMARK  2 active torsions:
REMARK  status: ('A' for Active; 'I' for Inactive)
REMARK    1  A    between atoms: N_1  and  C_4
REMARK    2  A    between atoms: C_4  and  C_5
REMARK                            x       y       z     vdW  Elec       q    Type
REMARK                         _______ _______ _______ _____ _____    ______ ____
ROOT
ATOM      1  N   UNL     1       7.059 -10.745  -3.399  0.00  0.00    -0.354 N 
ATOM      2  N   UNL     1       8.138 -10.696  -1.351  0.00  0.00    -0.372 N 
ATOM      3  N   UNL     1       8.444 -12.510  -2.722  0.00  0.00    -0.372 N 
ATOM      4  C   UNL     1       7.874 -11.320  -2.505  0.00  0.00    +0.166 C 
ATOM      5  H   UNL     1       6.634  -9.856  -3.162  0.00  0.00    +0.163 HD
ATOM      6  H   UNL     1       8.752 -11.104  -0.658  0.00  0.00    +0.159 HD
ATOM      7  H   UNL     1       7.749  -9.786  -1.136  0.00  0.00    +0.159 HD
ATOM      8  H   UNL     1       8.280 -13.035  -3.571  0.00  0.00    +0.159 HD
ATOM      9  H   UNL     1       9.052 -12.940  -2.036  0.00  0.00    +0.159 HD
ENDROOT
BRANCH   1  10
ATOM     10  C   UNL     1       6.749 -11.316  -4.709  0.00  0.00    +0.151 C 
BRANCH  10  11
ATOM     11  C   UNL     1       5.412 -12.000  -4.643  0.00  0.00    -0.028 A 
ATOM     12  C   UNL     1       4.397 -11.502  -3.812  0.00  0.00    +0.005 A 
ATOM     13  C   UNL     1       5.150 -13.144  -5.413  0.00  0.00    +0.005 A 
ATOM     14  C   UNL     1       3.145 -12.120  -3.772  0.00  0.00    +0.000 A 
ATOM     15  C   UNL     1       3.899 -13.758  -5.370  0.00  0.00    +0.000 A 
ATOM     16  C   UNL     1       2.896 -13.244  -4.552  0.00  0.00    +0.000 A 
ENDBRANCH  10  11
ENDBRANCH   1  10
TORSDOF 2
ENDMDL
MODEL 2
REMARK VINA RESULT:    -4.651     28.220     29.465
REMARK INTER + INTRA:          -5.352
REMARK INTER:                  -5.226
REMARK INTRA:                  -0.126
REMARK UNBOUND:                -0.158
REMARK  Name = 1550473
REMARK  2 active torsions:
REMARK  status: ('A' for Active; 'I' for Inactive)
REMARK    1  A    between atoms: N_1  and  C_4
REMARK    2  A    between atoms: C_4  and  C_5
REMARK                            x       y       z     vdW  Elec       q    Type
REMARK                         _______ _______ _______ _____ _____    ______ ____
ROOT
ATOM      1  N   UNL     1     -12.241   7.245   6.826  0.00  0.00    -0.354 N 
ATOM      2  N   UNL     1     -10.452   8.107   8.018  0.00  0.00    -0.372 N 
ATOM      3  N   UNL     1     -10.478   8.338   5.735  0.00  0.00    -0.372 N 
ATOM      4  C   UNL     1     -11.068   7.891   6.849  0.00  0.00    +0.166 C 
ATOM      5  H   UNL     1     -12.621   6.905   7.702  0.00  0.00    +0.163 HD
ATOM      6  H   UNL     1      -9.568   8.595   8.067  0.00  0.00    +0.159 HD
ATOM      7  H   UNL     1     -10.856   7.806   8.896  0.00  0.00    +0.159 HD
ATOM      8  H   UNL     1     -10.889   8.203   4.821  0.00  0.00    +0.159 HD
ATOM      9  H   UNL     1      -9.588   8.819   5.763  0.00  0.00    +0.159 HD
ENDROOT
BRANCH   1  10
ATOM     10  C   UNL     1     -13.019   7.007   5.612  0.00  0.00    +0.151 C 
BRANCH  10  11
ATOM     11  C   UNL     1     -14.484   7.036   5.953  0.00  0.00    -0.028 A 
ATOM     12  C   UNL     1     -15.443   7.259   4.955  0.00  0.00    +0.005 A 
ATOM     13  C   UNL     1     -14.918   6.834   7.273  0.00  0.00    +0.005 A 
ATOM     14  C   UNL     1     -16.805   7.256   5.267  0.00  0.00    +0.000 A 
ATOM     15  C   UNL     1     -16.279   6.833   7.580  0.00  0.00    +0.000 A 
ATOM     16  C   UNL     1     -17.222   7.041   6.577  0.00  0.00    +0.000 A 
ENDBRANCH  10  11
ENDBRANCH   1  10
TORSDOF 2
ENDMDL
MODEL 3
REMARK VINA RESULT:    -4.316     27.339     29.076
REMARK INTER + INTRA:          -4.978
REMARK INTER:                  -4.831
REMARK INTRA:                  -0.147
REMARK UNBOUND:                -0.158
REMARK  Name = 1550473
REMARK  2 active torsions:
REMARK  status: ('A' for Active; 'I' for Inactive)
REMARK    1  A    between atoms: N_1  and  C_4
REMARK    2  A    between atoms: C_4  and  C_5
REMARK                            x       y       z     vdW  Elec       q    Type
REMARK                         _______ _______ _______ _____ _____    ______ ____
ROOT
ATOM      1  N   UNL     1      19.200  10.935   5.607  0.00  0.00    -0.354 N 
ATOM      2  N   UNL     1      18.913   8.644   5.796  0.00  0.00    -0.372 N 
ATOM      3  N   UNL     1      21.030   9.476   5.490  0.00  0.00    -0.372 N 
ATOM      4  C   UNL     1      19.719   9.700   5.629  0.00  0.00    +0.166 C 
ATOM      5  H   UNL     1      18.194  11.035   5.687  0.00  0.00    +0.163 HD
ATOM      6  H   UNL     1      19.277   7.701   5.821  0.00  0.00    +0.159 HD
ATOM      7  H   UNL     1      17.914   8.751   5.922  0.00  0.00    +0.159 HD
ATOM      8  H   UNL     1      21.691  10.229   5.355  0.00  0.00    +0.159 HD
ATOM      9  H   UNL     1      21.411   8.538   5.500  0.00  0.00    +0.159 HD
ENDROOT
BRANCH   1  10
ATOM     10  C   UNL     1      19.996  12.154   5.484  0.00  0.00    +0.151 C 
BRANCH  10  11
ATOM     11  C   UNL     1      19.488  12.958   4.319  0.00  0.00    -0.028 A 
ATOM     12  C   UNL     1      19.164  14.313   4.476  0.00  0.00    +0.005 A 
ATOM     13  C   UNL     1      19.333  12.370   3.054  0.00  0.00    +0.005 A 
ATOM     14  C   UNL     1      18.721  15.068   3.387  0.00  0.00    +0.000 A 
ATOM     15  C   UNL     1      18.889  13.127   1.969  0.00  0.00    +0.000 A 
ATOM     16  C   UNL     1      18.586  14.476   2.135  0.00  0.00    +0.000 A 
ENDBRANCH  10  11
ENDBRANCH   1  10
TORSDOF 2
ENDMDL
MODEL 4
REMARK VINA RESULT:    -4.245     10.332     13.210
REMARK INTER + INTRA:          -4.899
REMARK INTER:                  -4.801
REMARK INTRA:                  -0.098
REMARK UNBOUND:                -0.158
REMARK  Name = 1550473
REMARK  2 active torsions:
REMARK  status: ('A' for Active; 'I' for Inactive)
REMARK    1  A    between atoms: N_1  and  C_4
REMARK    2  A    between atoms: C_4  and  C_5
REMARK                            x       y       z     vdW  Elec       q    Type
REMARK                         _______ _______ _______ _____ _____    ______ ____
ROOT
ATOM      1  N   UNL     1       8.425  -7.198   5.587  0.00  0.00    -0.354 N 
ATOM      2  N   UNL     1       7.238  -9.044   4.848  0.00  0.00    -0.372 N 
ATOM      3  N   UNL     1       6.081  -7.200   5.572  0.00  0.00    -0.372 N 
ATOM      4  C   UNL     1       7.254  -7.800   5.341  0.00  0.00    +0.166 C 
ATOM      5  H   UNL     1       9.278  -7.718   5.418  0.00  0.00    +0.163 HD
ATOM      6  H   UNL     1       6.370  -9.523   4.649  0.00  0.00    +0.159 HD
ATOM      7  H   UNL     1       8.093  -9.545   4.637  0.00  0.00    +0.159 HD
ATOM      8  H   UNL     1       6.025  -6.263   5.950  0.00  0.00    +0.159 HD
ATOM      9  H   UNL     1       5.202  -7.667   5.391  0.00  0.00    +0.159 HD
ENDROOT
BRANCH   1  10
ATOM     10  C   UNL     1       8.552  -5.825   6.074  0.00  0.00    +0.151 C 
BRANCH  10  11
ATOM     11  C   UNL     1       9.973  -5.586   6.503  0.00  0.00    -0.028 A 
ATOM     12  C   UNL     1      10.809  -4.740   5.760  0.00  0.00    +0.005 A 
ATOM     13  C   UNL     1      10.488  -6.198   7.656  0.00  0.00    +0.005 A 
ATOM     14  C   UNL     1      12.120  -4.494   6.175  0.00  0.00    +0.000 A 
ATOM     15  C   UNL     1      11.798  -5.951   8.067  0.00  0.00    +0.000 A 
ATOM     16  C   UNL     1      12.613  -5.097   7.328  0.00  0.00    +0.000 A 
ENDBRANCH  10  11
ENDBRANCH   1  10
TORSDOF 2
ENDMDL
MODEL 5
REMARK VINA RESULT:    -4.241     12.781     13.928
REMARK INTER + INTRA:          -4.894
REMARK INTER:                  -4.772
REMARK INTRA:                  -0.121
REMARK UNBOUND:                -0.158
REMARK  Name = 1550473
REMARK  2 active torsions:
REMARK  status: ('A' for Active; 'I' for Inactive)
REMARK    1  A    between atoms: N_1  and  C_4
REMARK    2  A    between atoms: C_4  and  C_5
REMARK                            x       y       z     vdW  Elec       q    Type
REMARK                         _______ _______ _______ _____ _____    ______ ____
ROOT
ATOM      1  N   UNL     1      17.663  -5.557   0.178  0.00  0.00    -0.354 N 
ATOM      2  N   UNL     1      18.868  -5.324   2.142  0.00  0.00    -0.372 N 
ATOM      3  N   UNL     1      17.677  -7.254   1.793  0.00  0.00    -0.372 N 
ATOM      4  C   UNL     1      18.060  -6.049   1.359  0.00  0.00    +0.166 C 
ATOM      5  H   UNL     1      17.964  -4.624  -0.081  0.00  0.00    +0.163 HD
ATOM      6  H   UNL     1      19.187  -5.671   3.037  0.00  0.00    +0.159 HD
ATOM      7  H   UNL     1      19.205  -4.411   1.861  0.00  0.00    +0.159 HD
ATOM      8  H   UNL     1      17.063  -7.848   1.252  0.00  0.00    +0.159 HD
ATOM      9  H   UNL     1      17.976  -7.614   2.691  0.00  0.00    +0.159 HD
ENDROOT
BRANCH   1  10
ATOM     10  C   UNL     1      16.827  -6.287  -0.773  0.00  0.00    +0.151 C 
BRANCH  10  11
ATOM     11  C   UNL     1      17.101  -5.776  -2.161  0.00  0.00    -0.028 A 
ATOM     12  C   UNL     1      16.045  -5.542  -3.054  0.00  0.00    +0.005 A 
ATOM     13  C   UNL     1      18.413  -5.518  -2.587  0.00  0.00    +0.005 A 
ATOM     14  C   UNL     1      16.296  -5.039  -4.333  0.00  0.00    +0.000 A 
ATOM     15  C   UNL     1      18.659  -5.016  -3.865  0.00  0.00    +0.000 A 
ATOM     16  C   UNL     1      17.600  -4.775  -4.737  0.00  0.00    +0.000 A 
ENDBRANCH  10  11
ENDBRANCH   1  10
TORSDOF 2
ENDMDL
MODEL 6
REMARK VINA RESULT:    -4.192      9.459     11.756
REMARK INTER + INTRA:          -4.840
REMARK INTER:                  -4.731
REMARK INTRA:                  -0.109
REMARK UNBOUND:                -0.158
REMARK  Name = 1550473
REMARK  2 active torsions:
REMARK  status: ('A' for Active; 'I' for Inactive)
REMARK    1  A    between atoms: N_1  and  C_4
REMARK    2  A    between atoms: C_4  and  C_5
REMARK                            x       y       z     vdW  Elec       q    Type
REMARK                         _______ _______ _______ _____ _____    ______ ____
ROOT
ATOM      1  N   UNL     1       8.569  -9.269   5.942  0.00  0.00    -0.354 N 
ATOM      2  N   UNL     1       8.018 -10.510   4.065  0.00  0.00    -0.372 N 
ATOM      3  N   UNL     1       6.531  -8.940   4.833  0.00  0.00    -0.372 N 
ATOM      4  C   UNL     1       7.707  -9.563   4.959  0.00  0.00    +0.166 C 
ATOM      5  H   UNL     1       9.431  -9.799   6.000  0.00  0.00    +0.163 HD
ATOM      6  H   UNL     1       7.389 -10.751   3.311  0.00  0.00    +0.159 HD
ATOM      7  H   UNL     1       8.900 -11.005   4.099  0.00  0.00    +0.159 HD
ATOM      8  H   UNL     1       6.234  -8.221   5.479  0.00  0.00    +0.159 HD
ATOM      9  H   UNL     1       5.883  -9.176   4.092  0.00  0.00    +0.159 HD
ENDROOT
BRANCH   1  10
ATOM     10  C   UNL     1       8.350  -8.219   6.934  0.00  0.00    +0.151 C 
BRANCH  10  11
ATOM     11  C   UNL     1       8.782  -6.899   6.357  0.00  0.00    -0.028 A 
ATOM     12  C   UNL     1       7.969  -5.764   6.486  0.00  0.00    +0.005 A 
ATOM     13  C   UNL     1      10.008  -6.776   5.684  0.00  0.00    +0.005 A 
ATOM     14  C   UNL     1       8.383  -4.532   5.976  0.00  0.00    +0.000 A 
ATOM     15  C   UNL     1      10.418  -5.544   5.175  0.00  0.00    +0.000 A 
ATOM     16  C   UNL     1       9.607  -4.421   5.324  0.00  0.00    +0.000 A 
ENDBRANCH  10  11
ENDBRANCH   1  10
TORSDOF 2
ENDMDL
MODEL 7
REMARK VINA RESULT:    -4.191     17.314     18.733
REMARK INTER + INTRA:          -4.838
REMARK INTER:                  -4.719
REMARK INTRA:                  -0.119
REMARK UNBOUND:                -0.158
REMARK  Name = 1550473
REMARK  2 active torsions:
REMARK  status: ('A' for Active; 'I' for Inactive)
REMARK    1  A    between atoms: N_1  and  C_4
REMARK    2  A    between atoms: C_4  and  C_5
REMARK                            x       y       z     vdW  Elec       q    Type
REMARK                         _______ _______ _______ _____ _____    ______ ____
ROOT
ATOM      1  N   UNL     1      12.703   0.478 -15.153  0.00  0.00    -0.354 N 
ATOM      2  N   UNL     1      10.890  -0.029 -16.502  0.00  0.00    -0.372 N 
ATOM      3  N   UNL     1      12.774   0.859 -17.464  0.00  0.00    -0.372 N 
ATOM      4  C   UNL     1      12.136   0.441 -16.366  0.00  0.00    +0.166 C 
ATOM      5  H   UNL     1      12.156   0.175 -14.356  0.00  0.00    +0.163 HD
ATOM      6  H   UNL     1      10.437  -0.073 -17.405  0.00  0.00    +0.159 HD
ATOM      7  H   UNL     1      10.362  -0.374 -15.710  0.00  0.00    +0.159 HD
ATOM      8  H   UNL     1      13.714   1.230 -17.429  0.00  0.00    +0.159 HD
ATOM      9  H   UNL     1      12.333   0.834 -18.376  0.00  0.00    +0.159 HD
ENDROOT
BRANCH   1  10
ATOM     10  C   UNL     1      14.074   0.921 -14.905  0.00  0.00    +0.151 C 
BRANCH  10  11
ATOM     11  C   UNL     1      14.286   1.054 -13.422  0.00  0.00    -0.028 A 
ATOM     12  C   UNL     1      15.307   1.875 -12.920  0.00  0.00    +0.005 A 
ATOM     13  C   UNL     1      13.466   0.367 -12.514  0.00  0.00    +0.005 A 
ATOM     14  C   UNL     1      15.486   2.022 -11.542  0.00  0.00    +0.000 A 
ATOM     15  C   UNL     1      13.648   0.517 -11.139  0.00  0.00    +0.000 A 
ATOM     16  C   UNL     1      14.656   1.346 -10.654  0.00  0.00    +0.000 A 
ENDBRANCH  10  11
ENDBRANCH   1  10
TORSDOF 2
ENDMDL
MODEL 8
REMARK VINA RESULT:    -4.151     26.834     27.790
REMARK INTER + INTRA:          -4.794
REMARK INTER:                  -4.653
REMARK INTRA:                  -0.141
REMARK UNBOUND:                -0.158
REMARK  Name = 1550473
REMARK  2 active torsions:
REMARK  status: ('A' for Active; 'I' for Inactive)
REMARK    1  A    between atoms: N_1  and  C_4
REMARK    2  A    between atoms: C_4  and  C_5
REMARK                            x       y       z     vdW  Elec       q    Type
REMARK                         _______ _______ _______ _____ _____    ______ ____
ROOT
ATOM      1  N   UNL     1     -21.891 -17.700   1.844  0.00  0.00    -0.354 N 
ATOM      2  N   UNL     1     -23.460 -16.090   2.402  0.00  0.00    -0.372 N 
ATOM      3  N   UNL     1     -21.602 -15.463   1.211  0.00  0.00    -0.372 N 
ATOM      4  C   UNL     1     -22.305 -16.426   1.814  0.00  0.00    +0.166 C 
ATOM      5  H   UNL     1     -22.455 -18.378   2.343  0.00  0.00    +0.163 HD
ATOM      6  H   UNL     1     -23.799 -15.138   2.393  0.00  0.00    +0.159 HD
ATOM      7  H   UNL     1     -24.044 -16.778   2.861  0.00  0.00    +0.159 HD
ATOM      8  H   UNL     1     -20.719 -15.650   0.754  0.00  0.00    +0.159 HD
ATOM      9  H   UNL     1     -21.919 -14.501   1.201  0.00  0.00    +0.159 HD
ENDROOT
BRANCH   1  10
ATOM     10  C   UNL     1     -20.676 -18.181   1.188  0.00  0.00    +0.151 C 
BRANCH  10  11
ATOM     11  C   UNL     1     -19.722 -18.688   2.233  0.00  0.00    -0.028 A 
ATOM     12  C   UNL     1     -19.203 -19.989   2.153  0.00  0.00    +0.005 A 
ATOM     13  C   UNL     1     -19.327 -17.871   3.304  0.00  0.00    +0.005 A 
ATOM     14  C   UNL     1     -18.294 -20.451   3.107  0.00  0.00    +0.000 A 
ATOM     15  C   UNL     1     -18.420 -18.336   4.255  0.00  0.00    +0.000 A 
ATOM     16  C   UNL     1     -17.901 -19.625   4.155  0.00  0.00    +0.000 A 
ENDBRANCH  10  11
ENDBRANCH   1  10
TORSDOF 2
ENDMDL
MODEL 9
REMARK VINA RESULT:    -4.021     28.715     30.306
REMARK INTER + INTRA:          -4.649
REMARK INTER:                  -4.525
REMARK INTRA:                  -0.124
REMARK UNBOUND:                -0.158
REMARK  Name = 1550473
REMARK  2 active torsions:
REMARK  status: ('A' for Active; 'I' for Inactive)
REMARK    1  A    between atoms: N_1  and  C_4
REMARK    2  A    between atoms: C_4  and  C_5
REMARK                            x       y       z     vdW  Elec       q    Type
REMARK                         _______ _______ _______ _____ _____    ______ ____
ROOT
ATOM      1  N   UNL     1     -21.615   2.890   0.324  0.00  0.00    -0.354 N 
ATOM      2  N   UNL     1     -23.032   4.492  -0.564  0.00  0.00    -0.372 N 
ATOM      3  N   UNL     1     -23.754   2.317  -0.442  0.00  0.00    -0.372 N 
ATOM      4  C   UNL     1     -22.793   3.220  -0.222  0.00  0.00    +0.166 C 
ATOM      5  H   UNL     1     -20.916   3.615   0.437  0.00  0.00    +0.163 HD
ATOM      6  H   UNL     1     -23.913   4.772  -0.975  0.00  0.00    +0.159 HD
ATOM      7  H   UNL     1     -22.349   5.223  -0.408  0.00  0.00    +0.159 HD
ATOM      8  H   UNL     1     -23.634   1.340  -0.212  0.00  0.00    +0.159 HD
ATOM      9  H   UNL     1     -24.638   2.576  -0.863  0.00  0.00    +0.159 HD
ENDROOT
BRANCH   1  10
ATOM     10  C   UNL     1     -21.274   1.544   0.781  0.00  0.00    +0.151 C 
BRANCH  10  11
ATOM     11  C   UNL     1     -19.796   1.476   1.051  0.00  0.00    -0.028 A 
ATOM     12  C   UNL     1     -19.234   0.340   1.653  0.00  0.00    +0.005 A 
ATOM     13  C   UNL     1     -18.952   2.541   0.703  0.00  0.00    +0.005 A 
ATOM     14  C   UNL     1     -17.857   0.265   1.877  0.00  0.00    +0.000 A 
ATOM     15  C   UNL     1     -17.578   2.462   0.928  0.00  0.00    +0.000 A 
ATOM     16  C   UNL     1     -17.031   1.322   1.513  0.00  0.00    +0.000 A 
ENDBRANCH  10  11
ENDBRANCH   1  10
TORSDOF 2
ENDMDL
