MODEL 1
REMARK VINA RESULT:    -5.590      0.000      0.000
REMARK INTER + INTRA:          -6.372
REMARK INTER:                  -6.244
REMARK INTRA:                  -0.128
REMARK UNBOUND:                -0.128
REMARK  Name = 1550473
REMARK  2 active torsions:
REMARK  status: ('A' for Active; 'I' for Inactive)
REMARK    1  A    between atoms: N_1  and  C_4
REMARK    2  A    between atoms: C_4  and  C_5
REMARK                            x       y       z     vdW  Elec       q    Type
REMARK                         _______ _______ _______ _____ _____    ______ ____
ROOT
ATOM      1  N   UNL     1      -2.742  -1.596 -14.433  0.00  0.00    -0.354 N 
ATOM      2  N   UNL     1      -4.050  -3.188 -13.377  0.00  0.00    -0.372 N 
ATOM      3  N   UNL     1      -5.078  -1.415 -14.408  0.00  0.00    -0.372 N 
ATOM      4  C   UNL     1      -3.950  -2.054 -14.080  0.00  0.00    +0.166 C 
ATOM      5  H   UNL     1      -1.924  -2.110 -14.128  0.00  0.00    +0.163 HD
ATOM      6  H   UNL     1      -4.948  -3.560 -13.099  0.00  0.00    +0.159 HD
ATOM      7  H   UNL     1      -3.233  -3.725 -13.112  0.00  0.00    +0.159 HD
ATOM      8  H   UNL     1      -5.071  -0.551 -14.934  0.00  0.00    +0.159 HD
ATOM      9  H   UNL     1      -5.986  -1.766 -14.130  0.00  0.00    +0.159 HD
ENDROOT
BRANCH   1  10
ATOM     10  C   UNL     1      -2.526  -0.399 -15.246  0.00  0.00    +0.151 C 
BRANCH  10  11
ATOM     11  C   UNL     1      -1.923  -0.802 -16.563  0.00  0.00    -0.028 A 
ATOM     12  C   UNL     1      -1.596  -2.143 -16.816  0.00  0.00    +0.005 A 
ATOM     13  C   UNL     1      -1.682   0.150 -17.565  0.00  0.00    +0.005 A 
ATOM     14  C   UNL     1      -1.063  -2.522 -18.050  0.00  0.00    +0.000 A 
ATOM     15  C   UNL     1      -1.150  -0.233 -18.796  0.00  0.00    +0.000 A 
ATOM     16  C   UNL     1      -0.843  -1.569 -19.039  0.00  0.00    +0.000 A 
ENDBRANCH  10  11
ENDBRANCH   1  10
TORSDOF 2
ENDMDL
MODEL 2
REMARK VINA RESULT:    -5.529     10.595     11.568
REMARK INTER + INTRA:          -6.303
REMARK INTER:                  -6.196
REMARK INTRA:                  -0.108
REMARK UNBOUND:                -0.128
REMARK  Name = 1550473
REMARK  2 active torsions:
REMARK  status: ('A' for Active; 'I' for Inactive)
REMARK    1  A    between atoms: N_1  and  C_4
REMARK    2  A    between atoms: C_4  and  C_5
REMARK                            x       y       z     vdW  Elec       q    Type
REMARK                         _______ _______ _______ _____ _____    ______ ____
ROOT
ATOM      1  N   UNL     1       3.465  -6.947 -23.380  0.00  0.00    -0.354 N 
ATOM      2  N   UNL     1       3.967  -8.458 -21.698  0.00  0.00    -0.372 N 
ATOM      3  N   UNL     1       5.215  -8.487 -23.623  0.00  0.00    -0.372 N 
ATOM      4  C   UNL     1       4.214  -7.955 -22.913  0.00  0.00    +0.166 C 
ATOM      5  H   UNL     1       2.702  -6.609 -22.805  0.00  0.00    +0.163 HD
ATOM      6  H   UNL     1       4.517  -9.217 -21.318  0.00  0.00    +0.159 HD
ATOM      7  H   UNL     1       3.233  -8.087 -21.107  0.00  0.00    +0.159 HD
ATOM      8  H   UNL     1       5.449  -8.156 -24.550  0.00  0.00    +0.159 HD
ATOM      9  H   UNL     1       5.770  -9.254 -23.265  0.00  0.00    +0.159 HD
ENDROOT
BRANCH   1  10
ATOM     10  C   UNL     1       3.686  -6.292 -24.668  0.00  0.00    +0.151 C 
BRANCH  10  11
ATOM     11  C   UNL     1       2.355  -5.972 -25.291  0.00  0.00    -0.028 A 
ATOM     12  C   UNL     1       1.701  -4.768 -24.993  0.00  0.00    +0.005 A 
ATOM     13  C   UNL     1       1.746  -6.867 -26.184  0.00  0.00    +0.005 A 
ATOM     14  C   UNL     1       0.479  -4.457 -25.595  0.00  0.00    +0.000 A 
ATOM     15  C   UNL     1       0.525  -6.552 -26.782  0.00  0.00    +0.000 A 
ATOM     16  C   UNL     1      -0.106  -5.346 -26.489  0.00  0.00    +0.000 A 
ENDBRANCH  10  11
ENDBRANCH   1  10
TORSDOF 2
ENDMDL
MODEL 3
REMARK VINA RESULT:    -5.482      7.548      8.560
REMARK INTER + INTRA:          -6.251
REMARK INTER:                  -6.081
REMARK INTRA:                  -0.169
REMARK UNBOUND:                -0.128
REMARK  Name = 1550473
REMARK  2 active torsions:
REMARK  status: ('A' for Active; 'I' for Inactive)
REMARK    1  A    between atoms: N_1  and  C_4
REMARK    2  A    between atoms: C_4  and  C_5
REMARK                            x       y       z     vdW  Elec       q    Type
REMARK                         _______ _______ _______ _____ _____    ______ ____
ROOT
ATOM      1  N   UNL     1       3.092   1.572 -16.137  0.00  0.00    -0.354 N 
ATOM      2  N   UNL     1       3.120  -0.721 -15.814  0.00  0.00    -0.372 N 
ATOM      3  N   UNL     1       3.278   0.100 -17.951  0.00  0.00    -0.372 N 
ATOM      4  C   UNL     1       3.163   0.332 -16.639  0.00  0.00    +0.166 C 
ATOM      5  H   UNL     1       2.975   1.681 -15.136  0.00  0.00    +0.163 HD
ATOM      6  H   UNL     1       3.176  -1.668 -16.164  0.00  0.00    +0.159 HD
ATOM      7  H   UNL     1       3.050  -0.609 -14.810  0.00  0.00    +0.159 HD
ATOM      8  H   UNL     1       3.310   0.852 -18.627  0.00  0.00    +0.159 HD
ATOM      9  H   UNL     1       3.323  -0.841 -18.321  0.00  0.00    +0.159 HD
ENDROOT
BRANCH   1  10
ATOM     10  C   UNL     1       3.183   2.788 -16.945  0.00  0.00    +0.151 C 
BRANCH  10  11
ATOM     11  C   UNL     1       4.480   3.485 -16.637  0.00  0.00    -0.028 A 
ATOM     12  C   UNL     1       5.652   3.147 -17.330  0.00  0.00    +0.005 A 
ATOM     13  C   UNL     1       4.542   4.489 -15.659  0.00  0.00    +0.005 A 
ATOM     14  C   UNL     1       6.850   3.815 -17.066  0.00  0.00    +0.000 A 
ATOM     15  C   UNL     1       5.740   5.153 -15.397  0.00  0.00    +0.000 A 
ATOM     16  C   UNL     1       6.893   4.817 -16.103  0.00  0.00    +0.000 A 
ENDBRANCH  10  11
ENDBRANCH   1  10
TORSDOF 2
ENDMDL
MODEL 4
REMARK VINA RESULT:    -5.480     14.717     15.481
REMARK INTER + INTRA:          -6.248
REMARK INTER:                  -6.121
REMARK INTRA:                  -0.128
REMARK UNBOUND:                -0.128
REMARK  Name = 1550473
REMARK  2 active torsions:
REMARK  status: ('A' for Active; 'I' for Inactive)
REMARK    1  A    between atoms: N_1  and  C_4
REMARK    2  A    between atoms: C_4  and  C_5
REMARK                            x       y       z     vdW  Elec       q    Type
REMARK                         _______ _______ _______ _____ _____    ______ ____
ROOT
ATOM      1  N   UNL     1      -8.880  -3.181  -2.732  0.00  0.00    -0.354 N 
ATOM      2  N   UNL     1      -8.575  -4.998  -4.136  0.00  0.00    -0.372 N 
ATOM      3  N   UNL     1     -10.652  -4.032  -4.008  0.00  0.00    -0.372 N 
ATOM      4  C   UNL     1      -9.374  -4.058  -3.617  0.00  0.00    +0.166 C 
ATOM      5  H   UNL     1      -7.910  -3.272  -2.454  0.00  0.00    +0.163 HD
ATOM      6  H   UNL     1      -8.918  -5.671  -4.808  0.00  0.00    +0.159 HD
ATOM      7  H   UNL     1      -7.594  -5.058  -3.890  0.00  0.00    +0.159 HD
ATOM      8  H   UNL     1     -11.308  -3.351  -3.649  0.00  0.00    +0.159 HD
ATOM      9  H   UNL     1     -11.017  -4.704  -4.671  0.00  0.00    +0.159 HD
ENDROOT
BRANCH   1  10
ATOM     10  C   UNL     1      -9.652  -2.086  -2.149  0.00  0.00    +0.151 C 
BRANCH  10  11
ATOM     11  C   UNL     1      -8.759  -0.887  -1.983  0.00  0.00    -0.028 A 
ATOM     12  C   UNL     1      -9.306   0.398  -1.861  0.00  0.00    +0.005 A 
ATOM     13  C   UNL     1      -7.363  -1.032  -1.943  0.00  0.00    +0.005 A 
ATOM     14  C   UNL     1      -8.478   1.508  -1.678  0.00  0.00    +0.000 A 
ATOM     15  C   UNL     1      -6.539   0.079  -1.760  0.00  0.00    +0.000 A 
ATOM     16  C   UNL     1      -7.097   1.348  -1.625  0.00  0.00    +0.000 A 
ENDBRANCH  10  11
ENDBRANCH   1  10
TORSDOF 2
ENDMDL
MODEL 5
REMARK VINA RESULT:    -5.275      4.145      5.083
REMARK INTER + INTRA:          -6.020
REMARK INTER:                  -5.841
REMARK INTRA:                  -0.180
REMARK UNBOUND:                -0.128
REMARK  Name = 1550473
REMARK  2 active torsions:
REMARK  status: ('A' for Active; 'I' for Inactive)
REMARK    1  A    between atoms: N_1  and  C_4
REMARK    2  A    between atoms: C_4  and  C_5
REMARK                            x       y       z     vdW  Elec       q    Type
REMARK                         _______ _______ _______ _____ _____    ______ ____
ROOT
ATOM      1  N   UNL     1       0.975   0.504 -17.747  0.00  0.00    -0.354 N 
ATOM      2  N   UNL     1       1.423   2.567 -16.794  0.00  0.00    -0.372 N 
ATOM      3  N   UNL     1      -0.762   1.925 -17.071  0.00  0.00    -0.372 N 
ATOM      4  C   UNL     1       0.540   1.652 -17.210  0.00  0.00    +0.166 C 
ATOM      5  H   UNL     1       1.974   0.371 -17.853  0.00  0.00    +0.163 HD
ATOM      6  H   UNL     1       1.125   3.441 -16.382  0.00  0.00    +0.159 HD
ATOM      7  H   UNL     1       2.422   2.411 -16.858  0.00  0.00    +0.159 HD
ATOM      8  H   UNL     1      -1.480   1.279 -17.371  0.00  0.00    +0.159 HD
ATOM      9  H   UNL     1      -1.081   2.799 -16.671  0.00  0.00    +0.159 HD
ENDROOT
BRANCH   1  10
ATOM     10  C   UNL     1       0.096  -0.580 -18.182  0.00  0.00    +0.151 C 
BRANCH  10  11
ATOM     11  C   UNL     1      -0.050  -0.523 -19.678  0.00  0.00    -0.028 A 
ATOM     12  C   UNL     1       0.942  -1.059 -20.511  0.00  0.00    +0.005 A 
ATOM     13  C   UNL     1      -1.182   0.061 -20.268  0.00  0.00    +0.005 A 
ATOM     14  C   UNL     1       0.793  -1.033 -21.900  0.00  0.00    +0.000 A 
ATOM     15  C   UNL     1      -1.327   0.085 -21.655  0.00  0.00    +0.000 A 
ATOM     16  C   UNL     1      -0.341  -0.464 -22.470  0.00  0.00    +0.000 A 
ENDBRANCH  10  11
ENDBRANCH   1  10
TORSDOF 2
ENDMDL
MODEL 6
REMARK VINA RESULT:    -5.265     12.802     15.909
REMARK INTER + INTRA:          -6.009
REMARK INTER:                  -5.853
REMARK INTRA:                  -0.156
REMARK UNBOUND:                -0.128
REMARK  Name = 1550473
REMARK  2 active torsions:
REMARK  status: ('A' for Active; 'I' for Inactive)
REMARK    1  A    between atoms: N_1  and  C_4
REMARK    2  A    between atoms: C_4  and  C_5
REMARK                            x       y       z     vdW  Elec       q    Type
REMARK                         _______ _______ _______ _____ _____    ______ ____
ROOT
ATOM      1  N   UNL     1      -9.346  -2.137  -4.629  0.00  0.00    -0.354 N 
ATOM      2  N   UNL     1      -7.329  -2.395  -5.738  0.00  0.00    -0.372 N 
ATOM      3  N   UNL     1      -8.166  -4.160  -4.534  0.00  0.00    -0.372 N 
ATOM      4  C   UNL     1      -8.293  -2.898  -4.959  0.00  0.00    +0.166 C 
ATOM      5  H   UNL     1      -9.368  -1.179  -4.958  0.00  0.00    +0.163 HD
ATOM      6  H   UNL     1      -6.525  -2.946  -6.007  0.00  0.00    +0.159 HD
ATOM      7  H   UNL     1      -7.377  -1.452  -6.104  0.00  0.00    +0.159 HD
ATOM      8  H   UNL     1      -8.856  -4.597  -3.938  0.00  0.00    +0.159 HD
ATOM      9  H   UNL     1      -7.363  -4.724  -4.782  0.00  0.00    +0.159 HD
ENDROOT
BRANCH   1  10
ATOM     10  C   UNL     1     -10.476  -2.606  -3.830  0.00  0.00    +0.151 C 
BRANCH  10  11
ATOM     11  C   UNL     1     -10.232  -2.264  -2.386  0.00  0.00    -0.028 A 
ATOM     12  C   UNL     1     -10.546  -3.183  -1.374  0.00  0.00    +0.005 A 
ATOM     13  C   UNL     1      -9.682  -1.025  -2.024  0.00  0.00    +0.005 A 
ATOM     14  C   UNL     1     -10.292  -2.878  -0.034  0.00  0.00    +0.000 A 
ATOM     15  C   UNL     1      -9.431  -0.723  -0.685  0.00  0.00    +0.000 A 
ATOM     16  C   UNL     1      -9.733  -1.651   0.309  0.00  0.00    +0.000 A 
ENDBRANCH  10  11
ENDBRANCH   1  10
TORSDOF 2
ENDMDL
MODEL 7
REMARK VINA RESULT:    -5.228      5.194      6.202
REMARK INTER + INTRA:          -5.967
REMARK INTER:                  -5.826
REMARK INTRA:                  -0.141
REMARK UNBOUND:                -0.128
REMARK  Name = 1550473
REMARK  2 active torsions:
REMARK  status: ('A' for Active; 'I' for Inactive)
REMARK    1  A    between atoms: N_1  and  C_4
REMARK    2  A    between atoms: C_4  and  C_5
REMARK                            x       y       z     vdW  Elec       q    Type
REMARK                         _______ _______ _______ _____ _____    ______ ____
ROOT
ATOM      1  N   UNL     1       0.521   0.528 -17.944  0.00  0.00    -0.354 N 
ATOM      2  N   UNL     1      -1.222   1.575 -19.052  0.00  0.00    -0.372 N 
ATOM      3  N   UNL     1      -1.077   1.778 -16.771  0.00  0.00    -0.372 N 
ATOM      4  C   UNL     1      -0.582   1.287 -17.912  0.00  0.00    +0.166 C 
ATOM      5  H   UNL     1       0.829   0.162 -18.837  0.00  0.00    +0.163 HD
ATOM      6  H   UNL     1      -2.055   2.148 -19.060  0.00  0.00    +0.159 HD
ATOM      7  H   UNL     1      -0.887   1.245 -19.949  0.00  0.00    +0.159 HD
ATOM      8  H   UNL     1      -0.644   1.593 -15.876  0.00  0.00    +0.159 HD
ATOM      9  H   UNL     1      -1.917   2.344 -16.758  0.00  0.00    +0.159 HD
ENDROOT
BRANCH   1  10
ATOM     10  C   UNL     1       1.323   0.202 -16.765  0.00  0.00    +0.151 C 
BRANCH  10  11
ATOM     11  C   UNL     1       2.663   0.873 -16.881  0.00  0.00    -0.028 A 
ATOM     12  C   UNL     1       2.758   2.272 -16.911  0.00  0.00    +0.005 A 
ATOM     13  C   UNL     1       3.843   0.117 -16.956  0.00  0.00    +0.005 A 
ATOM     14  C   UNL     1       4.005   2.897 -16.988  0.00  0.00    +0.000 A 
ATOM     15  C   UNL     1       5.086   0.744 -17.034  0.00  0.00    +0.000 A 
ATOM     16  C   UNL     1       5.167   2.135 -17.048  0.00  0.00    +0.000 A 
ENDBRANCH  10  11
ENDBRANCH   1  10
TORSDOF 2
ENDMDL
MODEL 8
REMARK VINA RESULT:    -5.068      1.505      2.290
REMARK INTER + INTRA:          -5.789
REMARK INTER:                  -5.665
REMARK INTRA:                  -0.124
REMARK UNBOUND:                -0.128
REMARK  Name = 1550473
REMARK  2 active torsions:
REMARK  status: ('A' for Active; 'I' for Inactive)
REMARK    1  A    between atoms: N_1  and  C_4
REMARK    2  A    between atoms: C_4  and  C_5
REMARK                            x       y       z     vdW  Elec       q    Type
REMARK                         _______ _______ _______ _____ _____    ______ ____
ROOT
ATOM      1  N   UNL     1      -3.250  -1.707 -15.916  0.00  0.00    -0.354 N 
ATOM      2  N   UNL     1      -4.516  -3.633 -15.690  0.00  0.00    -0.372 N 
ATOM      3  N   UNL     1      -3.600  -2.681 -13.813  0.00  0.00    -0.372 N 
ATOM      4  C   UNL     1      -3.780  -2.661 -15.138  0.00  0.00    +0.166 C 
ATOM      5  H   UNL     1      -3.398  -1.764 -16.917  0.00  0.00    +0.163 HD
ATOM      6  H   UNL     1      -4.931  -4.364 -15.128  0.00  0.00    +0.159 HD
ATOM      7  H   UNL     1      -4.700  -3.663 -16.685  0.00  0.00    +0.159 HD
ATOM      8  H   UNL     1      -3.050  -1.979 -13.337  0.00  0.00    +0.159 HD
ATOM      9  H   UNL     1      -3.998  -3.411 -13.236  0.00  0.00    +0.159 HD
ENDROOT
BRANCH   1  10
ATOM     10  C   UNL     1      -2.478  -0.574 -15.409  0.00  0.00    +0.151 C 
BRANCH  10  11
ATOM     11  C   UNL     1      -1.837   0.141 -16.566  0.00  0.00    -0.028 A 
ATOM     12  C   UNL     1      -1.035   1.271 -16.349  0.00  0.00    +0.005 A 
ATOM     13  C   UNL     1      -2.024  -0.309 -17.882  0.00  0.00    +0.005 A 
ATOM     14  C   UNL     1      -0.415   1.918 -17.421  0.00  0.00    +0.000 A 
ATOM     15  C   UNL     1      -1.404   0.340 -18.950  0.00  0.00    +0.000 A 
ATOM     16  C   UNL     1      -0.598   1.452 -18.719  0.00  0.00    +0.000 A 
ENDBRANCH  10  11
ENDBRANCH   1  10
TORSDOF 2
ENDMDL
MODEL 9
REMARK VINA RESULT:    -5.032      4.567      5.478
REMARK INTER + INTRA:          -5.749
REMARK INTER:                  -5.617
REMARK INTRA:                  -0.132
REMARK UNBOUND:                -0.128
REMARK  Name = 1550473
REMARK  2 active torsions:
REMARK  status: ('A' for Active; 'I' for Inactive)
REMARK    1  A    between atoms: N_1  and  C_4
REMARK    2  A    between atoms: C_4  and  C_5
REMARK                            x       y       z     vdW  Elec       q    Type
REMARK                         _______ _______ _______ _____ _____    ______ ____
ROOT
ATOM      1  N   UNL     1       0.237  -0.902 -17.277  0.00  0.00    -0.354 N 
ATOM      2  N   UNL     1      -0.551  -2.809 -18.330  0.00  0.00    -0.372 N 
ATOM      3  N   UNL     1      -1.341  -0.763 -19.003  0.00  0.00    -0.372 N 
ATOM      4  C   UNL     1      -0.548  -1.477 -18.198  0.00  0.00    +0.166 C 
ATOM      5  H   UNL     1       0.793  -1.501 -16.677  0.00  0.00    +0.163 HD
ATOM      6  H   UNL     1      -1.130  -3.270 -19.018  0.00  0.00    +0.159 HD
ATOM      7  H   UNL     1       0.040  -3.402 -17.760  0.00  0.00    +0.159 HD
ATOM      8  H   UNL     1      -1.390   0.246 -18.950  0.00  0.00    +0.159 HD
ATOM      9  H   UNL     1      -1.937  -1.207 -19.690  0.00  0.00    +0.159 HD
ENDROOT
BRANCH   1  10
ATOM     10  C   UNL     1       0.354   0.543 -17.089  0.00  0.00    +0.151 C 
BRANCH  10  11
ATOM     11  C   UNL     1       1.803   0.897 -16.896  0.00  0.00    -0.028 A 
ATOM     12  C   UNL     1       2.261   2.195 -17.168  0.00  0.00    +0.005 A 
ATOM     13  C   UNL     1       2.722  -0.058 -16.436  0.00  0.00    +0.005 A 
ATOM     14  C   UNL     1       3.600   2.533 -16.960  0.00  0.00    +0.000 A 
ATOM     15  C   UNL     1       4.058   0.283 -16.230  0.00  0.00    +0.000 A 
ATOM     16  C   UNL     1       4.497   1.579 -16.490  0.00  0.00    +0.000 A 
ENDBRANCH  10  11
ENDBRANCH   1  10
TORSDOF 2
ENDMDL
