MODEL 1
REMARK VINA RESULT:    -5.520      0.000      0.000
REMARK INTER + INTRA:          -6.303
REMARK INTER:                  -6.165
REMARK INTRA:                  -0.138
REMARK UNBOUND:                -0.138
REMARK  Name = 1550473
REMARK  2 active torsions:
REMARK  status: ('A' for Active; 'I' for Inactive)
REMARK    1  A    between atoms: N_1  and  C_4
REMARK    2  A    between atoms: C_4  and  C_5
REMARK                            x       y       z     vdW  Elec       q    Type
REMARK                         _______ _______ _______ _____ _____    ______ ____
ROOT
ATOM      1  N   UNL     1       1.289   3.810   6.516  0.00  0.00    -0.354 N 
ATOM      2  N   UNL     1       3.354   3.165   7.344  0.00  0.00    -0.372 N 
ATOM      3  N   UNL     1       3.139   5.244   6.398  0.00  0.00    -0.372 N 
ATOM      4  C   UNL     1       2.581   4.080   6.746  0.00  0.00    +0.166 C 
ATOM      5  H   UNL     1       0.934   2.897   6.777  0.00  0.00    +0.163 HD
ATOM      6  H   UNL     1       4.331   3.341   7.534  0.00  0.00    +0.159 HD
ATOM      7  H   UNL     1       2.985   2.271   7.645  0.00  0.00    +0.159 HD
ATOM      8  H   UNL     1       2.611   5.974   5.938  0.00  0.00    +0.159 HD
ATOM      9  H   UNL     1       4.118   5.435   6.568  0.00  0.00    +0.159 HD
ENDROOT
BRANCH   1  10
ATOM     10  C   UNL     1       0.349   4.758   5.920  0.00  0.00    +0.151 C 
BRANCH  10  11
ATOM     11  C   UNL     1      -0.775   5.009   6.887  0.00  0.00    -0.028 A 
ATOM     12  C   UNL     1      -1.739   4.021   7.130  0.00  0.00    +0.005 A 
ATOM     13  C   UNL     1      -0.877   6.232   7.568  0.00  0.00    +0.005 A 
ATOM     14  C   UNL     1      -2.766   4.242   8.051  0.00  0.00    +0.000 A 
ATOM     15  C   UNL     1      -1.905   6.450   8.486  0.00  0.00    +0.000 A 
ATOM     16  C   UNL     1      -2.847   5.454   8.729  0.00  0.00    +0.000 A 
ENDBRANCH  10  11
ENDBRANCH   1  10
TORSDOF 2
ENDMDL
MODEL 2
REMARK VINA RESULT:    -5.460     11.804     13.270
REMARK INTER + INTRA:          -6.236
REMARK INTER:                  -6.114
REMARK INTRA:                  -0.123
REMARK UNBOUND:                -0.138
REMARK  Name = 1550473
REMARK  2 active torsions:
REMARK  status: ('A' for Active; 'I' for Inactive)
REMARK    1  A    between atoms: N_1  and  C_4
REMARK    2  A    between atoms: C_4  and  C_5
REMARK                            x       y       z     vdW  Elec       q    Type
REMARK                         _______ _______ _______ _____ _____    ______ ____
ROOT
ATOM      1  N   UNL     1     -12.024   4.848   6.587  0.00  0.00    -0.354 N 
ATOM      2  N   UNL     1     -10.394   3.404   7.375  0.00  0.00    -0.372 N 
ATOM      3  N   UNL     1     -11.112   5.111   8.730  0.00  0.00    -0.372 N 
ATOM      4  C   UNL     1     -11.187   4.466   7.561  0.00  0.00    +0.166 C 
ATOM      5  H   UNL     1     -12.011   4.336   5.713  0.00  0.00    +0.163 HD
ATOM      6  H   UNL     1      -9.755   3.089   8.093  0.00  0.00    +0.159 HD
ATOM      7  H   UNL     1     -10.416   2.865   6.518  0.00  0.00    +0.159 HD
ATOM      8  H   UNL     1     -11.680   5.923   8.931  0.00  0.00    +0.159 HD
ATOM      9  H   UNL     1     -10.471   4.818   9.457  0.00  0.00    +0.159 HD
ENDROOT
BRANCH   1  10
ATOM     10  C   UNL     1     -12.967   5.958   6.709  0.00  0.00    +0.151 C 
BRANCH  10  11
ATOM     11  C   UNL     1     -13.436   6.357   5.337  0.00  0.00    -0.028 A 
ATOM     12  C   UNL     1     -13.237   5.505   4.241  0.00  0.00    +0.005 A 
ATOM     13  C   UNL     1     -14.086   7.583   5.128  0.00  0.00    +0.005 A 
ATOM     14  C   UNL     1     -13.699   5.862   2.972  0.00  0.00    +0.000 A 
ATOM     15  C   UNL     1     -14.545   7.936   3.859  0.00  0.00    +0.000 A 
ATOM     16  C   UNL     1     -14.354   7.074   2.782  0.00  0.00    +0.000 A 
ENDBRANCH  10  11
ENDBRANCH   1  10
TORSDOF 2
ENDMDL
MODEL 3
REMARK VINA RESULT:    -5.425      2.345      3.356
REMARK INTER + INTRA:          -6.197
REMARK INTER:                  -6.077
REMARK INTRA:                  -0.120
REMARK UNBOUND:                -0.138
REMARK  Name = 1550473
REMARK  2 active torsions:
REMARK  status: ('A' for Active; 'I' for Inactive)
REMARK    1  A    between atoms: N_1  and  C_4
REMARK    2  A    between atoms: C_4  and  C_5
REMARK                            x       y       z     vdW  Elec       q    Type
REMARK                         _______ _______ _______ _____ _____    ______ ____
ROOT
ATOM      1  N   UNL     1       2.097   7.401   5.497  0.00  0.00    -0.354 N 
ATOM      2  N   UNL     1       3.735   9.037   5.563  0.00  0.00    -0.372 N 
ATOM      3  N   UNL     1       3.896   7.369   3.996  0.00  0.00    -0.372 N 
ATOM      4  C   UNL     1       3.233   7.923   5.017  0.00  0.00    +0.166 C 
ATOM      5  H   UNL     1       1.659   7.851   6.292  0.00  0.00    +0.163 HD
ATOM      6  H   UNL     1       4.588   9.457   5.220  0.00  0.00    +0.159 HD
ATOM      7  H   UNL     1       3.270   9.512   6.328  0.00  0.00    +0.159 HD
ATOM      8  H   UNL     1       3.574   6.525   3.543  0.00  0.00    +0.159 HD
ATOM      9  H   UNL     1       4.758   7.768   3.645  0.00  0.00    +0.159 HD
ENDROOT
BRANCH   1  10
ATOM     10  C   UNL     1       1.439   6.221   4.939  0.00  0.00    +0.151 C 
BRANCH  10  11
ATOM     11  C   UNL     1       0.372   5.756   5.891  0.00  0.00    -0.028 A 
ATOM     12  C   UNL     1      -0.140   6.625   6.865  0.00  0.00    +0.005 A 
ATOM     13  C   UNL     1      -0.135   4.450   5.820  0.00  0.00    +0.005 A 
ATOM     14  C   UNL     1      -1.152   6.204   7.731  0.00  0.00    +0.000 A 
ATOM     15  C   UNL     1      -1.145   4.032   6.687  0.00  0.00    +0.000 A 
ATOM     16  C   UNL     1      -1.655   4.910   7.640  0.00  0.00    +0.000 A 
ENDBRANCH  10  11
ENDBRANCH   1  10
TORSDOF 2
ENDMDL
MODEL 4
REMARK VINA RESULT:    -5.289      1.952      2.961
REMARK INTER + INTRA:          -6.045
REMARK INTER:                  -5.905
REMARK INTRA:                  -0.140
REMARK UNBOUND:                -0.138
REMARK  Name = 1550473
REMARK  2 active torsions:
REMARK  status: ('A' for Active; 'I' for Inactive)
REMARK    1  A    between atoms: N_1  and  C_4
REMARK    2  A    between atoms: C_4  and  C_5
REMARK                            x       y       z     vdW  Elec       q    Type
REMARK                         _______ _______ _______ _____ _____    ______ ____
ROOT
ATOM      1  N   UNL     1       3.507   3.260   7.129  0.00  0.00    -0.354 N 
ATOM      2  N   UNL     1       5.811   3.222   7.365  0.00  0.00    -0.372 N 
ATOM      3  N   UNL     1       4.500   2.927   9.226  0.00  0.00    -0.372 N 
ATOM      4  C   UNL     1       4.590   3.137   7.908  0.00  0.00    +0.166 C 
ATOM      5  H   UNL     1       3.642   3.448   6.143  0.00  0.00    +0.163 HD
ATOM      6  H   UNL     1       6.646   3.130   7.927  0.00  0.00    +0.159 HD
ATOM      7  H   UNL     1       5.943   3.364   6.371  0.00  0.00    +0.159 HD
ATOM      8  H   UNL     1       3.609   2.859   9.697  0.00  0.00    +0.159 HD
ATOM      9  H   UNL     1       5.325   2.844   9.807  0.00  0.00    +0.159 HD
ENDROOT
BRANCH   1  10
ATOM     10  C   UNL     1       2.134   3.129   7.612  0.00  0.00    +0.151 C 
BRANCH  10  11
ATOM     11  C   UNL     1       1.296   4.226   7.016  0.00  0.00    -0.028 A 
ATOM     12  C   UNL     1      -0.101   4.112   6.972  0.00  0.00    +0.005 A 
ATOM     13  C   UNL     1       1.894   5.386   6.498  0.00  0.00    +0.005 A 
ATOM     14  C   UNL     1      -0.881   5.144   6.445  0.00  0.00    +0.000 A 
ATOM     15  C   UNL     1       1.111   6.414   5.973  0.00  0.00    +0.000 A 
ATOM     16  C   UNL     1      -0.276   6.294   5.949  0.00  0.00    +0.000 A 
ENDBRANCH  10  11
ENDBRANCH   1  10
TORSDOF 2
ENDMDL
MODEL 5
REMARK VINA RESULT:    -5.003      1.261      2.267
REMARK INTER + INTRA:          -5.726
REMARK INTER:                  -5.605
REMARK INTRA:                  -0.121
REMARK UNBOUND:                -0.138
REMARK  Name = 1550473
REMARK  2 active torsions:
REMARK  status: ('A' for Active; 'I' for Inactive)
REMARK    1  A    between atoms: N_1  and  C_4
REMARK    2  A    between atoms: C_4  and  C_5
REMARK                            x       y       z     vdW  Elec       q    Type
REMARK                         _______ _______ _______ _____ _____    ______ ____
ROOT
ATOM      1  N   UNL     1       3.045   3.881   6.673  0.00  0.00    -0.354 N 
ATOM      2  N   UNL     1       4.755   2.828   7.826  0.00  0.00    -0.372 N 
ATOM      3  N   UNL     1       4.941   5.068   7.370  0.00  0.00    -0.372 N 
ATOM      4  C   UNL     1       4.237   3.935   7.282  0.00  0.00    +0.166 C 
ATOM      5  H   UNL     1       2.576   2.984   6.613  0.00  0.00    +0.163 HD
ATOM      6  H   UNL     1       5.651   2.839   8.296  0.00  0.00    +0.159 HD
ATOM      7  H   UNL     1       4.263   1.943   7.806  0.00  0.00    +0.159 HD
ATOM      8  H   UNL     1       4.609   5.938   6.974  0.00  0.00    +0.159 HD
ATOM      9  H   UNL     1       5.845   5.097   7.825  0.00  0.00    +0.159 HD
ENDROOT
BRANCH   1  10
ATOM     10  C   UNL     1       2.369   5.040   6.095  0.00  0.00    +0.151 C 
BRANCH  10  11
ATOM     11  C   UNL     1       0.957   5.094   6.611  0.00  0.00    -0.028 A 
ATOM     12  C   UNL     1       0.483   6.238   7.269  0.00  0.00    +0.005 A 
ATOM     13  C   UNL     1       0.088   4.006   6.441  0.00  0.00    +0.005 A 
ATOM     14  C   UNL     1      -0.837   6.299   7.723  0.00  0.00    +0.000 A 
ATOM     15  C   UNL     1      -1.229   4.071   6.896  0.00  0.00    +0.000 A 
ATOM     16  C   UNL     1      -1.692   5.218   7.534  0.00  0.00    +0.000 A 
ENDBRANCH  10  11
ENDBRANCH   1  10
TORSDOF 2
ENDMDL
MODEL 6
REMARK VINA RESULT:    -4.964     15.715     16.708
REMARK INTER + INTRA:          -5.682
REMARK INTER:                  -5.541
REMARK INTRA:                  -0.141
REMARK UNBOUND:                -0.138
REMARK  Name = 1550473
REMARK  2 active torsions:
REMARK  status: ('A' for Active; 'I' for Inactive)
REMARK    1  A    between atoms: N_1  and  C_4
REMARK    2  A    between atoms: C_4  and  C_5
REMARK                            x       y       z     vdW  Elec       q    Type
REMARK                         _______ _______ _______ _____ _____    ______ ____
ROOT
ATOM      1  N   UNL     1      -7.574 -10.638   2.465  0.00  0.00    -0.354 N 
ATOM      2  N   UNL     1      -8.225 -11.126   0.297  0.00  0.00    -0.372 N 
ATOM      3  N   UNL     1      -6.156 -10.199   0.652  0.00  0.00    -0.372 N 
ATOM      4  C   UNL     1      -7.311 -10.650   1.152  0.00  0.00    +0.166 C 
ATOM      5  H   UNL     1      -8.480 -10.965   2.778  0.00  0.00    +0.163 HD
ATOM      6  H   UNL     1      -8.054 -11.151  -0.699  0.00  0.00    +0.159 HD
ATOM      7  H   UNL     1      -9.112 -11.496   0.617  0.00  0.00    +0.159 HD
ATOM      8  H   UNL     1      -5.428  -9.822   1.243  0.00  0.00    +0.159 HD
ATOM      9  H   UNL     1      -5.971 -10.205  -0.344  0.00  0.00    +0.159 HD
ENDROOT
BRANCH   1  10
ATOM     10  C   UNL     1      -6.626 -10.190   3.484  0.00  0.00    +0.151 C 
BRANCH  10  11
ATOM     11  C   UNL     1      -7.334  -9.276   4.446  0.00  0.00    -0.028 A 
ATOM     12  C   UNL     1      -8.584  -8.731   4.121  0.00  0.00    +0.005 A 
ATOM     13  C   UNL     1      -6.762  -8.957   5.688  0.00  0.00    +0.005 A 
ATOM     14  C   UNL     1      -9.256  -7.906   5.026  0.00  0.00    +0.000 A 
ATOM     15  C   UNL     1      -7.436  -8.133   6.589  0.00  0.00    +0.000 A 
ATOM     16  C   UNL     1      -8.684  -7.609   6.259  0.00  0.00    +0.000 A 
ENDBRANCH  10  11
ENDBRANCH   1  10
TORSDOF 2
ENDMDL
MODEL 7
REMARK VINA RESULT:    -4.954     14.961     16.602
REMARK INTER + INTRA:          -5.671
REMARK INTER:                  -5.554
REMARK INTRA:                  -0.118
REMARK UNBOUND:                -0.138
REMARK  Name = 1550473
REMARK  2 active torsions:
REMARK  status: ('A' for Active; 'I' for Inactive)
REMARK    1  A    between atoms: N_1  and  C_4
REMARK    2  A    between atoms: C_4  and  C_5
REMARK                            x       y       z     vdW  Elec       q    Type
REMARK                         _______ _______ _______ _____ _____    ______ ____
ROOT
ATOM      1  N   UNL     1     -16.809   8.530   5.442  0.00  0.00    -0.354 N 
ATOM      2  N   UNL     1     -19.091   8.538   5.839  0.00  0.00    -0.372 N 
ATOM      3  N   UNL     1     -17.654   8.499   7.628  0.00  0.00    -0.372 N 
ATOM      4  C   UNL     1     -17.835   8.522   6.303  0.00  0.00    +0.166 C 
ATOM      5  H   UNL     1     -17.013   8.517   4.450  0.00  0.00    +0.163 HD
ATOM      6  H   UNL     1     -19.885   8.536   6.464  0.00  0.00    +0.159 HD
ATOM      7  H   UNL     1     -19.292   8.571   4.847  0.00  0.00    +0.159 HD
ATOM      8  H   UNL     1     -16.732   8.479   8.042  0.00  0.00    +0.159 HD
ATOM      9  H   UNL     1     -18.437   8.484   8.270  0.00  0.00    +0.159 HD
ENDROOT
BRANCH   1  10
ATOM     10  C   UNL     1     -15.404   8.568   5.845  0.00  0.00    +0.151 C 
BRANCH  10  11
ATOM     11  C   UNL     1     -14.613   7.647   4.958  0.00  0.00    -0.028 A 
ATOM     12  C   UNL     1     -13.678   6.758   5.507  0.00  0.00    +0.005 A 
ATOM     13  C   UNL     1     -14.799   7.654   3.567  0.00  0.00    +0.005 A 
ATOM     14  C   UNL     1     -12.965   5.881   4.686  0.00  0.00    +0.000 A 
ATOM     15  C   UNL     1     -14.084   6.778   2.750  0.00  0.00    +0.000 A 
ATOM     16  C   UNL     1     -13.169   5.890   3.310  0.00  0.00    +0.000 A 
ENDBRANCH  10  11
ENDBRANCH   1  10
TORSDOF 2
ENDMDL
MODEL 8
REMARK VINA RESULT:    -4.883     15.468     17.040
REMARK INTER + INTRA:          -5.592
REMARK INTER:                  -5.420
REMARK INTRA:                  -0.173
REMARK UNBOUND:                -0.138
REMARK  Name = 1550473
REMARK  2 active torsions:
REMARK  status: ('A' for Active; 'I' for Inactive)
REMARK    1  A    between atoms: N_1  and  C_4
REMARK    2  A    between atoms: C_4  and  C_5
REMARK                            x       y       z     vdW  Elec       q    Type
REMARK                         _______ _______ _______ _____ _____    ______ ____
ROOT
ATOM      1  N   UNL     1     -17.071   8.546   5.055  0.00  0.00    -0.354 N 
ATOM      2  N   UNL     1     -19.288   7.882   4.973  0.00  0.00    -0.372 N 
ATOM      3  N   UNL     1     -18.306   8.706   3.070  0.00  0.00    -0.372 N 
ATOM      4  C   UNL     1     -18.207   8.383   4.364  0.00  0.00    +0.166 C 
ATOM      5  H   UNL     1     -17.069   8.311   6.040  0.00  0.00    +0.163 HD
ATOM      6  H   UNL     1     -20.158   7.744   4.476  0.00  0.00    +0.159 HD
ATOM      7  H   UNL     1     -19.270   7.604   5.947  0.00  0.00    +0.159 HD
ATOM      8  H   UNL     1     -17.528   9.094   2.553  0.00  0.00    +0.159 HD
ATOM      9  H   UNL     1     -19.172   8.586   2.558  0.00  0.00    +0.159 HD
ENDROOT
BRANCH   1  10
ATOM     10  C   UNL     1     -15.822   9.034   4.472  0.00  0.00    +0.151 C 
BRANCH  10  11
ATOM     11  C   UNL     1     -14.992   7.859   4.035  0.00  0.00    -0.028 A 
ATOM     12  C   UNL     1     -14.811   7.582   2.672  0.00  0.00    +0.005 A 
ATOM     13  C   UNL     1     -14.378   7.022   4.979  0.00  0.00    +0.005 A 
ATOM     14  C   UNL     1     -14.016   6.509   2.265  0.00  0.00    +0.000 A 
ATOM     15  C   UNL     1     -13.585   5.950   4.569  0.00  0.00    +0.000 A 
ATOM     16  C   UNL     1     -13.402   5.695   3.212  0.00  0.00    +0.000 A 
ENDBRANCH  10  11
ENDBRANCH   1  10
TORSDOF 2
ENDMDL
MODEL 9
REMARK VINA RESULT:    -4.725      2.484      3.601
REMARK INTER + INTRA:          -5.415
REMARK INTER:                  -5.272
REMARK INTRA:                  -0.143
REMARK UNBOUND:                -0.138
REMARK  Name = 1550473
REMARK  2 active torsions:
REMARK  status: ('A' for Active; 'I' for Inactive)
REMARK    1  A    between atoms: N_1  and  C_4
REMARK    2  A    between atoms: C_4  and  C_5
REMARK                            x       y       z     vdW  Elec       q    Type
REMARK                         _______ _______ _______ _____ _____    ______ ____
ROOT
ATOM      1  N   UNL     1       3.894   6.759   5.972  0.00  0.00    -0.354 N 
ATOM      2  N   UNL     1       5.817   7.234   7.173  0.00  0.00    -0.372 N 
ATOM      3  N   UNL     1       4.300   8.915   6.798  0.00  0.00    -0.372 N 
ATOM      4  C   UNL     1       4.656   7.635   6.639  0.00  0.00    +0.166 C 
ATOM      5  H   UNL     1       4.234   5.811   5.861  0.00  0.00    +0.163 HD
ATOM      6  H   UNL     1       6.412   7.871   7.685  0.00  0.00    +0.159 HD
ATOM      7  H   UNL     1       6.133   6.274   7.100  0.00  0.00    +0.159 HD
ATOM      8  H   UNL     1       3.439   9.282   6.414  0.00  0.00    +0.159 HD
ATOM      9  H   UNL     1       4.888   9.571   7.297  0.00  0.00    +0.159 HD
ENDROOT
BRANCH   1  10
ATOM     10  C   UNL     1       2.588   7.082   5.399  0.00  0.00    +0.151 C 
BRANCH  10  11
ATOM     11  C   UNL     1       1.575   6.086   5.894  0.00  0.00    -0.028 A 
ATOM     12  C   UNL     1       1.989   4.881   6.479  0.00  0.00    +0.005 A 
ATOM     13  C   UNL     1       0.200   6.345   5.785  0.00  0.00    +0.005 A 
ATOM     14  C   UNL     1       1.049   3.969   6.966  0.00  0.00    +0.000 A 
ATOM     15  C   UNL     1      -0.735   5.432   6.272  0.00  0.00    +0.000 A 
ATOM     16  C   UNL     1      -0.310   4.245   6.864  0.00  0.00    +0.000 A 
ENDBRANCH  10  11
ENDBRANCH   1  10
TORSDOF 2
ENDMDL
