MODEL 1
REMARK VINA RESULT:    -6.389      0.000      0.000
REMARK INTER + INTRA:          -7.259
REMARK INTER:                  -7.136
REMARK INTRA:                  -0.123
REMARK UNBOUND:                -0.123
REMARK  Name = 1550473
REMARK  2 active torsions:
REMARK  status: ('A' for Active; 'I' for Inactive)
REMARK    1  A    between atoms: N_1  and  C_4
REMARK    2  A    between atoms: C_4  and  C_5
REMARK                            x       y       z     vdW  Elec       q    Type
REMARK                         _______ _______ _______ _____ _____    ______ ____
ROOT
ATOM      1  N   UNL     1     -11.925  -4.458  -4.854  0.00  0.00    -0.354 N 
ATOM      2  N   UNL     1     -13.914  -4.400  -6.039  0.00  0.00    -0.372 N 
ATOM      3  N   UNL     1     -13.226  -2.511  -4.933  0.00  0.00    -0.372 N 
ATOM      4  C   UNL     1     -13.009  -3.787  -5.266  0.00  0.00    +0.166 C 
ATOM      5  H   UNL     1     -11.834  -5.433  -5.116  0.00  0.00    +0.163 HD
ATOM      6  H   UNL     1     -14.740  -3.918  -6.369  0.00  0.00    +0.159 HD
ATOM      7  H   UNL     1     -13.797  -5.361  -6.338  0.00  0.00    +0.159 HD
ATOM      8  H   UNL     1     -12.585  -1.994  -4.347  0.00  0.00    +0.159 HD
ATOM      9  H   UNL     1     -14.053  -2.015  -5.243  0.00  0.00    +0.159 HD
ENDROOT
BRANCH   1  10
ATOM     10  C   UNL     1     -10.854  -3.868  -4.054  0.00  0.00    +0.151 C 
BRANCH  10  11
ATOM     11  C   UNL     1      -9.854  -4.936  -3.707  0.00  0.00    -0.028 A 
ATOM     12  C   UNL     1      -8.680  -4.614  -3.010  0.00  0.00    +0.005 A 
ATOM     13  C   UNL     1     -10.077  -6.274  -4.067  0.00  0.00    +0.005 A 
ATOM     14  C   UNL     1      -7.765  -5.610  -2.662  0.00  0.00    +0.000 A 
ATOM     15  C   UNL     1      -9.161  -7.266  -3.718  0.00  0.00    +0.000 A 
ATOM     16  C   UNL     1      -8.006  -6.934  -3.013  0.00  0.00    +0.000 A 
ENDBRANCH  10  11
ENDBRANCH   1  10
TORSDOF 2
ENDMDL
MODEL 2
REMARK VINA RESULT:    -6.281      2.727      3.543
REMARK INTER + INTRA:          -7.138
REMARK INTER:                  -7.005
REMARK INTRA:                  -0.134
REMARK UNBOUND:                -0.123
REMARK  Name = 1550473
REMARK  2 active torsions:
REMARK  status: ('A' for Active; 'I' for Inactive)
REMARK    1  A    between atoms: N_1  and  C_4
REMARK    2  A    between atoms: C_4  and  C_5
REMARK                            x       y       z     vdW  Elec       q    Type
REMARK                         _______ _______ _______ _____ _____    ______ ____
ROOT
ATOM      1  N   UNL     1      -9.216  -4.779  -3.512  0.00  0.00    -0.354 N 
ATOM      2  N   UNL     1     -10.846  -3.189  -3.937  0.00  0.00    -0.372 N 
ATOM      3  N   UNL     1      -9.042  -2.610  -2.642  0.00  0.00    -0.372 N 
ATOM      4  C   UNL     1      -9.689  -3.535  -3.359  0.00  0.00    +0.166 C 
ATOM      5  H   UNL     1      -9.769  -5.442  -4.043  0.00  0.00    +0.163 HD
ATOM      6  H   UNL     1     -11.226  -2.257  -3.842  0.00  0.00    +0.159 HD
ATOM      7  H   UNL     1     -11.374  -3.841  -4.505  0.00  0.00    +0.159 HD
ATOM      8  H   UNL     1      -8.167  -2.809  -2.176  0.00  0.00    +0.159 HD
ATOM      9  H   UNL     1      -9.412  -1.675  -2.526  0.00  0.00    +0.159 HD
ENDROOT
BRANCH   1  10
ATOM     10  C   UNL     1      -7.940  -5.241  -2.970  0.00  0.00    +0.151 C 
BRANCH  10  11
ATOM     11  C   UNL     1      -7.165  -5.933  -4.057  0.00  0.00    -0.028 A 
ATOM     12  C   UNL     1      -5.762  -5.938  -4.039  0.00  0.00    +0.005 A 
ATOM     13  C   UNL     1      -7.827  -6.589  -5.106  0.00  0.00    +0.005 A 
ATOM     14  C   UNL     1      -5.043  -6.606  -5.033  0.00  0.00    +0.000 A 
ATOM     15  C   UNL     1      -7.105  -7.254  -6.097  0.00  0.00    +0.000 A 
ATOM     16  C   UNL     1      -5.713  -7.264  -6.058  0.00  0.00    +0.000 A 
ENDBRANCH  10  11
ENDBRANCH   1  10
TORSDOF 2
ENDMDL
MODEL 3
REMARK VINA RESULT:    -6.269      3.033      4.103
REMARK INTER + INTRA:          -7.125
REMARK INTER:                  -7.006
REMARK INTRA:                  -0.119
REMARK UNBOUND:                -0.123
REMARK  Name = 1550473
REMARK  2 active torsions:
REMARK  status: ('A' for Active; 'I' for Inactive)
REMARK    1  A    between atoms: N_1  and  C_4
REMARK    2  A    between atoms: C_4  and  C_5
REMARK                            x       y       z     vdW  Elec       q    Type
REMARK                         _______ _______ _______ _____ _____    ______ ____
ROOT
ATOM      1  N   UNL     1      -8.856  -5.004  -4.776  0.00  0.00    -0.354 N 
ATOM      2  N   UNL     1      -9.927  -3.265  -3.683  0.00  0.00    -0.372 N 
ATOM      3  N   UNL     1     -11.087  -5.204  -4.086  0.00  0.00    -0.372 N 
ATOM      4  C   UNL     1      -9.952  -4.504  -4.189  0.00  0.00    +0.166 C 
ATOM      5  H   UNL     1      -8.037  -4.412  -4.849  0.00  0.00    +0.163 HD
ATOM      6  H   UNL     1     -10.737  -2.863  -3.231  0.00  0.00    +0.159 HD
ATOM      7  H   UNL     1      -9.093  -2.693  -3.716  0.00  0.00    +0.159 HD
ATOM      8  H   UNL     1     -11.173  -6.142  -4.452  0.00  0.00    +0.159 HD
ATOM      9  H   UNL     1     -11.912  -4.814  -3.647  0.00  0.00    +0.159 HD
ENDROOT
BRANCH   1  10
ATOM     10  C   UNL     1      -8.762  -6.361  -5.310  0.00  0.00    +0.151 C 
BRANCH  10  11
ATOM     11  C   UNL     1      -7.313  -6.716  -5.499  0.00  0.00    -0.028 A 
ATOM     12  C   UNL     1      -6.906  -7.491  -6.594  0.00  0.00    +0.005 A 
ATOM     13  C   UNL     1      -6.341  -6.274  -4.588  0.00  0.00    +0.005 A 
ATOM     14  C   UNL     1      -5.556  -7.795  -6.786  0.00  0.00    +0.000 A 
ATOM     15  C   UNL     1      -4.994  -6.581  -4.782  0.00  0.00    +0.000 A 
ATOM     16  C   UNL     1      -4.602  -7.339  -5.882  0.00  0.00    +0.000 A 
ENDBRANCH  10  11
ENDBRANCH   1  10
TORSDOF 2
ENDMDL
MODEL 4
REMARK VINA RESULT:    -5.910      4.561      6.078
REMARK INTER + INTRA:          -6.724
REMARK INTER:                  -6.581
REMARK INTRA:                  -0.143
REMARK UNBOUND:                -0.123
REMARK  Name = 1550473
REMARK  2 active torsions:
REMARK  status: ('A' for Active; 'I' for Inactive)
REMARK    1  A    between atoms: N_1  and  C_4
REMARK    2  A    between atoms: C_4  and  C_5
REMARK                            x       y       z     vdW  Elec       q    Type
REMARK                         _______ _______ _______ _____ _____    ______ ____
ROOT
ATOM      1  N   UNL     1      -9.851 -10.413  -4.668  0.00  0.00    -0.354 N 
ATOM      2  N   UNL     1     -10.387 -12.178  -3.266  0.00  0.00    -0.372 N 
ATOM      3  N   UNL     1      -8.678 -12.439  -4.775  0.00  0.00    -0.372 N 
ATOM      4  C   UNL     1      -9.633 -11.666  -4.247  0.00  0.00    +0.166 C 
ATOM      5  H   UNL     1     -10.611  -9.890  -4.247  0.00  0.00    +0.163 HD
ATOM      6  H   UNL     1     -10.243 -13.119  -2.926  0.00  0.00    +0.159 HD
ATOM      7  H   UNL     1     -11.115 -11.637  -2.816  0.00  0.00    +0.159 HD
ATOM      8  H   UNL     1      -8.079 -12.114  -5.522  0.00  0.00    +0.159 HD
ATOM      9  H   UNL     1      -8.526 -13.388  -4.456  0.00  0.00    +0.159 HD
ENDROOT
BRANCH   1  10
ATOM     10  C   UNL     1      -9.052  -9.744  -5.692  0.00  0.00    +0.151 C 
BRANCH  10  11
ATOM     11  C   UNL     1      -8.565  -8.427  -5.153  0.00  0.00    -0.028 A 
ATOM     12  C   UNL     1      -9.161  -7.859  -4.017  0.00  0.00    +0.005 A 
ATOM     13  C   UNL     1      -7.505  -7.745  -5.770  0.00  0.00    +0.005 A 
ATOM     14  C   UNL     1      -8.690  -6.650  -3.498  0.00  0.00    +0.000 A 
ATOM     15  C   UNL     1      -7.038  -6.538  -5.249  0.00  0.00    +0.000 A 
ATOM     16  C   UNL     1      -7.629  -5.993  -4.112  0.00  0.00    +0.000 A 
ENDBRANCH  10  11
ENDBRANCH   1  10
TORSDOF 2
ENDMDL
MODEL 5
REMARK VINA RESULT:    -5.715      4.536      5.989
REMARK INTER + INTRA:          -6.506
REMARK INTER:                  -6.369
REMARK INTRA:                  -0.137
REMARK UNBOUND:                -0.123
REMARK  Name = 1550473
REMARK  2 active torsions:
REMARK  status: ('A' for Active; 'I' for Inactive)
REMARK    1  A    between atoms: N_1  and  C_4
REMARK    2  A    between atoms: C_4  and  C_5
REMARK                            x       y       z     vdW  Elec       q    Type
REMARK                         _______ _______ _______ _____ _____    ______ ____
ROOT
ATOM      1  N   UNL     1      -6.557  -5.481  -4.345  0.00  0.00    -0.354 N 
ATOM      2  N   UNL     1      -5.842  -5.042  -2.186  0.00  0.00    -0.372 N 
ATOM      3  N   UNL     1      -7.667  -6.398  -2.496  0.00  0.00    -0.372 N 
ATOM      4  C   UNL     1      -6.695  -5.645  -3.023  0.00  0.00    +0.166 C 
ATOM      5  H   UNL     1      -5.818  -4.873  -4.680  0.00  0.00    +0.163 HD
ATOM      6  H   UNL     1      -5.919  -5.150  -1.184  0.00  0.00    +0.159 HD
ATOM      7  H   UNL     1      -5.076  -4.472  -2.526  0.00  0.00    +0.159 HD
ATOM      8  H   UNL     1      -8.347  -6.874  -3.073  0.00  0.00    +0.159 HD
ATOM      9  H   UNL     1      -7.768  -6.508  -1.495  0.00  0.00    +0.159 HD
ENDROOT
BRANCH   1  10
ATOM     10  C   UNL     1      -7.400  -6.137  -5.343  0.00  0.00    +0.151 C 
BRANCH  10  11
ATOM     11  C   UNL     1      -6.718  -7.390  -5.816  0.00  0.00    -0.028 A 
ATOM     12  C   UNL     1      -7.471  -8.489  -6.254  0.00  0.00    +0.005 A 
ATOM     13  C   UNL     1      -5.317  -7.483  -5.834  0.00  0.00    +0.005 A 
ATOM     14  C   UNL     1      -6.837  -9.643  -6.722  0.00  0.00    +0.000 A 
ATOM     15  C   UNL     1      -4.688  -8.637  -6.302  0.00  0.00    +0.000 A 
ATOM     16  C   UNL     1      -5.449  -9.716  -6.748  0.00  0.00    +0.000 A 
ENDBRANCH  10  11
ENDBRANCH   1  10
TORSDOF 2
ENDMDL
MODEL 6
REMARK VINA RESULT:    -5.422      5.712      7.168
REMARK INTER + INTRA:          -6.179
REMARK INTER:                  -6.001
REMARK INTRA:                  -0.178
REMARK UNBOUND:                -0.123
REMARK  Name = 1550473
REMARK  2 active torsions:
REMARK  status: ('A' for Active; 'I' for Inactive)
REMARK    1  A    between atoms: N_1  and  C_4
REMARK    2  A    between atoms: C_4  and  C_5
REMARK                            x       y       z     vdW  Elec       q    Type
REMARK                         _______ _______ _______ _____ _____    ______ ____
ROOT
ATOM      1  N   UNL     1      -7.347 -10.081  -6.659  0.00  0.00    -0.354 N 
ATOM      2  N   UNL     1      -7.055 -12.234  -5.858  0.00  0.00    -0.372 N 
ATOM      3  N   UNL     1      -5.381 -11.277  -7.101  0.00  0.00    -0.372 N 
ATOM      4  C   UNL     1      -6.594 -11.183  -6.546  0.00  0.00    +0.166 C 
ATOM      5  H   UNL     1      -8.270 -10.083  -6.240  0.00  0.00    +0.163 HD
ATOM      6  H   UNL     1      -6.508 -13.078  -5.753  0.00  0.00    +0.159 HD
ATOM      7  H   UNL     1      -7.959 -12.217  -5.402  0.00  0.00    +0.159 HD
ATOM      8  H   UNL     1      -4.977 -10.521  -7.638  0.00  0.00    +0.159 HD
ATOM      9  H   UNL     1      -4.823 -12.118  -7.017  0.00  0.00    +0.159 HD
ENDROOT
BRANCH   1  10
ATOM     10  C   UNL     1      -6.915  -8.862  -7.341  0.00  0.00    +0.151 C 
BRANCH  10  11
ATOM     11  C   UNL     1      -6.366  -7.899  -6.325  0.00  0.00    -0.028 A 
ATOM     12  C   UNL     1      -4.981  -7.718  -6.190  0.00  0.00    +0.005 A 
ATOM     13  C   UNL     1      -7.225  -7.159  -5.498  0.00  0.00    +0.005 A 
ATOM     14  C   UNL     1      -4.472  -6.802  -5.268  0.00  0.00    +0.000 A 
ATOM     15  C   UNL     1      -6.712  -6.245  -4.577  0.00  0.00    +0.000 A 
ATOM     16  C   UNL     1      -5.335  -6.065  -4.464  0.00  0.00    +0.000 A 
ENDBRANCH  10  11
ENDBRANCH   1  10
TORSDOF 2
ENDMDL
MODEL 7
REMARK VINA RESULT:    -5.290      4.330      5.618
REMARK INTER + INTRA:          -6.031
REMARK INTER:                  -5.863
REMARK INTRA:                  -0.168
REMARK UNBOUND:                -0.123
REMARK  Name = 1550473
REMARK  2 active torsions:
REMARK  status: ('A' for Active; 'I' for Inactive)
REMARK    1  A    between atoms: N_1  and  C_4
REMARK    2  A    between atoms: C_4  and  C_5
REMARK                            x       y       z     vdW  Elec       q    Type
REMARK                         _______ _______ _______ _____ _____    ______ ____
ROOT
ATOM      1  N   UNL     1      -6.960  -6.500  -5.038  0.00  0.00    -0.354 N 
ATOM      2  N   UNL     1      -5.392  -5.881  -3.450  0.00  0.00    -0.372 N 
ATOM      3  N   UNL     1      -7.598  -6.023  -2.834  0.00  0.00    -0.372 N 
ATOM      4  C   UNL     1      -6.663  -6.138  -3.783  0.00  0.00    +0.166 C 
ATOM      5  H   UNL     1      -6.210  -6.540  -5.718  0.00  0.00    +0.163 HD
ATOM      6  H   UNL     1      -5.137  -5.609  -2.510  0.00  0.00    +0.159 HD
ATOM      7  H   UNL     1      -4.638  -5.966  -4.120  0.00  0.00    +0.159 HD
ATOM      8  H   UNL     1      -8.576  -6.198  -3.023  0.00  0.00    +0.159 HD
ATOM      9  H   UNL     1      -7.364  -5.741  -1.891  0.00  0.00    +0.159 HD
ENDROOT
BRANCH   1  10
ATOM     10  C   UNL     1      -8.304  -6.855  -5.490  0.00  0.00    +0.151 C 
BRANCH  10  11
ATOM     11  C   UNL     1      -8.499  -8.338  -5.336  0.00  0.00    -0.028 A 
ATOM     12  C   UNL     1      -9.468  -8.841  -4.455  0.00  0.00    +0.005 A 
ATOM     13  C   UNL     1      -7.722  -9.245  -6.073  0.00  0.00    +0.005 A 
ATOM     14  C   UNL     1      -9.670 -10.218  -4.334  0.00  0.00    +0.000 A 
ATOM     15  C   UNL     1      -7.926 -10.619  -5.948  0.00  0.00    +0.000 A 
ATOM     16  C   UNL     1      -8.902 -11.105  -5.081  0.00  0.00    +0.000 A 
ENDBRANCH  10  11
ENDBRANCH   1  10
TORSDOF 2
ENDMDL
MODEL 8
REMARK VINA RESULT:    -5.247      4.218      5.477
REMARK INTER + INTRA:          -5.984
REMARK INTER:                  -5.864
REMARK INTRA:                  -0.119
REMARK UNBOUND:                -0.123
REMARK  Name = 1550473
REMARK  2 active torsions:
REMARK  status: ('A' for Active; 'I' for Inactive)
REMARK    1  A    between atoms: N_1  and  C_4
REMARK    2  A    between atoms: C_4  and  C_5
REMARK                            x       y       z     vdW  Elec       q    Type
REMARK                         _______ _______ _______ _____ _____    ______ ____
ROOT
ATOM      1  N   UNL     1      -9.104  -8.229  -4.740  0.00  0.00    -0.354 N 
ATOM      2  N   UNL     1      -9.664 -10.455  -4.434  0.00  0.00    -0.372 N 
ATOM      3  N   UNL     1      -9.109  -9.731  -6.539  0.00  0.00    -0.372 N 
ATOM      4  C   UNL     1      -9.289  -9.457  -5.243  0.00  0.00    +0.166 C 
ATOM      5  H   UNL     1      -9.286  -8.080  -3.754  0.00  0.00    +0.163 HD
ATOM      6  H   UNL     1      -9.808 -11.393  -4.783  0.00  0.00    +0.159 HD
ATOM      7  H   UNL     1      -9.801 -10.313  -3.440  0.00  0.00    +0.159 HD
ATOM      8  H   UNL     1      -8.832  -9.020  -7.203  0.00  0.00    +0.159 HD
ATOM      9  H   UNL     1      -9.259 -10.661  -6.910  0.00  0.00    +0.159 HD
ENDROOT
BRANCH   1  10
ATOM     10  C   UNL     1      -8.644  -7.085  -5.525  0.00  0.00    +0.151 C 
BRANCH  10  11
ATOM     11  C   UNL     1      -7.144  -7.010  -5.451  0.00  0.00    -0.028 A 
ATOM     12  C   UNL     1      -6.353  -7.542  -6.479  0.00  0.00    +0.005 A 
ATOM     13  C   UNL     1      -6.508  -6.403  -4.358  0.00  0.00    +0.005 A 
ATOM     14  C   UNL     1      -4.960  -7.446  -6.425  0.00  0.00    +0.000 A 
ATOM     15  C   UNL     1      -5.117  -6.310  -4.307  0.00  0.00    +0.000 A 
ATOM     16  C   UNL     1      -4.344  -6.829  -5.342  0.00  0.00    +0.000 A 
ENDBRANCH  10  11
ENDBRANCH   1  10
TORSDOF 2
ENDMDL
MODEL 9
REMARK VINA RESULT:    -5.091      5.286      6.772
REMARK INTER + INTRA:          -5.809
REMARK INTER:                  -5.648
REMARK INTRA:                  -0.161
REMARK UNBOUND:                -0.123
REMARK  Name = 1550473
REMARK  2 active torsions:
REMARK  status: ('A' for Active; 'I' for Inactive)
REMARK    1  A    between atoms: N_1  and  C_4
REMARK    2  A    between atoms: C_4  and  C_5
REMARK                            x       y       z     vdW  Elec       q    Type
REMARK                         _______ _______ _______ _____ _____    ______ ____
ROOT
ATOM      1  N   UNL     1      -7.156 -10.339  -6.973  0.00  0.00    -0.354 N 
ATOM      2  N   UNL     1      -5.333 -11.640  -6.383  0.00  0.00    -0.372 N 
ATOM      3  N   UNL     1      -5.004  -9.420  -6.863  0.00  0.00    -0.372 N 
ATOM      4  C   UNL     1      -5.841 -10.455  -6.744  0.00  0.00    +0.166 C 
ATOM      5  H   UNL     1      -7.733 -11.169  -6.895  0.00  0.00    +0.163 HD
ATOM      6  H   UNL     1      -4.345 -11.757  -6.201  0.00  0.00    +0.159 HD
ATOM      7  H   UNL     1      -5.919 -12.457  -6.262  0.00  0.00    +0.159 HD
ATOM      8  H   UNL     1      -5.324  -8.501  -7.138  0.00  0.00    +0.159 HD
ATOM      9  H   UNL     1      -4.010  -9.520  -6.696  0.00  0.00    +0.159 HD
ENDROOT
BRANCH   1  10
ATOM     10  C   UNL     1      -7.818  -9.083  -7.319  0.00  0.00    +0.151 C 
BRANCH  10  11
ATOM     11  C   UNL     1      -8.256  -8.394  -6.055  0.00  0.00    -0.028 A 
ATOM     12  C   UNL     1      -7.862  -7.074  -5.791  0.00  0.00    +0.005 A 
ATOM     13  C   UNL     1      -9.068  -9.055  -5.121  0.00  0.00    +0.005 A 
ATOM     14  C   UNL     1      -8.292  -6.424  -4.631  0.00  0.00    +0.000 A 
ATOM     15  C   UNL     1      -9.495  -8.402  -3.964  0.00  0.00    +0.000 A 
ATOM     16  C   UNL     1      -9.109  -7.087  -3.721  0.00  0.00    +0.000 A 
ENDBRANCH  10  11
ENDBRANCH   1  10
TORSDOF 2
ENDMDL
