MODEL 1
REMARK VINA RESULT:    -5.325      0.000      0.000
REMARK INTER + INTRA:          -6.084
REMARK INTER:                  -5.947
REMARK INTRA:                  -0.137
REMARK UNBOUND:                -0.137
REMARK  Name = 1550473
REMARK  2 active torsions:
REMARK  status: ('A' for Active; 'I' for Inactive)
REMARK    1  A    between atoms: N_1  and  C_4
REMARK    2  A    between atoms: C_4  and  C_5
REMARK                            x       y       z     vdW  Elec       q    Type
REMARK                         _______ _______ _______ _____ _____    ______ ____
ROOT
ATOM      1  N   UNL     1      -6.376  -2.136  -3.953  0.00  0.00    -0.354 N 
ATOM      2  N   UNL     1      -7.223  -2.001  -1.801  0.00  0.00    -0.372 N 
ATOM      3  N   UNL     1      -6.721  -4.066  -2.669  0.00  0.00    -0.372 N 
ATOM      4  C   UNL     1      -6.768  -2.738  -2.822  0.00  0.00    +0.166 C 
ATOM      5  H   UNL     1      -6.465  -1.128  -4.017  0.00  0.00    +0.163 HD
ATOM      6  H   UNL     1      -7.522  -2.427  -0.934  0.00  0.00    +0.159 HD
ATOM      7  H   UNL     1      -7.267  -0.991  -1.851  0.00  0.00    +0.159 HD
ATOM      8  H   UNL     1      -6.393  -4.678  -3.404  0.00  0.00    +0.159 HD
ATOM      9  H   UNL     1      -7.027  -4.511  -1.813  0.00  0.00    +0.159 HD
ENDROOT
BRANCH   1  10
ATOM     10  C   UNL     1      -5.815  -2.842  -5.103  0.00  0.00    +0.151 C 
BRANCH  10  11
ATOM     11  C   UNL     1      -4.522  -2.184  -5.501  0.00  0.00    -0.028 A 
ATOM     12  C   UNL     1      -4.001  -2.359  -6.791  0.00  0.00    +0.005 A 
ATOM     13  C   UNL     1      -3.817  -1.379  -4.593  0.00  0.00    +0.005 A 
ATOM     14  C   UNL     1      -2.816  -1.724  -7.170  0.00  0.00    +0.000 A 
ATOM     15  C   UNL     1      -2.633  -0.747  -4.976  0.00  0.00    +0.000 A 
ATOM     16  C   UNL     1      -2.135  -0.918  -6.265  0.00  0.00    +0.000 A 
ENDBRANCH  10  11
ENDBRANCH   1  10
TORSDOF 2
ENDMDL
MODEL 2
REMARK VINA RESULT:    -5.210      4.293      5.948
REMARK INTER + INTRA:          -5.956
REMARK INTER:                  -5.817
REMARK INTRA:                  -0.139
REMARK UNBOUND:                -0.137
REMARK  Name = 1550473
REMARK  2 active torsions:
REMARK  status: ('A' for Active; 'I' for Inactive)
REMARK    1  A    between atoms: N_1  and  C_4
REMARK    2  A    between atoms: C_4  and  C_5
REMARK                            x       y       z     vdW  Elec       q    Type
REMARK                         _______ _______ _______ _____ _____    ______ ____
ROOT
ATOM      1  N   UNL     1      -2.162  -2.680  -9.108  0.00  0.00    -0.354 N 
ATOM      2  N   UNL     1      -1.590  -4.630 -10.220  0.00  0.00    -0.372 N 
ATOM      3  N   UNL     1       0.078  -3.337  -9.319  0.00  0.00    -0.372 N 
ATOM      4  C   UNL     1      -1.226  -3.535  -9.541  0.00  0.00    +0.166 C 
ATOM      5  H   UNL     1      -3.131  -2.872  -9.335  0.00  0.00    +0.163 HD
ATOM      6  H   UNL     1      -0.907  -5.295 -10.557  0.00  0.00    +0.159 HD
ATOM      7  H   UNL     1      -2.563  -4.842 -10.406  0.00  0.00    +0.159 HD
ATOM      8  H   UNL     1       0.418  -2.528  -8.818  0.00  0.00    +0.159 HD
ATOM      9  H   UNL     1       0.778  -3.985  -9.658  0.00  0.00    +0.159 HD
ENDROOT
BRANCH   1  10
ATOM     10  C   UNL     1      -1.875  -1.487  -8.313  0.00  0.00    +0.151 C 
BRANCH  10  11
ATOM     11  C   UNL     1      -2.691  -1.530  -7.051  0.00  0.00    -0.028 A 
ATOM     12  C   UNL     1      -2.221  -0.919  -5.879  0.00  0.00    +0.005 A 
ATOM     13  C   UNL     1      -3.937  -2.175  -7.021  0.00  0.00    +0.005 A 
ATOM     14  C   UNL     1      -2.992  -0.932  -4.714  0.00  0.00    +0.000 A 
ATOM     15  C   UNL     1      -4.703  -2.186  -5.856  0.00  0.00    +0.000 A 
ATOM     16  C   UNL     1      -4.232  -1.563  -4.703  0.00  0.00    +0.000 A 
ENDBRANCH  10  11
ENDBRANCH   1  10
TORSDOF 2
ENDMDL
MODEL 3
REMARK VINA RESULT:    -5.125      1.635      2.377
REMARK INTER + INTRA:          -5.861
REMARK INTER:                  -5.721
REMARK INTRA:                  -0.140
REMARK UNBOUND:                -0.137
REMARK  Name = 1550473
REMARK  2 active torsions:
REMARK  status: ('A' for Active; 'I' for Inactive)
REMARK    1  A    between atoms: N_1  and  C_4
REMARK    2  A    between atoms: C_4  and  C_5
REMARK                            x       y       z     vdW  Elec       q    Type
REMARK                         _______ _______ _______ _____ _____    ______ ____
ROOT
ATOM      1  N   UNL     1      -6.827  -3.158  -5.237  0.00  0.00    -0.354 N 
ATOM      2  N   UNL     1      -8.668  -3.141  -3.832  0.00  0.00    -0.372 N 
ATOM      3  N   UNL     1      -8.927  -2.457  -6.007  0.00  0.00    -0.372 N 
ATOM      4  C   UNL     1      -8.130  -2.918  -5.037  0.00  0.00    +0.166 C 
ATOM      5  H   UNL     1      -6.270  -3.478  -4.453  0.00  0.00    +0.163 HD
ATOM      6  H   UNL     1      -9.649  -2.973  -3.652  0.00  0.00    +0.159 HD
ATOM      7  H   UNL     1      -8.119  -3.505  -3.062  0.00  0.00    +0.159 HD
ATOM      8  H   UNL     1      -8.581  -2.263  -6.937  0.00  0.00    +0.159 HD
ATOM      9  H   UNL     1      -9.908  -2.271  -5.843  0.00  0.00    +0.159 HD
ENDROOT
BRANCH   1  10
ATOM     10  C   UNL     1      -6.155  -2.999  -6.525  0.00  0.00    +0.151 C 
BRANCH  10  11
ATOM     11  C   UNL     1      -4.825  -2.333  -6.306  0.00  0.00    -0.028 A 
ATOM     12  C   UNL     1      -4.471  -1.848  -5.039  0.00  0.00    +0.005 A 
ATOM     13  C   UNL     1      -3.910  -2.189  -7.361  0.00  0.00    +0.005 A 
ATOM     14  C   UNL     1      -3.224  -1.256  -4.828  0.00  0.00    +0.000 A 
ATOM     15  C   UNL     1      -2.666  -1.597  -7.147  0.00  0.00    +0.000 A 
ATOM     16  C   UNL     1      -2.322  -1.133  -5.880  0.00  0.00    +0.000 A 
ENDBRANCH  10  11
ENDBRANCH   1  10
TORSDOF 2
ENDMDL
MODEL 4
REMARK VINA RESULT:    -5.075      5.266      6.865
REMARK INTER + INTRA:          -5.806
REMARK INTER:                  -5.651
REMARK INTRA:                  -0.154
REMARK UNBOUND:                -0.137
REMARK  Name = 1550473
REMARK  2 active torsions:
REMARK  status: ('A' for Active; 'I' for Inactive)
REMARK    1  A    between atoms: N_1  and  C_4
REMARK    2  A    between atoms: C_4  and  C_5
REMARK                            x       y       z     vdW  Elec       q    Type
REMARK                         _______ _______ _______ _____ _____    ______ ____
ROOT
ATOM      1  N   UNL     1       0.746  -2.185  -8.316  0.00  0.00    -0.354 N 
ATOM      2  N   UNL     1       2.419  -3.653  -8.958  0.00  0.00    -0.372 N 
ATOM      3  N   UNL     1       0.477  -3.583 -10.178  0.00  0.00    -0.372 N 
ATOM      4  C   UNL     1       1.201  -3.131  -9.148  0.00  0.00    +0.166 C 
ATOM      5  H   UNL     1       1.331  -1.907  -7.537  0.00  0.00    +0.163 HD
ATOM      6  H   UNL     1       2.790  -4.365  -9.571  0.00  0.00    +0.159 HD
ATOM      7  H   UNL     1       3.020  -3.341  -8.205  0.00  0.00    +0.159 HD
ATOM      8  H   UNL     1      -0.453  -3.234 -10.372  0.00  0.00    +0.159 HD
ATOM      9  H   UNL     1       0.826  -4.304 -10.796  0.00  0.00    +0.159 HD
ENDROOT
BRANCH   1  10
ATOM     10  C   UNL     1      -0.544  -1.514  -8.468  0.00  0.00    +0.151 C 
BRANCH  10  11
ATOM     11  C   UNL     1      -1.384  -1.784  -7.250  0.00  0.00    -0.028 A 
ATOM     12  C   UNL     1      -1.815  -0.728  -6.434  0.00  0.00    +0.005 A 
ATOM     13  C   UNL     1      -1.757  -3.093  -6.909  0.00  0.00    +0.005 A 
ATOM     14  C   UNL     1      -2.620  -0.975  -5.319  0.00  0.00    +0.000 A 
ATOM     15  C   UNL     1      -2.560  -3.336  -5.795  0.00  0.00    +0.000 A 
ATOM     16  C   UNL     1      -2.993  -2.277  -5.002  0.00  0.00    +0.000 A 
ENDBRANCH  10  11
ENDBRANCH   1  10
TORSDOF 2
ENDMDL
MODEL 5
REMARK VINA RESULT:    -4.940      4.759      6.110
REMARK INTER + INTRA:          -5.655
REMARK INTER:                  -5.519
REMARK INTRA:                  -0.136
REMARK UNBOUND:                -0.137
REMARK  Name = 1550473
REMARK  2 active torsions:
REMARK  status: ('A' for Active; 'I' for Inactive)
REMARK    1  A    between atoms: N_1  and  C_4
REMARK    2  A    between atoms: C_4  and  C_5
REMARK                            x       y       z     vdW  Elec       q    Type
REMARK                         _______ _______ _______ _____ _____    ______ ____
ROOT
ATOM      1  N   UNL     1      -0.991  -2.629  -8.886  0.00  0.00    -0.354 N 
ATOM      2  N   UNL     1      -1.121  -2.110 -11.139  0.00  0.00    -0.372 N 
ATOM      3  N   UNL     1      -1.658  -4.234 -10.458  0.00  0.00    -0.372 N 
ATOM      4  C   UNL     1      -1.257  -2.997 -10.146  0.00  0.00    +0.166 C 
ATOM      5  H   UNL     1      -0.661  -1.685  -8.719  0.00  0.00    +0.163 HD
ATOM      6  H   UNL     1      -1.318  -2.357 -12.099  0.00  0.00    +0.159 HD
ATOM      7  H   UNL     1      -0.836  -1.154 -10.964  0.00  0.00    +0.159 HD
ATOM      8  H   UNL     1      -1.774  -4.952  -9.755  0.00  0.00    +0.159 HD
ATOM      9  H   UNL     1      -1.849  -4.504 -11.415  0.00  0.00    +0.159 HD
ENDROOT
BRANCH   1  10
ATOM     10  C   UNL     1      -1.159  -3.504  -7.726  0.00  0.00    +0.151 C 
BRANCH  10  11
ATOM     11  C   UNL     1      -1.894  -2.755  -6.649  0.00  0.00    -0.028 A 
ATOM     12  C   UNL     1      -2.560  -3.449  -5.628  0.00  0.00    +0.005 A 
ATOM     13  C   UNL     1      -1.924  -1.352  -6.640  0.00  0.00    +0.005 A 
ATOM     14  C   UNL     1      -3.219  -2.754  -4.610  0.00  0.00    +0.000 A 
ATOM     15  C   UNL     1      -2.583  -0.662  -5.623  0.00  0.00    +0.000 A 
ATOM     16  C   UNL     1      -3.228  -1.363  -4.607  0.00  0.00    +0.000 A 
ENDBRANCH  10  11
ENDBRANCH   1  10
TORSDOF 2
ENDMDL
MODEL 6
REMARK VINA RESULT:    -4.887      2.832      3.736
REMARK INTER + INTRA:          -5.595
REMARK INTER:                  -5.465
REMARK INTRA:                  -0.130
REMARK UNBOUND:                -0.137
REMARK  Name = 1550473
REMARK  2 active torsions:
REMARK  status: ('A' for Active; 'I' for Inactive)
REMARK    1  A    between atoms: N_1  and  C_4
REMARK    2  A    between atoms: C_4  and  C_5
REMARK                            x       y       z     vdW  Elec       q    Type
REMARK                         _______ _______ _______ _____ _____    ______ ____
ROOT
ATOM      1  N   UNL     1      -6.507  -2.839  -7.738  0.00  0.00    -0.354 N 
ATOM      2  N   UNL     1      -8.112  -2.386  -9.345  0.00  0.00    -0.372 N 
ATOM      3  N   UNL     1      -8.712  -2.330  -7.131  0.00  0.00    -0.372 N 
ATOM      4  C   UNL     1      -7.768  -2.521  -8.058  0.00  0.00    +0.166 C 
ATOM      5  H   UNL     1      -5.846  -3.001  -8.489  0.00  0.00    +0.163 HD
ATOM      6  H   UNL     1      -9.056  -2.143  -9.617  0.00  0.00    +0.159 HD
ATOM      7  H   UNL     1      -7.439  -2.503 -10.092  0.00  0.00    +0.159 HD
ATOM      8  H   UNL     1      -8.518  -2.423  -6.142  0.00  0.00    +0.159 HD
ATOM      9  H   UNL     1      -9.665  -2.098  -7.383  0.00  0.00    +0.159 HD
ENDROOT
BRANCH   1  10
ATOM     10  C   UNL     1      -6.016  -2.957  -6.366  0.00  0.00    +0.151 C 
BRANCH  10  11
ATOM     11  C   UNL     1      -4.681  -2.275  -6.261  0.00  0.00    -0.028 A 
ATOM     12  C   UNL     1      -4.244  -1.748  -5.037  0.00  0.00    +0.005 A 
ATOM     13  C   UNL     1      -3.844  -2.157  -7.382  0.00  0.00    +0.005 A 
ATOM     14  C   UNL     1      -2.991  -1.140  -4.932  0.00  0.00    +0.000 A 
ATOM     15  C   UNL     1      -2.593  -1.548  -7.273  0.00  0.00    +0.000 A 
ATOM     16  C   UNL     1      -2.166  -1.043  -6.048  0.00  0.00    +0.000 A 
ENDBRANCH  10  11
ENDBRANCH   1  10
TORSDOF 2
ENDMDL
MODEL 7
REMARK VINA RESULT:    -4.675      1.763      2.181
REMARK INTER + INTRA:          -5.359
REMARK INTER:                  -5.216
REMARK INTRA:                  -0.143
REMARK UNBOUND:                -0.137
REMARK  Name = 1550473
REMARK  2 active torsions:
REMARK  status: ('A' for Active; 'I' for Inactive)
REMARK    1  A    between atoms: N_1  and  C_4
REMARK    2  A    between atoms: C_4  and  C_5
REMARK                            x       y       z     vdW  Elec       q    Type
REMARK                         _______ _______ _______ _____ _____    ______ ____
ROOT
ATOM      1  N   UNL     1      -4.753  -2.640  -4.011  0.00  0.00    -0.354 N 
ATOM      2  N   UNL     1      -3.784  -3.274  -2.005  0.00  0.00    -0.372 N 
ATOM      3  N   UNL     1      -5.169  -4.752  -3.085  0.00  0.00    -0.372 N 
ATOM      4  C   UNL     1      -4.577  -3.553  -3.047  0.00  0.00    +0.166 C 
ATOM      5  H   UNL     1      -4.300  -1.739  -3.909  0.00  0.00    +0.163 HD
ATOM      6  H   UNL     1      -3.630  -3.945  -1.264  0.00  0.00    +0.159 HD
ATOM      7  H   UNL     1      -3.296  -2.390  -1.929  0.00  0.00    +0.159 HD
ATOM      8  H   UNL     1      -5.784  -5.022  -3.841  0.00  0.00    +0.159 HD
ATOM      9  H   UNL     1      -5.036  -5.432  -2.347  0.00  0.00    +0.159 HD
ENDROOT
BRANCH   1  10
ATOM     10  C   UNL     1      -5.552  -2.864  -5.214  0.00  0.00    +0.151 C 
BRANCH  10  11
ATOM     11  C   UNL     1      -4.741  -2.481  -6.421  0.00  0.00    -0.028 A 
ATOM     12  C   UNL     1      -5.291  -2.577  -7.708  0.00  0.00    +0.005 A 
ATOM     13  C   UNL     1      -3.425  -2.015  -6.285  0.00  0.00    +0.005 A 
ATOM     14  C   UNL     1      -4.549  -2.192  -8.827  0.00  0.00    +0.000 A 
ATOM     15  C   UNL     1      -2.687  -1.633  -7.405  0.00  0.00    +0.000 A 
ATOM     16  C   UNL     1      -3.250  -1.719  -8.676  0.00  0.00    +0.000 A 
ENDBRANCH  10  11
ENDBRANCH   1  10
TORSDOF 2
ENDMDL
MODEL 8
REMARK VINA RESULT:    -4.369      4.377      7.116
REMARK INTER + INTRA:          -5.017
REMARK INTER:                  -4.891
REMARK INTRA:                  -0.126
REMARK UNBOUND:                -0.137
REMARK  Name = 1550473
REMARK  2 active torsions:
REMARK  status: ('A' for Active; 'I' for Inactive)
REMARK    1  A    between atoms: N_1  and  C_4
REMARK    2  A    between atoms: C_4  and  C_5
REMARK                            x       y       z     vdW  Elec       q    Type
REMARK                         _______ _______ _______ _____ _____    ______ ____
ROOT
ATOM      1  N   UNL     1      -7.396  -4.294  -2.210  0.00  0.00    -0.354 N 
ATOM      2  N   UNL     1      -6.053  -2.922  -0.914  0.00  0.00    -0.372 N 
ATOM      3  N   UNL     1      -7.185  -2.010  -2.690  0.00  0.00    -0.372 N 
ATOM      4  C   UNL     1      -6.887  -3.083  -1.949  0.00  0.00    +0.166 C 
ATOM      5  H   UNL     1      -7.108  -5.073  -1.629  0.00  0.00    +0.163 HD
ATOM      6  H   UNL     1      -5.656  -2.020  -0.691  0.00  0.00    +0.159 HD
ATOM      7  H   UNL     1      -5.803  -3.693  -0.307  0.00  0.00    +0.159 HD
ATOM      8  H   UNL     1      -7.803  -2.065  -3.488  0.00  0.00    +0.159 HD
ATOM      9  H   UNL     1      -6.788  -1.100  -2.489  0.00  0.00    +0.159 HD
ENDROOT
BRANCH   1  10
ATOM     10  C   UNL     1      -8.355  -4.565  -3.279  0.00  0.00    +0.151 C 
BRANCH  10  11
ATOM     11  C   UNL     1      -9.018  -5.890  -3.021  0.00  0.00    -0.028 A 
ATOM     12  C   UNL     1      -8.701  -6.633  -1.874  0.00  0.00    +0.005 A 
ATOM     13  C   UNL     1      -9.968  -6.405  -3.916  0.00  0.00    +0.005 A 
ATOM     14  C   UNL     1      -9.338  -7.850  -1.619  0.00  0.00    +0.000 A 
ATOM     15  C   UNL     1     -10.601  -7.621  -3.658  0.00  0.00    +0.000 A 
ATOM     16  C   UNL     1     -10.288  -8.341  -2.508  0.00  0.00    +0.000 A 
ENDBRANCH  10  11
ENDBRANCH   1  10
TORSDOF 2
ENDMDL
MODEL 9
REMARK VINA RESULT:    -4.269      2.781      5.501
REMARK INTER + INTRA:          -4.906
REMARK INTER:                  -4.732
REMARK INTRA:                  -0.174
REMARK UNBOUND:                -0.137
REMARK  Name = 1550473
REMARK  2 active torsions:
REMARK  status: ('A' for Active; 'I' for Inactive)
REMARK    1  A    between atoms: N_1  and  C_4
REMARK    2  A    between atoms: C_4  and  C_5
REMARK                            x       y       z     vdW  Elec       q    Type
REMARK                         _______ _______ _______ _____ _____    ______ ____
ROOT
ATOM      1  N   UNL     1      -5.134  -2.753  -3.834  0.00  0.00    -0.354 N 
ATOM      2  N   UNL     1      -3.260  -3.572  -4.921  0.00  0.00    -0.372 N 
ATOM      3  N   UNL     1      -3.616  -4.156  -2.731  0.00  0.00    -0.372 N 
ATOM      4  C   UNL     1      -4.015  -3.489  -3.819  0.00  0.00    +0.166 C 
ATOM      5  H   UNL     1      -5.366  -2.247  -4.681  0.00  0.00    +0.163 HD
ATOM      6  H   UNL     1      -2.412  -4.122  -4.940  0.00  0.00    +0.159 HD
ATOM      7  H   UNL     1      -3.519  -3.102  -5.780  0.00  0.00    +0.159 HD
ATOM      8  H   UNL     1      -4.138  -4.129  -1.865  0.00  0.00    +0.159 HD
ATOM      9  H   UNL     1      -2.764  -4.703  -2.727  0.00  0.00    +0.159 HD
ENDROOT
BRANCH   1  10
ATOM     10  C   UNL     1      -6.055  -2.640  -2.704  0.00  0.00    +0.151 C 
BRANCH  10  11
ATOM     11  C   UNL     1      -7.265  -3.493  -2.969  0.00  0.00    -0.028 A 
ATOM     12  C   UNL     1      -7.279  -4.844  -2.594  0.00  0.00    +0.005 A 
ATOM     13  C   UNL     1      -8.402  -2.954  -3.590  0.00  0.00    +0.005 A 
ATOM     14  C   UNL     1      -8.414  -5.629  -2.813  0.00  0.00    +0.000 A 
ATOM     15  C   UNL     1      -9.533  -3.741  -3.807  0.00  0.00    +0.000 A 
ATOM     16  C   UNL     1      -9.539  -5.078  -3.417  0.00  0.00    +0.000 A 
ENDBRANCH  10  11
ENDBRANCH   1  10
TORSDOF 2
ENDMDL
