MODEL 1
REMARK VINA RESULT:    -3.946      0.000      0.000
REMARK INTER + INTRA:          -4.584
REMARK INTER:                  -4.407
REMARK INTRA:                  -0.176
REMARK UNBOUND:                -0.176
REMARK  Name = 1550473
REMARK  2 active torsions:
REMARK  status: ('A' for Active; 'I' for Inactive)
REMARK    1  A    between atoms: N_1  and  C_4
REMARK    2  A    between atoms: C_4  and  C_5
REMARK                            x       y       z     vdW  Elec       q    Type
REMARK                         _______ _______ _______ _____ _____    ______ ____
ROOT
ATOM      1  N   UNL     1      15.300  18.271  40.969  0.00  0.00    -0.354 N 
ATOM      2  N   UNL     1      15.013  19.330  38.930  0.00  0.00    -0.372 N 
ATOM      3  N   UNL     1      13.532  19.770  40.626  0.00  0.00    -0.372 N 
ATOM      4  C   UNL     1      14.614  19.118  40.190  0.00  0.00    +0.166 C 
ATOM      5  H   UNL     1      16.095  17.785  40.569  0.00  0.00    +0.163 HD
ATOM      6  H   UNL     1      14.517  19.966  38.319  0.00  0.00    +0.159 HD
ATOM      7  H   UNL     1      15.834  18.878  38.547  0.00  0.00    +0.159 HD
ATOM      8  H   UNL     1      13.176  19.649  41.565  0.00  0.00    +0.159 HD
ATOM      9  H   UNL     1      13.016  20.402  40.027  0.00  0.00    +0.159 HD
ENDROOT
BRANCH   1  10
ATOM     10  C   UNL     1      14.982  18.011  42.372  0.00  0.00    +0.151 C 
BRANCH  10  11
ATOM     11  C   UNL     1      15.987  18.713  43.242  0.00  0.00    -0.028 A 
ATOM     12  C   UNL     1      15.627  19.862  43.962  0.00  0.00    +0.005 A 
ATOM     13  C   UNL     1      17.300  18.231  43.357  0.00  0.00    +0.005 A 
ATOM     14  C   UNL     1      16.552  20.497  44.794  0.00  0.00    +0.000 A 
ATOM     15  C   UNL     1      18.221  18.869  44.188  0.00  0.00    +0.000 A 
ATOM     16  C   UNL     1      17.846  20.000  44.908  0.00  0.00    +0.000 A 
ENDBRANCH  10  11
ENDBRANCH   1  10
TORSDOF 2
ENDMDL
MODEL 2
REMARK VINA RESULT:    -3.870     71.510     73.440
REMARK INTER + INTRA:          -4.499
REMARK INTER:                  -4.339
REMARK INTRA:                  -0.161
REMARK UNBOUND:                -0.176
REMARK  Name = 1550473
REMARK  2 active torsions:
REMARK  status: ('A' for Active; 'I' for Inactive)
REMARK    1  A    between atoms: N_1  and  C_4
REMARK    2  A    between atoms: C_4  and  C_5
REMARK                            x       y       z     vdW  Elec       q    Type
REMARK                         _______ _______ _______ _____ _____    ______ ____
ROOT
ATOM      1  N   UNL     1     -11.437  -8.669 -19.128  0.00  0.00    -0.354 N 
ATOM      2  N   UNL     1     -10.397  -7.210 -17.660  0.00  0.00    -0.372 N 
ATOM      3  N   UNL     1     -12.514  -7.949 -17.176  0.00  0.00    -0.372 N 
ATOM      4  C   UNL     1     -11.459  -7.952 -17.996  0.00  0.00    +0.166 C 
ATOM      5  H   UNL     1     -10.618  -8.605 -19.722  0.00  0.00    +0.163 HD
ATOM      6  H   UNL     1     -10.383  -6.662 -16.810  0.00  0.00    +0.159 HD
ATOM      7  H   UNL     1      -9.562  -7.185 -18.232  0.00  0.00    +0.159 HD
ATOM      8  H   UNL     1     -13.350  -8.483 -17.375  0.00  0.00    +0.159 HD
ATOM      9  H   UNL     1     -12.524  -7.397 -16.327  0.00  0.00    +0.159 HD
ENDROOT
BRANCH   1  10
ATOM     10  C   UNL     1     -12.520  -9.551 -19.558  0.00  0.00    +0.151 C 
BRANCH  10  11
ATOM     11  C   UNL     1     -12.166 -10.970 -19.207  0.00  0.00    -0.028 A 
ATOM     12  C   UNL     1     -12.496 -11.496 -17.949  0.00  0.00    +0.005 A 
ATOM     13  C   UNL     1     -11.506 -11.796 -20.130  0.00  0.00    +0.005 A 
ATOM     14  C   UNL     1     -12.194 -12.823 -17.634  0.00  0.00    +0.000 A 
ATOM     15  C   UNL     1     -11.206 -13.120 -19.811  0.00  0.00    +0.000 A 
ATOM     16  C   UNL     1     -11.552 -13.634 -18.564  0.00  0.00    +0.000 A 
ENDBRANCH  10  11
ENDBRANCH   1  10
TORSDOF 2
ENDMDL
MODEL 3
REMARK VINA RESULT:    -3.849     44.562     46.227
REMARK INTER + INTRA:          -4.475
REMARK INTER:                  -4.337
REMARK INTRA:                  -0.138
REMARK UNBOUND:                -0.176
REMARK  Name = 1550473
REMARK  2 active torsions:
REMARK  status: ('A' for Active; 'I' for Inactive)
REMARK    1  A    between atoms: N_1  and  C_4
REMARK    2  A    between atoms: C_4  and  C_5
REMARK                            x       y       z     vdW  Elec       q    Type
REMARK                         _______ _______ _______ _____ _____    ______ ____
ROOT
ATOM      1  N   UNL     1      17.531 -17.946  13.291  0.00  0.00    -0.354 N 
ATOM      2  N   UNL     1      17.974 -19.827  12.015  0.00  0.00    -0.372 N 
ATOM      3  N   UNL     1      19.723 -18.495  12.671  0.00  0.00    -0.372 N 
ATOM      4  C   UNL     1      18.409 -18.742  12.668  0.00  0.00    +0.166 C 
ATOM      5  H   UNL     1      16.545 -18.172  13.226  0.00  0.00    +0.163 HD
ATOM      6  H   UNL     1      18.614 -20.449  11.538  0.00  0.00    +0.159 HD
ATOM      7  H   UNL     1      16.993 -20.076  11.990  0.00  0.00    +0.159 HD
ATOM      8  H   UNL     1      20.115 -17.689  13.140  0.00  0.00    +0.159 HD
ATOM      9  H   UNL     1      20.378 -19.098  12.189  0.00  0.00    +0.159 HD
ENDROOT
BRANCH   1  10
ATOM     10  C   UNL     1      17.906 -16.770  14.075  0.00  0.00    +0.151 C 
BRANCH  10  11
ATOM     11  C   UNL     1      17.116 -15.585  13.592  0.00  0.00    -0.028 A 
ATOM     12  C   UNL     1      16.740 -15.482  12.245  0.00  0.00    +0.005 A 
ATOM     13  C   UNL     1      16.736 -14.566  14.478  0.00  0.00    +0.005 A 
ATOM     14  C   UNL     1      15.981 -14.396  11.802  0.00  0.00    +0.000 A 
ATOM     15  C   UNL     1      15.978 -13.483  14.032  0.00  0.00    +0.000 A 
ATOM     16  C   UNL     1      15.599 -13.400  12.694  0.00  0.00    +0.000 A 
ENDBRANCH  10  11
ENDBRANCH   1  10
TORSDOF 2
ENDMDL
MODEL 4
REMARK VINA RESULT:    -3.813     75.793     78.344
REMARK INTER + INTRA:          -4.435
REMARK INTER:                  -4.297
REMARK INTRA:                  -0.139
REMARK UNBOUND:                -0.176
REMARK  Name = 1550473
REMARK  2 active torsions:
REMARK  status: ('A' for Active; 'I' for Inactive)
REMARK    1  A    between atoms: N_1  and  C_4
REMARK    2  A    between atoms: C_4  and  C_5
REMARK                            x       y       z     vdW  Elec       q    Type
REMARK                         _______ _______ _______ _____ _____    ______ ____
ROOT
ATOM      1  N   UNL     1     -12.091 -16.469 -19.244  0.00  0.00    -0.354 N 
ATOM      2  N   UNL     1     -13.097 -14.522 -18.495  0.00  0.00    -0.372 N 
ATOM      3  N   UNL     1     -11.066 -14.384 -19.554  0.00  0.00    -0.372 N 
ATOM      4  C   UNL     1     -12.075 -15.137 -19.103  0.00  0.00    +0.166 C 
ATOM      5  H   UNL     1     -12.871 -16.985 -18.854  0.00  0.00    +0.163 HD
ATOM      6  H   UNL     1     -13.115 -13.518 -18.377  0.00  0.00    +0.159 HD
ATOM      7  H   UNL     1     -13.897 -15.036 -18.146  0.00  0.00    +0.159 HD
ATOM      8  H   UNL     1     -10.263 -14.788 -20.017  0.00  0.00    +0.159 HD
ATOM      9  H   UNL     1     -11.060 -13.379 -19.435  0.00  0.00    +0.159 HD
ENDROOT
BRANCH   1  10
ATOM     10  C   UNL     1     -11.054 -17.230 -19.939  0.00  0.00    +0.151 C 
BRANCH  10  11
ATOM     11  C   UNL     1     -11.701 -18.114 -20.969  0.00  0.00    -0.028 A 
ATOM     12  C   UNL     1     -13.023 -18.552 -20.802  0.00  0.00    +0.005 A 
ATOM     13  C   UNL     1     -10.998 -18.514 -22.116  0.00  0.00    +0.005 A 
ATOM     14  C   UNL     1     -13.634 -19.349 -21.773  0.00  0.00    +0.000 A 
ATOM     15  C   UNL     1     -11.612 -19.311 -23.082  0.00  0.00    +0.000 A 
ATOM     16  C   UNL     1     -12.930 -19.726 -22.912  0.00  0.00    +0.000 A 
ENDBRANCH  10  11
ENDBRANCH   1  10
TORSDOF 2
ENDMDL
MODEL 5
REMARK VINA RESULT:    -3.676     20.454     22.194
REMARK INTER + INTRA:          -4.283
REMARK INTER:                  -4.161
REMARK INTRA:                  -0.122
REMARK UNBOUND:                -0.176
REMARK  Name = 1550473
REMARK  2 active torsions:
REMARK  status: ('A' for Active; 'I' for Inactive)
REMARK    1  A    between atoms: N_1  and  C_4
REMARK    2  A    between atoms: C_4  and  C_5
REMARK                            x       y       z     vdW  Elec       q    Type
REMARK                         _______ _______ _______ _____ _____    ______ ____
ROOT
ATOM      1  N   UNL     1       8.918  10.965  24.405  0.00  0.00    -0.354 N 
ATOM      2  N   UNL     1       6.776  10.810  25.272  0.00  0.00    -0.372 N 
ATOM      3  N   UNL     1       8.066  12.626  25.822  0.00  0.00    -0.372 N 
ATOM      4  C   UNL     1       7.935  11.470  25.162  0.00  0.00    +0.166 C 
ATOM      5  H   UNL     1       8.767  10.069  23.955  0.00  0.00    +0.163 HD
ATOM      6  H   UNL     1       6.015  11.169  25.833  0.00  0.00    +0.159 HD
ATOM      7  H   UNL     1       6.611   9.938  24.784  0.00  0.00    +0.159 HD
ATOM      8  H   UNL     1       8.918  13.170  25.785  0.00  0.00    +0.159 HD
ATOM      9  H   UNL     1       7.320  12.996  26.398  0.00  0.00    +0.159 HD
ENDROOT
BRANCH   1  10
ATOM     10  C   UNL     1      10.199  11.631  24.176  0.00  0.00    +0.151 C 
BRANCH  10  11
ATOM     11  C   UNL     1      10.353  11.906  22.706  0.00  0.00    -0.028 A 
ATOM     12  C   UNL     1      11.595  12.291  22.180  0.00  0.00    +0.005 A 
ATOM     13  C   UNL     1       9.263  11.777  21.832  0.00  0.00    +0.005 A 
ATOM     14  C   UNL     1      11.747  12.518  20.810  0.00  0.00    +0.000 A 
ATOM     15  C   UNL     1       9.418  12.004  20.465  0.00  0.00    +0.000 A 
ATOM     16  C   UNL     1      10.660  12.372  19.954  0.00  0.00    +0.000 A 
ENDBRANCH  10  11
ENDBRANCH   1  10
TORSDOF 2
ENDMDL
MODEL 6
REMARK VINA RESULT:    -3.557     97.051     98.909
REMARK INTER + INTRA:          -4.150
REMARK INTER:                  -4.021
REMARK INTRA:                  -0.129
REMARK UNBOUND:                -0.176
REMARK  Name = 1550473
REMARK  2 active torsions:
REMARK  status: ('A' for Active; 'I' for Inactive)
REMARK    1  A    between atoms: N_1  and  C_4
REMARK    2  A    between atoms: C_4  and  C_5
REMARK                            x       y       z     vdW  Elec       q    Type
REMARK                         _______ _______ _______ _____ _____    ______ ____
ROOT
ATOM      1  N   UNL     1     -13.768 -15.348 -44.492  0.00  0.00    -0.354 N 
ATOM      2  N   UNL     1     -14.472 -13.141 -44.516  0.00  0.00    -0.372 N 
ATOM      3  N   UNL     1     -14.229 -14.206 -42.498  0.00  0.00    -0.372 N 
ATOM      4  C   UNL     1     -14.152 -14.247 -43.832  0.00  0.00    +0.166 C 
ATOM      5  H   UNL     1     -13.760 -15.323 -45.505  0.00  0.00    +0.163 HD
ATOM      6  H   UNL     1     -14.761 -12.294 -44.046  0.00  0.00    +0.159 HD
ATOM      7  H   UNL     1     -14.418 -13.106 -45.527  0.00  0.00    +0.159 HD
ATOM      8  H   UNL     1     -14.006 -15.008 -41.924  0.00  0.00    +0.159 HD
ATOM      9  H   UNL     1     -14.528 -13.371 -42.009  0.00  0.00    +0.159 HD
ENDROOT
BRANCH   1  10
ATOM     10  C   UNL     1     -13.347 -16.586 -43.840  0.00  0.00    +0.151 C 
BRANCH  10  11
ATOM     11  C   UNL     1     -14.254 -17.704 -44.276  0.00  0.00    -0.028 A 
ATOM     12  C   UNL     1     -15.627 -17.478 -44.454  0.00  0.00    +0.005 A 
ATOM     13  C   UNL     1     -13.746 -18.989 -44.518  0.00  0.00    +0.005 A 
ATOM     14  C   UNL     1     -16.465 -18.509 -44.888  0.00  0.00    +0.000 A 
ATOM     15  C   UNL     1     -14.586 -20.015 -44.951  0.00  0.00    +0.000 A 
ATOM     16  C   UNL     1     -15.944 -19.774 -45.138  0.00  0.00    +0.000 A 
ENDBRANCH  10  11
ENDBRANCH   1  10
TORSDOF 2
ENDMDL
MODEL 7
REMARK VINA RESULT:    -3.463      4.389      5.969
REMARK INTER + INTRA:          -4.044
REMARK INTER:                  -3.917
REMARK INTRA:                  -0.127
REMARK UNBOUND:                -0.176
REMARK  Name = 1550473
REMARK  2 active torsions:
REMARK  status: ('A' for Active; 'I' for Inactive)
REMARK    1  A    between atoms: N_1  and  C_4
REMARK    2  A    between atoms: C_4  and  C_5
REMARK                            x       y       z     vdW  Elec       q    Type
REMARK                         _______ _______ _______ _____ _____    ______ ____
ROOT
ATOM      1  N   UNL     1      18.461  19.940  46.665  0.00  0.00    -0.354 N 
ATOM      2  N   UNL     1      19.959  20.163  48.417  0.00  0.00    -0.372 N 
ATOM      3  N   UNL     1      18.901  22.035  47.619  0.00  0.00    -0.372 N 
ATOM      4  C   UNL     1      19.096  20.714  47.555  0.00  0.00    +0.166 C 
ATOM      5  H   UNL     1      18.676  18.950  46.648  0.00  0.00    +0.163 HD
ATOM      6  H   UNL     1      20.451  20.720  49.102  0.00  0.00    +0.159 HD
ATOM      7  H   UNL     1      20.138  19.166  48.428  0.00  0.00    +0.159 HD
ATOM      8  H   UNL     1      18.267  22.514  46.992  0.00  0.00    +0.159 HD
ATOM      9  H   UNL     1      19.392  22.612  48.290  0.00  0.00    +0.159 HD
ENDROOT
BRANCH   1  10
ATOM     10  C   UNL     1      17.462  20.434  45.719  0.00  0.00    +0.151 C 
BRANCH  10  11
ATOM     11  C   UNL     1      17.411  19.511  44.532  0.00  0.00    -0.028 A 
ATOM     12  C   UNL     1      18.533  18.750  44.174  0.00  0.00    +0.005 A 
ATOM     13  C   UNL     1      16.242  19.390  43.765  0.00  0.00    +0.005 A 
ATOM     14  C   UNL     1      18.477  17.870  43.090  0.00  0.00    +0.000 A 
ATOM     15  C   UNL     1      16.190  18.511  42.683  0.00  0.00    +0.000 A 
ATOM     16  C   UNL     1      17.307  17.750  42.348  0.00  0.00    +0.000 A 
ENDBRANCH  10  11
ENDBRANCH   1  10
TORSDOF 2
ENDMDL
MODEL 8
REMARK VINA RESULT:    -3.419     42.302     43.511
REMARK INTER + INTRA:          -3.995
REMARK INTER:                  -3.887
REMARK INTRA:                  -0.107
REMARK UNBOUND:                -0.176
REMARK  Name = 1550473
REMARK  2 active torsions:
REMARK  status: ('A' for Active; 'I' for Inactive)
REMARK    1  A    between atoms: N_1  and  C_4
REMARK    2  A    between atoms: C_4  and  C_5
REMARK                            x       y       z     vdW  Elec       q    Type
REMARK                         _______ _______ _______ _____ _____    ______ ____
ROOT
ATOM      1  N   UNL     1      17.429 -16.324  15.252  0.00  0.00    -0.354 N 
ATOM      2  N   UNL     1      17.699 -17.877  13.555  0.00  0.00    -0.372 N 
ATOM      3  N   UNL     1      18.407 -15.722  13.209  0.00  0.00    -0.372 N 
ATOM      4  C   UNL     1      17.844 -16.628  14.015  0.00  0.00    +0.166 C 
ATOM      5  H   UNL     1      16.983 -17.049  15.802  0.00  0.00    +0.163 HD
ATOM      6  H   UNL     1      18.006 -18.137  12.627  0.00  0.00    +0.159 HD
ATOM      7  H   UNL     1      17.295 -18.611  14.124  0.00  0.00    +0.159 HD
ATOM      8  H   UNL     1      18.539 -14.760  13.494  0.00  0.00    +0.159 HD
ATOM      9  H   UNL     1      18.709 -15.960  12.273  0.00  0.00    +0.159 HD
ENDROOT
BRANCH   1  10
ATOM     10  C   UNL     1      17.590 -15.008  15.867  0.00  0.00    +0.151 C 
BRANCH  10  11
ATOM     11  C   UNL     1      17.942 -15.184  17.319  0.00  0.00    -0.028 A 
ATOM     12  C   UNL     1      19.150 -14.682  17.824  0.00  0.00    +0.005 A 
ATOM     13  C   UNL     1      17.069 -15.847  18.195  0.00  0.00    +0.005 A 
ATOM     14  C   UNL     1      19.464 -14.819  19.179  0.00  0.00    +0.000 A 
ATOM     15  C   UNL     1      17.386 -15.982  19.546  0.00  0.00    +0.000 A 
ATOM     16  C   UNL     1      18.582 -15.466  20.038  0.00  0.00    +0.000 A 
ENDBRANCH  10  11
ENDBRANCH   1  10
TORSDOF 2
ENDMDL
MODEL 9
REMARK VINA RESULT:    -3.381     94.143     95.089
REMARK INTER + INTRA:          -3.953
REMARK INTER:                  -3.848
REMARK INTRA:                  -0.105
REMARK UNBOUND:                -0.176
REMARK  Name = 1550473
REMARK  2 active torsions:
REMARK  status: ('A' for Active; 'I' for Inactive)
REMARK    1  A    between atoms: N_1  and  C_4
REMARK    2  A    between atoms: C_4  and  C_5
REMARK                            x       y       z     vdW  Elec       q    Type
REMARK                         _______ _______ _______ _____ _____    ______ ____
ROOT
ATOM      1  N   UNL     1     -10.168 -11.244 -43.370  0.00  0.00    -0.354 N 
ATOM      2  N   UNL     1      -9.022 -10.075 -45.008  0.00  0.00    -0.372 N 
ATOM      3  N   UNL     1      -7.851 -11.485 -43.628  0.00  0.00    -0.372 N 
ATOM      4  C   UNL     1      -9.019 -10.944 -43.990  0.00  0.00    +0.166 C 
ATOM      5  H   UNL     1     -11.015 -10.776 -43.673  0.00  0.00    +0.163 HD
ATOM      6  H   UNL     1      -8.171  -9.831 -45.497  0.00  0.00    +0.159 HD
ATOM      7  H   UNL     1      -9.876  -9.643 -45.338  0.00  0.00    +0.159 HD
ATOM      8  H   UNL     1      -7.781 -12.144 -42.863  0.00  0.00    +0.159 HD
ATOM      9  H   UNL     1      -6.987 -11.245 -44.097  0.00  0.00    +0.159 HD
ENDROOT
BRANCH   1  10
ATOM     10  C   UNL     1     -10.282 -12.218 -42.286  0.00  0.00    +0.151 C 
BRANCH  10  11
ATOM     11  C   UNL     1     -11.675 -12.785 -42.280  0.00  0.00    -0.028 A 
ATOM     12  C   UNL     1     -12.603 -12.385 -41.308  0.00  0.00    +0.005 A 
ATOM     13  C   UNL     1     -12.074 -13.720 -43.248  0.00  0.00    +0.005 A 
ATOM     14  C   UNL     1     -13.906 -12.889 -41.320  0.00  0.00    +0.000 A 
ATOM     15  C   UNL     1     -13.376 -14.222 -43.256  0.00  0.00    +0.000 A 
ATOM     16  C   UNL     1     -14.292 -13.804 -42.293  0.00  0.00    +0.000 A 
ENDBRANCH  10  11
ENDBRANCH   1  10
TORSDOF 2
ENDMDL
