MODEL 1
REMARK VINA RESULT:    -5.660      0.000      0.000
REMARK INTER + INTRA:          -6.439
REMARK INTER:                  -6.322
REMARK INTRA:                  -0.117
REMARK UNBOUND:                -0.117
REMARK  Name = 1550473
REMARK  2 active torsions:
REMARK  status: ('A' for Active; 'I' for Inactive)
REMARK    1  A    between atoms: N_1  and  C_4
REMARK    2  A    between atoms: C_4  and  C_5
REMARK                            x       y       z     vdW  Elec       q    Type
REMARK                         _______ _______ _______ _____ _____    ______ ____
ROOT
ATOM      1  N   UNL     1     -13.908  -2.307 -28.199  0.00  0.00    -0.354 N 
ATOM      2  N   UNL     1     -15.337  -3.983 -27.483  0.00  0.00    -0.372 N 
ATOM      3  N   UNL     1     -15.628  -3.098 -29.580  0.00  0.00    -0.372 N 
ATOM      4  C   UNL     1     -14.949  -3.118 -28.428  0.00  0.00    +0.166 C 
ATOM      5  H   UNL     1     -13.454  -2.350 -27.294  0.00  0.00    +0.163 HD
ATOM      6  H   UNL     1     -16.117  -4.609 -27.628  0.00  0.00    +0.159 HD
ATOM      7  H   UNL     1     -14.853  -4.055 -26.596  0.00  0.00    +0.159 HD
ATOM      8  H   UNL     1     -15.389  -2.465 -30.331  0.00  0.00    +0.159 HD
ATOM      9  H   UNL     1     -16.419  -3.709 -29.740  0.00  0.00    +0.159 HD
ENDROOT
BRANCH   1  10
ATOM     10  C   UNL     1     -13.372  -1.367 -29.182  0.00  0.00    +0.151 C 
BRANCH  10  11
ATOM     11  C   UNL     1     -12.081  -0.796 -28.663  0.00  0.00    -0.028 A 
ATOM     12  C   UNL     1     -11.225  -1.576 -27.872  0.00  0.00    +0.005 A 
ATOM     13  C   UNL     1     -11.706   0.523 -28.964  0.00  0.00    +0.005 A 
ATOM     14  C   UNL     1     -10.012  -1.055 -27.414  0.00  0.00    +0.000 A 
ATOM     15  C   UNL     1     -10.494   1.039 -28.504  0.00  0.00    +0.000 A 
ATOM     16  C   UNL     1      -9.646   0.249 -27.732  0.00  0.00    +0.000 A 
ENDBRANCH  10  11
ENDBRANCH   1  10
TORSDOF 2
ENDMDL
MODEL 2
REMARK VINA RESULT:    -5.056      4.715      6.082
REMARK INTER + INTRA:          -5.764
REMARK INTER:                  -5.608
REMARK INTRA:                  -0.156
REMARK UNBOUND:                -0.117
REMARK  Name = 1550473
REMARK  2 active torsions:
REMARK  status: ('A' for Active; 'I' for Inactive)
REMARK    1  A    between atoms: N_1  and  C_4
REMARK    2  A    between atoms: C_4  and  C_5
REMARK                            x       y       z     vdW  Elec       q    Type
REMARK                         _______ _______ _______ _____ _____    ______ ____
ROOT
ATOM      1  N   UNL     1      -7.995   1.905 -27.819  0.00  0.00    -0.354 N 
ATOM      2  N   UNL     1      -7.921   3.802 -26.493  0.00  0.00    -0.372 N 
ATOM      3  N   UNL     1      -8.060   1.747 -25.482  0.00  0.00    -0.372 N 
ATOM      4  C   UNL     1      -7.993   2.470 -26.605  0.00  0.00    +0.166 C 
ATOM      5  H   UNL     1      -7.973   2.510 -28.632  0.00  0.00    +0.163 HD
ATOM      6  H   UNL     1      -7.914   4.257 -25.590  0.00  0.00    +0.159 HD
ATOM      7  H   UNL     1      -7.853   4.402 -27.306  0.00  0.00    +0.159 HD
ATOM      8  H   UNL     1      -8.122   0.738 -25.498  0.00  0.00    +0.159 HD
ATOM      9  H   UNL     1      -8.066   2.184 -24.569  0.00  0.00    +0.159 HD
ENDROOT
BRANCH   1  10
ATOM     10  C   UNL     1      -8.016   0.461 -28.049  0.00  0.00    +0.151 C 
BRANCH  10  11
ATOM     11  C   UNL     1      -9.439   0.016 -28.247  0.00  0.00    -0.028 A 
ATOM     12  C   UNL     1      -9.894  -1.185 -27.682  0.00  0.00    +0.005 A 
ATOM     13  C   UNL     1     -10.338   0.793 -28.993  0.00  0.00    +0.005 A 
ATOM     14  C   UNL     1     -11.223  -1.584 -27.840  0.00  0.00    +0.000 A 
ATOM     15  C   UNL     1     -11.664   0.390 -29.149  0.00  0.00    +0.000 A 
ATOM     16  C   UNL     1     -12.107  -0.797 -28.571  0.00  0.00    +0.000 A 
ENDBRANCH  10  11
ENDBRANCH   1  10
TORSDOF 2
ENDMDL
MODEL 3
REMARK VINA RESULT:    -4.931      4.808      6.533
REMARK INTER + INTRA:          -5.624
REMARK INTER:                  -5.480
REMARK INTRA:                  -0.144
REMARK UNBOUND:                -0.117
REMARK  Name = 1550473
REMARK  2 active torsions:
REMARK  status: ('A' for Active; 'I' for Inactive)
REMARK    1  A    between atoms: N_1  and  C_4
REMARK    2  A    between atoms: C_4  and  C_5
REMARK                            x       y       z     vdW  Elec       q    Type
REMARK                         _______ _______ _______ _____ _____    ______ ____
ROOT
ATOM      1  N   UNL     1      -7.198   0.783 -29.342  0.00  0.00    -0.354 N 
ATOM      2  N   UNL     1      -6.075   2.161 -30.827  0.00  0.00    -0.372 N 
ATOM      3  N   UNL     1      -6.427   2.895 -28.682  0.00  0.00    -0.372 N 
ATOM      4  C   UNL     1      -6.574   1.939 -29.605  0.00  0.00    +0.166 C 
ATOM      5  H   UNL     1      -7.303   0.111 -30.094  0.00  0.00    +0.163 HD
ATOM      6  H   UNL     1      -5.596   3.022 -31.054  0.00  0.00    +0.159 HD
ATOM      7  H   UNL     1      -6.141   1.469 -31.564  0.00  0.00    +0.159 HD
ATOM      8  H   UNL     1      -6.786   2.792 -27.742  0.00  0.00    +0.159 HD
ATOM      9  H   UNL     1      -5.961   3.768 -28.893  0.00  0.00    +0.159 HD
ENDROOT
BRANCH   1  10
ATOM     10  C   UNL     1      -7.729   0.420 -28.030  0.00  0.00    +0.151 C 
BRANCH  10  11
ATOM     11  C   UNL     1      -9.167   0.007 -28.179  0.00  0.00    -0.028 A 
ATOM     12  C   UNL     1      -9.634  -1.175 -27.585  0.00  0.00    +0.005 A 
ATOM     13  C   UNL     1     -10.070   0.795 -28.909  0.00  0.00    +0.005 A 
ATOM     14  C   UNL     1     -10.976  -1.545 -27.699  0.00  0.00    +0.000 A 
ATOM     15  C   UNL     1     -11.410   0.423 -29.020  0.00  0.00    +0.000 A 
ATOM     16  C   UNL     1     -11.863  -0.746 -28.413  0.00  0.00    +0.000 A 
ENDBRANCH  10  11
ENDBRANCH   1  10
TORSDOF 2
ENDMDL
MODEL 4
REMARK VINA RESULT:    -4.901      4.657      6.429
REMARK INTER + INTRA:          -5.591
REMARK INTER:                  -5.464
REMARK INTRA:                  -0.127
REMARK UNBOUND:                -0.117
REMARK  Name = 1550473
REMARK  2 active torsions:
REMARK  status: ('A' for Active; 'I' for Inactive)
REMARK    1  A    between atoms: N_1  and  C_4
REMARK    2  A    between atoms: C_4  and  C_5
REMARK                            x       y       z     vdW  Elec       q    Type
REMARK                         _______ _______ _______ _____ _____    ______ ____
ROOT
ATOM      1  N   UNL     1      -7.693   1.153 -27.439  0.00  0.00    -0.354 N 
ATOM      2  N   UNL     1      -6.072   1.442 -25.810  0.00  0.00    -0.372 N 
ATOM      3  N   UNL     1      -5.530   0.299 -27.725  0.00  0.00    -0.372 N 
ATOM      4  C   UNL     1      -6.441   0.961 -27.004  0.00  0.00    +0.166 C 
ATOM      5  H   UNL     1      -8.345   1.637 -26.832  0.00  0.00    +0.163 HD
ATOM      6  H   UNL     1      -5.133   1.316 -25.457  0.00  0.00    +0.159 HD
ATOM      7  H   UNL     1      -6.713   1.965 -25.225  0.00  0.00    +0.159 HD
ATOM      8  H   UNL     1      -5.746  -0.093 -28.631  0.00  0.00    +0.159 HD
ATOM      9  H   UNL     1      -4.588   0.152 -27.383  0.00  0.00    +0.159 HD
ENDROOT
BRANCH   1  10
ATOM     10  C   UNL     1      -8.180   0.717 -28.746  0.00  0.00    +0.151 C 
BRANCH  10  11
ATOM     11  C   UNL     1      -9.558   0.136 -28.588  0.00  0.00    -0.028 A 
ATOM     12  C   UNL     1     -10.664   0.748 -29.197  0.00  0.00    +0.005 A 
ATOM     13  C   UNL     1      -9.764  -1.031 -27.836  0.00  0.00    +0.005 A 
ATOM     14  C   UNL     1     -11.939   0.191 -29.075  0.00  0.00    +0.000 A 
ATOM     15  C   UNL     1     -11.039  -1.583 -27.716  0.00  0.00    +0.000 A 
ATOM     16  C   UNL     1     -12.126  -0.974 -28.338  0.00  0.00    +0.000 A 
ENDBRANCH  10  11
ENDBRANCH   1  10
TORSDOF 2
ENDMDL
MODEL 5
REMARK VINA RESULT:    -4.895      4.187      5.376
REMARK INTER + INTRA:          -5.585
REMARK INTER:                  -5.406
REMARK INTRA:                  -0.179
REMARK UNBOUND:                -0.117
REMARK  Name = 1550473
REMARK  2 active torsions:
REMARK  status: ('A' for Active; 'I' for Inactive)
REMARK    1  A    between atoms: N_1  and  C_4
REMARK    2  A    between atoms: C_4  and  C_5
REMARK                            x       y       z     vdW  Elec       q    Type
REMARK                         _______ _______ _______ _____ _____    ______ ____
ROOT
ATOM      1  N   UNL     1     -10.445   1.225 -24.375  0.00  0.00    -0.354 N 
ATOM      2  N   UNL     1     -11.503   0.939 -22.335  0.00  0.00    -0.372 N 
ATOM      3  N   UNL     1     -10.174  -0.749 -23.141  0.00  0.00    -0.372 N 
ATOM      4  C   UNL     1     -10.699   0.471 -23.297  0.00  0.00    +0.166 C 
ATOM      5  H   UNL     1     -10.898   2.128 -24.449  0.00  0.00    +0.163 HD
ATOM      6  H   UNL     1     -11.710   0.395 -21.509  0.00  0.00    +0.159 HD
ATOM      7  H   UNL     1     -11.918   1.861 -22.389  0.00  0.00    +0.159 HD
ATOM      8  H   UNL     1      -9.564  -1.162 -23.834  0.00  0.00    +0.159 HD
ATOM      9  H   UNL     1     -10.379  -1.314 -22.326  0.00  0.00    +0.159 HD
ENDROOT
BRANCH   1  10
ATOM     10  C   UNL     1      -9.541   0.830 -25.454  0.00  0.00    +0.151 C 
BRANCH  10  11
ATOM     11  C   UNL     1     -10.354   0.396 -26.643  0.00  0.00    -0.028 A 
ATOM     12  C   UNL     1     -11.068   1.338 -27.399  0.00  0.00    +0.005 A 
ATOM     13  C   UNL     1     -10.411  -0.954 -27.021  0.00  0.00    +0.005 A 
ATOM     14  C   UNL     1     -11.799   0.940 -28.521  0.00  0.00    +0.000 A 
ATOM     15  C   UNL     1     -11.143  -1.347 -28.141  0.00  0.00    +0.000 A 
ATOM     16  C   UNL     1     -11.835  -0.400 -28.892  0.00  0.00    +0.000 A 
ENDBRANCH  10  11
ENDBRANCH   1  10
TORSDOF 2
ENDMDL
MODEL 6
REMARK VINA RESULT:    -4.729     15.515     16.499
REMARK INTER + INTRA:          -5.399
REMARK INTER:                  -5.294
REMARK INTRA:                  -0.105
REMARK UNBOUND:                -0.117
REMARK  Name = 1550473
REMARK  2 active torsions:
REMARK  status: ('A' for Active; 'I' for Inactive)
REMARK    1  A    between atoms: N_1  and  C_4
REMARK    2  A    between atoms: C_4  and  C_5
REMARK                            x       y       z     vdW  Elec       q    Type
REMARK                         _______ _______ _______ _____ _____    ______ ____
ROOT
ATOM      1  N   UNL     1     -24.218   8.877 -35.447  0.00  0.00    -0.354 N 
ATOM      2  N   UNL     1     -24.721   9.515 -37.616  0.00  0.00    -0.372 N 
ATOM      3  N   UNL     1     -26.438   9.188 -36.129  0.00  0.00    -0.372 N 
ATOM      4  C   UNL     1     -25.125   9.189 -36.382  0.00  0.00    +0.166 C 
ATOM      5  H   UNL     1     -23.239   8.867 -35.711  0.00  0.00    +0.163 HD
ATOM      6  H   UNL     1     -25.383   9.758 -38.341  0.00  0.00    +0.159 HD
ATOM      7  H   UNL     1     -23.740   9.549 -37.864  0.00  0.00    +0.159 HD
ATOM      8  H   UNL     1     -26.808   8.945 -35.220  0.00  0.00    +0.159 HD
ATOM      9  H   UNL     1     -27.116   9.417 -36.845  0.00  0.00    +0.159 HD
ENDROOT
BRANCH   1  10
ATOM     10  C   UNL     1     -24.550   8.560 -34.059  0.00  0.00    +0.151 C 
BRANCH  10  11
ATOM     11  C   UNL     1     -23.421   9.004 -33.170  0.00  0.00    -0.028 A 
ATOM     12  C   UNL     1     -22.463   8.083 -32.721  0.00  0.00    +0.005 A 
ATOM     13  C   UNL     1     -23.300  10.346 -32.778  0.00  0.00    +0.005 A 
ATOM     14  C   UNL     1     -21.398   8.501 -31.920  0.00  0.00    +0.000 A 
ATOM     15  C   UNL     1     -22.235  10.759 -31.978  0.00  0.00    +0.000 A 
ATOM     16  C   UNL     1     -21.283   9.837 -31.551  0.00  0.00    +0.000 A 
ENDBRANCH  10  11
ENDBRANCH   1  10
TORSDOF 2
ENDMDL
MODEL 7
REMARK VINA RESULT:    -4.564     23.344     24.571
REMARK INTER + INTRA:          -5.215
REMARK INTER:                  -5.086
REMARK INTRA:                  -0.129
REMARK UNBOUND:                -0.117
REMARK  Name = 1550473
REMARK  2 active torsions:
REMARK  status: ('A' for Active; 'I' for Inactive)
REMARK    1  A    between atoms: N_1  and  C_4
REMARK    2  A    between atoms: C_4  and  C_5
REMARK                            x       y       z     vdW  Elec       q    Type
REMARK                         _______ _______ _______ _____ _____    ______ ____
ROOT
ATOM      1  N   UNL     1      -5.195   3.277  -5.595  0.00  0.00    -0.354 N 
ATOM      2  N   UNL     1      -7.278   2.277  -5.441  0.00  0.00    -0.372 N 
ATOM      3  N   UNL     1      -5.996   2.466  -3.548  0.00  0.00    -0.372 N 
ATOM      4  C   UNL     1      -6.142   2.680  -4.860  0.00  0.00    +0.166 C 
ATOM      5  H   UNL     1      -5.354   3.383  -6.590  0.00  0.00    +0.163 HD
ATOM      6  H   UNL     1      -8.012   1.827  -4.911  0.00  0.00    +0.159 HD
ATOM      7  H   UNL     1      -7.454   2.426  -6.427  0.00  0.00    +0.159 HD
ATOM      8  H   UNL     1      -5.159   2.740  -3.050  0.00  0.00    +0.159 HD
ATOM      9  H   UNL     1      -6.714   2.006  -3.002  0.00  0.00    +0.159 HD
ENDROOT
BRANCH   1  10
ATOM     10  C   UNL     1      -3.944   3.801  -5.048  0.00  0.00    +0.151 C 
BRANCH  10  11
ATOM     11  C   UNL     1      -2.870   3.700  -6.096  0.00  0.00    -0.028 A 
ATOM     12  C   UNL     1      -1.521   3.872  -5.752  0.00  0.00    +0.005 A 
ATOM     13  C   UNL     1      -3.194   3.426  -7.434  0.00  0.00    +0.005 A 
ATOM     14  C   UNL     1      -0.521   3.749  -6.719  0.00  0.00    +0.000 A 
ATOM     15  C   UNL     1      -2.192   3.304  -8.397  0.00  0.00    +0.000 A 
ATOM     16  C   UNL     1      -0.856   3.463  -8.039  0.00  0.00    +0.000 A 
ENDBRANCH  10  11
ENDBRANCH   1  10
TORSDOF 2
ENDMDL
MODEL 8
REMARK VINA RESULT:    -4.432     24.465     25.614
REMARK INTER + INTRA:          -5.067
REMARK INTER:                  -4.928
REMARK INTRA:                  -0.139
REMARK UNBOUND:                -0.117
REMARK  Name = 1550473
REMARK  2 active torsions:
REMARK  status: ('A' for Active; 'I' for Inactive)
REMARK    1  A    between atoms: N_1  and  C_4
REMARK    2  A    between atoms: C_4  and  C_5
REMARK                            x       y       z     vdW  Elec       q    Type
REMARK                         _______ _______ _______ _____ _____    ______ ____
ROOT
ATOM      1  N   UNL     1      -5.861   2.692  -4.336  0.00  0.00    -0.354 N 
ATOM      2  N   UNL     1      -3.814   3.668  -4.805  0.00  0.00    -0.372 N 
ATOM      3  N   UNL     1      -5.231   3.176  -6.541  0.00  0.00    -0.372 N 
ATOM      4  C   UNL     1      -4.983   3.172  -5.227  0.00  0.00    +0.166 C 
ATOM      5  H   UNL     1      -5.600   2.689  -3.357  0.00  0.00    +0.163 HD
ATOM      6  H   UNL     1      -3.133   4.040  -5.454  0.00  0.00    +0.159 HD
ATOM      7  H   UNL     1      -3.575   3.706  -3.822  0.00  0.00    +0.159 HD
ATOM      8  H   UNL     1      -6.093   2.811  -6.925  0.00  0.00    +0.159 HD
ATOM      9  H   UNL     1      -4.558   3.534  -7.207  0.00  0.00    +0.159 HD
ENDROOT
BRANCH   1  10
ATOM     10  C   UNL     1      -7.184   2.179  -4.687  0.00  0.00    +0.151 C 
BRANCH  10  11
ATOM     11  C   UNL     1      -7.449   0.925  -3.901  0.00  0.00    -0.028 A 
ATOM     12  C   UNL     1      -6.385   0.143  -3.428  0.00  0.00    +0.005 A 
ATOM     13  C   UNL     1      -8.762   0.516  -3.621  0.00  0.00    +0.005 A 
ATOM     14  C   UNL     1      -6.630  -1.006  -2.672  0.00  0.00    +0.000 A 
ATOM     15  C   UNL     1      -9.003  -0.633  -2.867  0.00  0.00    +0.000 A 
ATOM     16  C   UNL     1      -7.936  -1.392  -2.390  0.00  0.00    +0.000 A 
ENDBRANCH  10  11
ENDBRANCH   1  10
TORSDOF 2
ENDMDL
MODEL 9
REMARK VINA RESULT:    -4.296     25.200     26.512
REMARK INTER + INTRA:          -4.915
REMARK INTER:                  -4.819
REMARK INTRA:                  -0.096
REMARK UNBOUND:                -0.117
REMARK  Name = 1550473
REMARK  2 active torsions:
REMARK  status: ('A' for Active; 'I' for Inactive)
REMARK    1  A    between atoms: N_1  and  C_4
REMARK    2  A    between atoms: C_4  and  C_5
REMARK                            x       y       z     vdW  Elec       q    Type
REMARK                         _______ _______ _______ _____ _____    ______ ____
ROOT
ATOM      1  N   UNL     1      -2.705   4.814  -3.183  0.00  0.00    -0.354 N 
ATOM      2  N   UNL     1      -3.384   4.290  -1.031  0.00  0.00    -0.372 N 
ATOM      3  N   UNL     1      -4.010   6.305  -1.932  0.00  0.00    -0.372 N 
ATOM      4  C   UNL     1      -3.363   5.143  -2.063  0.00  0.00    +0.166 C 
ATOM      5  H   UNL     1      -2.210   3.930  -3.208  0.00  0.00    +0.163 HD
ATOM      6  H   UNL     1      -3.875   4.509  -0.175  0.00  0.00    +0.159 HD
ATOM      7  H   UNL     1      -2.926   3.388  -1.076  0.00  0.00    +0.159 HD
ATOM      8  H   UNL     1      -4.027   6.995  -2.671  0.00  0.00    +0.159 HD
ATOM      9  H   UNL     1      -4.497   6.548  -1.078  0.00  0.00    +0.159 HD
ENDROOT
BRANCH   1  10
ATOM     10  C   UNL     1      -2.666   5.648  -4.383  0.00  0.00    +0.151 C 
BRANCH  10  11
ATOM     11  C   UNL     1      -2.417   4.774  -5.581  0.00  0.00    -0.028 A 
ATOM     12  C   UNL     1      -1.135   4.267  -5.838  0.00  0.00    +0.005 A 
ATOM     13  C   UNL     1      -3.461   4.444  -6.459  0.00  0.00    +0.005 A 
ATOM     14  C   UNL     1      -0.909   3.431  -6.934  0.00  0.00    +0.000 A 
ATOM     15  C   UNL     1      -3.231   3.609  -7.553  0.00  0.00    +0.000 A 
ATOM     16  C   UNL     1      -1.956   3.101  -7.788  0.00  0.00    +0.000 A 
ENDBRANCH  10  11
ENDBRANCH   1  10
TORSDOF 2
ENDMDL
