MODEL 1
REMARK VINA RESULT:    -5.245      0.000      0.000
REMARK INTER + INTRA:          -5.976
REMARK INTER:                  -5.859
REMARK INTRA:                  -0.117
REMARK UNBOUND:                -0.117
REMARK  Name = 1550473
REMARK  2 active torsions:
REMARK  status: ('A' for Active; 'I' for Inactive)
REMARK    1  A    between atoms: N_1  and  C_4
REMARK    2  A    between atoms: C_4  and  C_5
REMARK                            x       y       z     vdW  Elec       q    Type
REMARK                         _______ _______ _______ _____ _____    ______ ____
ROOT
ATOM      1  N   UNL     1      11.296 -10.118   7.711  0.00  0.00    -0.354 N 
ATOM      2  N   UNL     1       9.260  -9.057   7.407  0.00  0.00    -0.372 N 
ATOM      3  N   UNL     1       9.523 -10.458   9.205  0.00  0.00    -0.372 N 
ATOM      4  C   UNL     1      10.039  -9.886   8.112  0.00  0.00    +0.166 C 
ATOM      5  H   UNL     1      11.618  -9.678   6.857  0.00  0.00    +0.163 HD
ATOM      6  H   UNL     1       8.309  -8.860   7.687  0.00  0.00    +0.159 HD
ATOM      7  H   UNL     1       9.599  -8.582   6.579  0.00  0.00    +0.159 HD
ATOM      8  H   UNL     1      10.057 -11.098   9.778  0.00  0.00    +0.159 HD
ATOM      9  H   UNL     1       8.569 -10.282   9.495  0.00  0.00    +0.159 HD
ENDROOT
BRANCH   1  10
ATOM     10  C   UNL     1      12.243 -10.962   8.437  0.00  0.00    +0.151 C 
BRANCH  10  11
ATOM     11  C   UNL     1      13.244 -11.525   7.466  0.00  0.00    -0.028 A 
ATOM     12  C   UNL     1      14.620 -11.382   7.698  0.00  0.00    +0.005 A 
ATOM     13  C   UNL     1      12.823 -12.209   6.315  0.00  0.00    +0.005 A 
ATOM     14  C   UNL     1      15.550 -11.931   6.812  0.00  0.00    +0.000 A 
ATOM     15  C   UNL     1      13.754 -12.755   5.432  0.00  0.00    +0.000 A 
ATOM     16  C   UNL     1      15.117 -12.618   5.682  0.00  0.00    +0.000 A 
ENDBRANCH  10  11
ENDBRANCH   1  10
TORSDOF 2
ENDMDL
MODEL 2
REMARK VINA RESULT:    -5.181      9.801     10.809
REMARK INTER + INTRA:          -5.903
REMARK INTER:                  -5.737
REMARK INTRA:                  -0.166
REMARK UNBOUND:                -0.117
REMARK  Name = 1550473
REMARK  2 active torsions:
REMARK  status: ('A' for Active; 'I' for Inactive)
REMARK    1  A    between atoms: N_1  and  C_4
REMARK    2  A    between atoms: C_4  and  C_5
REMARK                            x       y       z     vdW  Elec       q    Type
REMARK                         _______ _______ _______ _____ _____    ______ ____
ROOT
ATOM      1  N   UNL     1       6.974 -15.277   2.073  0.00  0.00    -0.354 N 
ATOM      2  N   UNL     1       8.998 -14.761   3.074  0.00  0.00    -0.372 N 
ATOM      3  N   UNL     1       8.040 -16.803   3.497  0.00  0.00    -0.372 N 
ATOM      4  C   UNL     1       7.990 -15.619   2.876  0.00  0.00    +0.166 C 
ATOM      5  H   UNL     1       6.981 -14.353   1.656  0.00  0.00    +0.163 HD
ATOM      6  H   UNL     1       9.780 -14.993   3.671  0.00  0.00    +0.159 HD
ATOM      7  H   UNL     1       9.025 -13.857   2.619  0.00  0.00    +0.159 HD
ATOM      8  H   UNL     1       7.308 -17.492   3.394  0.00  0.00    +0.159 HD
ATOM      9  H   UNL     1       8.808 -17.049   4.108  0.00  0.00    +0.159 HD
ENDROOT
BRANCH   1  10
ATOM     10  C   UNL     1       5.855 -16.159   1.748  0.00  0.00    +0.151 C 
BRANCH  10  11
ATOM     11  C   UNL     1       5.921 -16.520   0.290  0.00  0.00    -0.028 A 
ATOM     12  C   UNL     1       6.726 -17.584  -0.144  0.00  0.00    +0.005 A 
ATOM     13  C   UNL     1       5.176 -15.807  -0.662  0.00  0.00    +0.005 A 
ATOM     14  C   UNL     1       6.764 -17.939  -1.495  0.00  0.00    +0.000 A 
ATOM     15  C   UNL     1       5.218 -16.164  -2.009  0.00  0.00    +0.000 A 
ATOM     16  C   UNL     1       6.010 -17.232  -2.425  0.00  0.00    +0.000 A 
ENDBRANCH  10  11
ENDBRANCH   1  10
TORSDOF 2
ENDMDL
MODEL 3
REMARK VINA RESULT:    -4.976     20.618     21.422
REMARK INTER + INTRA:          -5.675
REMARK INTER:                  -5.522
REMARK INTRA:                  -0.153
REMARK UNBOUND:                -0.117
REMARK  Name = 1550473
REMARK  2 active torsions:
REMARK  status: ('A' for Active; 'I' for Inactive)
REMARK    1  A    between atoms: N_1  and  C_4
REMARK    2  A    between atoms: C_4  and  C_5
REMARK                            x       y       z     vdW  Elec       q    Type
REMARK                         _______ _______ _______ _____ _____    ______ ____
ROOT
ATOM      1  N   UNL     1      13.458   6.122  -2.351  0.00  0.00    -0.354 N 
ATOM      2  N   UNL     1      15.507   6.473  -1.330  0.00  0.00    -0.372 N 
ATOM      3  N   UNL     1      14.032   8.224  -1.487  0.00  0.00    -0.372 N 
ATOM      4  C   UNL     1      14.318   6.940  -1.729  0.00  0.00    +0.166 C 
ATOM      5  H   UNL     1      13.747   5.168  -2.532  0.00  0.00    +0.163 HD
ATOM      6  H   UNL     1      16.175   7.066  -0.855  0.00  0.00    +0.159 HD
ATOM      7  H   UNL     1      15.775   5.507  -1.470  0.00  0.00    +0.159 HD
ATOM      8  H   UNL     1      13.154   8.639  -1.769  0.00  0.00    +0.159 HD
ATOM      9  H   UNL     1      14.692   8.836  -1.024  0.00  0.00    +0.159 HD
ENDROOT
BRANCH   1  10
ATOM     10  C   UNL     1      12.117   6.517  -2.779  0.00  0.00    +0.151 C 
BRANCH  10  11
ATOM     11  C   UNL     1      12.054   6.495  -4.281  0.00  0.00    -0.028 A 
ATOM     12  C   UNL     1      11.809   7.674  -5.001  0.00  0.00    +0.005 A 
ATOM     13  C   UNL     1      12.245   5.300  -4.991  0.00  0.00    +0.005 A 
ATOM     14  C   UNL     1      11.780   7.659  -6.397  0.00  0.00    +0.000 A 
ATOM     15  C   UNL     1      12.214   5.289  -6.386  0.00  0.00    +0.000 A 
ATOM     16  C   UNL     1      11.984   6.470  -7.088  0.00  0.00    +0.000 A 
ENDBRANCH  10  11
ENDBRANCH   1  10
TORSDOF 2
ENDMDL
MODEL 4
REMARK VINA RESULT:    -4.958     20.266     21.117
REMARK INTER + INTRA:          -5.655
REMARK INTER:                  -5.479
REMARK INTRA:                  -0.176
REMARK UNBOUND:                -0.117
REMARK  Name = 1550473
REMARK  2 active torsions:
REMARK  status: ('A' for Active; 'I' for Inactive)
REMARK    1  A    between atoms: N_1  and  C_4
REMARK    2  A    between atoms: C_4  and  C_5
REMARK                            x       y       z     vdW  Elec       q    Type
REMARK                         _______ _______ _______ _____ _____    ______ ____
ROOT
ATOM      1  N   UNL     1      14.595   6.454  -1.560  0.00  0.00    -0.354 N 
ATOM      2  N   UNL     1      16.668   7.470  -1.374  0.00  0.00    -0.372 N 
ATOM      3  N   UNL     1      14.782   8.771  -1.261  0.00  0.00    -0.372 N 
ATOM      4  C   UNL     1      15.333   7.561  -1.400  0.00  0.00    +0.166 C 
ATOM      5  H   UNL     1      15.074   5.571  -1.690  0.00  0.00    +0.163 HD
ATOM      6  H   UNL     1      17.251   8.287  -1.251  0.00  0.00    +0.159 HD
ATOM      7  H   UNL     1      17.143   6.579  -1.458  0.00  0.00    +0.159 HD
ATOM      8  H   UNL     1      13.780   8.908  -1.278  0.00  0.00    +0.159 HD
ATOM      9  H   UNL     1      15.349   9.602  -1.149  0.00  0.00    +0.159 HD
ENDROOT
BRANCH   1  10
ATOM     10  C   UNL     1      13.133   6.438  -1.548  0.00  0.00    +0.151 C 
BRANCH  10  11
ATOM     11  C   UNL     1      12.631   6.409  -2.965  0.00  0.00    -0.028 A 
ATOM     12  C   UNL     1      12.573   5.201  -3.676  0.00  0.00    +0.005 A 
ATOM     13  C   UNL     1      12.205   7.585  -3.601  0.00  0.00    +0.005 A 
ATOM     14  C   UNL     1      12.078   5.169  -4.982  0.00  0.00    +0.000 A 
ATOM     15  C   UNL     1      11.713   7.549  -4.906  0.00  0.00    +0.000 A 
ATOM     16  C   UNL     1      11.647   6.341  -5.594  0.00  0.00    +0.000 A 
ENDBRANCH  10  11
ENDBRANCH   1  10
TORSDOF 2
ENDMDL
MODEL 5
REMARK VINA RESULT:    -4.845     19.777     20.783
REMARK INTER + INTRA:          -5.528
REMARK INTER:                  -5.402
REMARK INTRA:                  -0.126
REMARK UNBOUND:                -0.117
REMARK  Name = 1550473
REMARK  2 active torsions:
REMARK  status: ('A' for Active; 'I' for Inactive)
REMARK    1  A    between atoms: N_1  and  C_4
REMARK    2  A    between atoms: C_4  and  C_5
REMARK                            x       y       z     vdW  Elec       q    Type
REMARK                         _______ _______ _______ _____ _____    ______ ____
ROOT
ATOM      1  N   UNL     1       6.834  -5.950 -12.500  0.00  0.00    -0.354 N 
ATOM      2  N   UNL     1       5.948  -6.895 -14.420  0.00  0.00    -0.372 N 
ATOM      3  N   UNL     1       7.349  -5.088 -14.617  0.00  0.00    -0.372 N 
ATOM      4  C   UNL     1       6.717  -5.969 -13.835  0.00  0.00    +0.166 C 
ATOM      5  H   UNL     1       6.305  -6.627 -11.961  0.00  0.00    +0.163 HD
ATOM      6  H   UNL     1       5.844  -6.936 -15.425  0.00  0.00    +0.159 HD
ATOM      7  H   UNL     1       5.457  -7.598 -13.882  0.00  0.00    +0.159 HD
ATOM      8  H   UNL     1       7.940  -4.361 -14.237  0.00  0.00    +0.159 HD
ATOM      9  H   UNL     1       7.248  -5.106 -15.625  0.00  0.00    +0.159 HD
ENDROOT
BRANCH   1  10
ATOM     10  C   UNL     1       7.689  -5.018 -11.767  0.00  0.00    +0.151 C 
BRANCH  10  11
ATOM     11  C   UNL     1       7.041  -4.690 -10.450  0.00  0.00    -0.028 A 
ATOM     12  C   UNL     1       7.365  -3.504  -9.774  0.00  0.00    +0.005 A 
ATOM     13  C   UNL     1       6.098  -5.556  -9.876  0.00  0.00    +0.005 A 
ATOM     14  C   UNL     1       6.742  -3.184  -8.565  0.00  0.00    +0.000 A 
ATOM     15  C   UNL     1       5.479  -5.233  -8.669  0.00  0.00    +0.000 A 
ATOM     16  C   UNL     1       5.799  -4.046  -8.015  0.00  0.00    +0.000 A 
ENDBRANCH  10  11
ENDBRANCH   1  10
TORSDOF 2
ENDMDL
MODEL 6
REMARK VINA RESULT:    -4.595     30.960     32.158
REMARK INTER + INTRA:          -5.249
REMARK INTER:                  -5.119
REMARK INTRA:                  -0.130
REMARK UNBOUND:                -0.117
REMARK  Name = 1550473
REMARK  2 active torsions:
REMARK  status: ('A' for Active; 'I' for Inactive)
REMARK    1  A    between atoms: N_1  and  C_4
REMARK    2  A    between atoms: C_4  and  C_5
REMARK                            x       y       z     vdW  Elec       q    Type
REMARK                         _______ _______ _______ _____ _____    ______ ____
ROOT
ATOM      1  N   UNL     1     -18.082   1.641   3.662  0.00  0.00    -0.354 N 
ATOM      2  N   UNL     1     -18.270   0.597   5.721  0.00  0.00    -0.372 N 
ATOM      3  N   UNL     1     -17.209   2.628   5.600  0.00  0.00    -0.372 N 
ATOM      4  C   UNL     1     -17.851   1.631   4.982  0.00  0.00    +0.166 C 
ATOM      5  H   UNL     1     -18.547   0.841   3.249  0.00  0.00    +0.163 HD
ATOM      6  H   UNL     1     -18.113   0.563   6.719  0.00  0.00    +0.159 HD
ATOM      7  H   UNL     1     -18.775  -0.180   5.313  0.00  0.00    +0.159 HD
ATOM      8  H   UNL     1     -16.863   3.435   5.098  0.00  0.00    +0.159 HD
ATOM      9  H   UNL     1     -17.032   2.607   6.597  0.00  0.00    +0.159 HD
ENDROOT
BRANCH   1  10
ATOM     10  C   UNL     1     -17.715   2.745   2.776  0.00  0.00    +0.151 C 
BRANCH  10  11
ATOM     11  C   UNL     1     -16.423   2.409   2.084  0.00  0.00    -0.028 A 
ATOM     12  C   UNL     1     -16.028   1.073   1.921  0.00  0.00    +0.005 A 
ATOM     13  C   UNL     1     -15.592   3.423   1.583  0.00  0.00    +0.005 A 
ATOM     14  C   UNL     1     -14.843   0.761   1.251  0.00  0.00    +0.000 A 
ATOM     15  C   UNL     1     -14.409   3.107   0.916  0.00  0.00    +0.000 A 
ATOM     16  C   UNL     1     -14.036   1.775   0.748  0.00  0.00    +0.000 A 
ENDBRANCH  10  11
ENDBRANCH   1  10
TORSDOF 2
ENDMDL
MODEL 7
REMARK VINA RESULT:    -4.542     21.741     23.165
REMARK INTER + INTRA:          -5.189
REMARK INTER:                  -5.062
REMARK INTRA:                  -0.128
REMARK UNBOUND:                -0.117
REMARK  Name = 1550473
REMARK  2 active torsions:
REMARK  status: ('A' for Active; 'I' for Inactive)
REMARK    1  A    between atoms: N_1  and  C_4
REMARK    2  A    between atoms: C_4  and  C_5
REMARK                            x       y       z     vdW  Elec       q    Type
REMARK                         _______ _______ _______ _____ _____    ______ ____
ROOT
ATOM      1  N   UNL     1       0.476   0.036  -8.665  0.00  0.00    -0.354 N 
ATOM      2  N   UNL     1      -0.623  -0.998 -10.422  0.00  0.00    -0.372 N 
ATOM      3  N   UNL     1       0.905   0.650 -10.886  0.00  0.00    -0.372 N 
ATOM      4  C   UNL     1       0.261  -0.095  -9.981  0.00  0.00    +0.166 C 
ATOM      5  H   UNL     1      -0.066  -0.537  -8.029  0.00  0.00    +0.163 HD
ATOM      6  H   UNL     1      -0.803  -1.123 -11.409  0.00  0.00    +0.159 HD
ATOM      7  H   UNL     1      -1.130  -1.602  -9.786  0.00  0.00    +0.159 HD
ATOM      8  H   UNL     1       1.580   1.353 -10.618  0.00  0.00    +0.159 HD
ATOM      9  H   UNL     1       0.729   0.548 -11.878  0.00  0.00    +0.159 HD
ENDROOT
BRANCH   1  10
ATOM     10  C   UNL     1       1.456   0.952  -8.084  0.00  0.00    +0.151 C 
BRANCH  10  11
ATOM     11  C   UNL     1       0.893   1.535  -6.818  0.00  0.00    -0.028 A 
ATOM     12  C   UNL     1      -0.365   2.156  -6.817  0.00  0.00    +0.005 A 
ATOM     13  C   UNL     1       1.610   1.466  -5.613  0.00  0.00    +0.005 A 
ATOM     14  C   UNL     1      -0.901   2.671  -5.635  0.00  0.00    +0.000 A 
ATOM     15  C   UNL     1       1.072   1.983  -4.435  0.00  0.00    +0.000 A 
ATOM     16  C   UNL     1      -0.185   2.583  -4.446  0.00  0.00    +0.000 A 
ENDBRANCH  10  11
ENDBRANCH   1  10
TORSDOF 2
ENDMDL
MODEL 8
REMARK VINA RESULT:    -4.528     19.577     20.628
REMARK INTER + INTRA:          -5.174
REMARK INTER:                  -5.052
REMARK INTRA:                  -0.122
REMARK UNBOUND:                -0.117
REMARK  Name = 1550473
REMARK  2 active torsions:
REMARK  status: ('A' for Active; 'I' for Inactive)
REMARK    1  A    between atoms: N_1  and  C_4
REMARK    2  A    between atoms: C_4  and  C_5
REMARK                            x       y       z     vdW  Elec       q    Type
REMARK                         _______ _______ _______ _____ _____    ______ ____
ROOT
ATOM      1  N   UNL     1       8.866  -4.286 -12.181  0.00  0.00    -0.354 N 
ATOM      2  N   UNL     1      10.735  -3.625 -13.378  0.00  0.00    -0.372 N 
ATOM      3  N   UNL     1       9.713  -5.607 -13.921  0.00  0.00    -0.372 N 
ATOM      4  C   UNL     1       9.758  -4.513 -13.154  0.00  0.00    +0.166 C 
ATOM      5  H   UNL     1       8.973  -3.452 -11.614  0.00  0.00    +0.163 HD
ATOM      6  H   UNL     1      11.421  -3.768 -14.107  0.00  0.00    +0.159 HD
ATOM      7  H   UNL     1      10.813  -2.771 -12.840  0.00  0.00    +0.159 HD
ATOM      8  H   UNL     1       9.004  -6.318 -13.799  0.00  0.00    +0.159 HD
ATOM      9  H   UNL     1      10.397  -5.773 -14.648  0.00  0.00    +0.159 HD
ENDROOT
BRANCH   1  10
ATOM     10  C   UNL     1       7.732  -5.162 -11.890  0.00  0.00    +0.151 C 
BRANCH  10  11
ATOM     11  C   UNL     1       7.104  -4.738 -10.592  0.00  0.00    -0.028 A 
ATOM     12  C   UNL     1       6.156  -5.556  -9.959  0.00  0.00    +0.005 A 
ATOM     13  C   UNL     1       7.456  -3.522  -9.986  0.00  0.00    +0.005 A 
ATOM     14  C   UNL     1       5.594  -5.176  -8.738  0.00  0.00    +0.000 A 
ATOM     15  C   UNL     1       6.892  -3.146  -8.767  0.00  0.00    +0.000 A 
ATOM     16  C   UNL     1       5.963  -3.975  -8.142  0.00  0.00    +0.000 A 
ENDBRANCH  10  11
ENDBRANCH   1  10
TORSDOF 2
ENDMDL
MODEL 9
REMARK VINA RESULT:    -4.527     31.156     32.750
REMARK INTER + INTRA:          -5.174
REMARK INTER:                  -5.057
REMARK INTRA:                  -0.116
REMARK UNBOUND:                -0.117
REMARK  Name = 1550473
REMARK  2 active torsions:
REMARK  status: ('A' for Active; 'I' for Inactive)
REMARK    1  A    between atoms: N_1  and  C_4
REMARK    2  A    between atoms: C_4  and  C_5
REMARK                            x       y       z     vdW  Elec       q    Type
REMARK                         _______ _______ _______ _____ _____    ______ ____
ROOT
ATOM      1  N   UNL     1     -16.277   2.590  -3.230  0.00  0.00    -0.354 N 
ATOM      2  N   UNL     1     -16.625   4.570  -4.381  0.00  0.00    -0.372 N 
ATOM      3  N   UNL     1     -18.324   3.723  -3.091  0.00  0.00    -0.372 N 
ATOM      4  C   UNL     1     -17.076   3.614  -3.559  0.00  0.00    +0.166 C 
ATOM      5  H   UNL     1     -15.352   2.550  -3.642  0.00  0.00    +0.163 HD
ATOM      6  H   UNL     1     -17.204   5.356  -4.644  0.00  0.00    +0.159 HD
ATOM      7  H   UNL     1     -15.684   4.551  -4.754  0.00  0.00    +0.159 HD
ATOM      8  H   UNL     1     -18.726   3.032  -2.472  0.00  0.00    +0.159 HD
ATOM      9  H   UNL     1     -18.922   4.496  -3.353  0.00  0.00    +0.159 HD
ENDROOT
BRANCH   1  10
ATOM     10  C   UNL     1     -16.652   1.526  -2.300  0.00  0.00    +0.151 C 
BRANCH  10  11
ATOM     11  C   UNL     1     -15.739   1.573  -1.106  0.00  0.00    -0.028 A 
ATOM     12  C   UNL     1     -15.729   0.523  -0.176  0.00  0.00    +0.005 A 
ATOM     13  C   UNL     1     -14.876   2.661  -0.903  0.00  0.00    +0.005 A 
ATOM     14  C   UNL     1     -14.860   0.552   0.917  0.00  0.00    +0.000 A 
ATOM     15  C   UNL     1     -14.010   2.686   0.190  0.00  0.00    +0.000 A 
ATOM     16  C   UNL     1     -14.001   1.630   1.098  0.00  0.00    +0.000 A 
ENDBRANCH  10  11
ENDBRANCH   1  10
TORSDOF 2
ENDMDL
