MODEL 1
REMARK VINA RESULT:    -7.212      0.000      0.000
REMARK INTER + INTRA:          -8.216
REMARK INTER:                  -8.055
REMARK INTRA:                  -0.161
REMARK UNBOUND:                -0.161
REMARK  Name = 1550473
REMARK  2 active torsions:
REMARK  status: ('A' for Active; 'I' for Inactive)
REMARK    1  A    between atoms: N_1  and  C_4
REMARK    2  A    between atoms: C_4  and  C_5
REMARK                            x       y       z     vdW  Elec       q    Type
REMARK                         _______ _______ _______ _____ _____    ______ ____
ROOT
ATOM      1  N   UNL     1      -1.207   2.797   0.536  0.00  0.00    -0.354 N 
ATOM      2  N   UNL     1      -1.365   1.310  -1.232  0.00  0.00    -0.372 N 
ATOM      3  N   UNL     1      -1.701   0.536   0.901  0.00  0.00    -0.372 N 
ATOM      4  C   UNL     1      -1.424   1.555   0.082  0.00  0.00    +0.166 C 
ATOM      5  H   UNL     1      -0.971   3.520  -0.134  0.00  0.00    +0.163 HD
ATOM      6  H   UNL     1      -1.528   0.384  -1.605  0.00  0.00    +0.159 HD
ATOM      7  H   UNL     1      -1.175   2.044  -1.904  0.00  0.00    +0.159 HD
ATOM      8  H   UNL     1      -1.754   0.654   1.904  0.00  0.00    +0.159 HD
ATOM      9  H   UNL     1      -1.856  -0.401   0.549  0.00  0.00    +0.159 HD
ENDROOT
BRANCH   1  10
ATOM     10  C   UNL     1      -1.300   3.181   1.943  0.00  0.00    +0.151 C 
BRANCH  10  11
ATOM     11  C   UNL     1      -2.469   4.110   2.122  0.00  0.00    -0.028 A 
ATOM     12  C   UNL     1      -3.782   3.620   2.072  0.00  0.00    +0.005 A 
ATOM     13  C   UNL     1      -2.270   5.481   2.349  0.00  0.00    +0.005 A 
ATOM     14  C   UNL     1      -4.867   4.478   2.268  0.00  0.00    +0.000 A 
ATOM     15  C   UNL     1      -3.356   6.334   2.543  0.00  0.00    +0.000 A 
ATOM     16  C   UNL     1      -4.654   5.832   2.505  0.00  0.00    +0.000 A 
ENDBRANCH  10  11
ENDBRANCH   1  10
TORSDOF 2
ENDMDL
MODEL 2
REMARK VINA RESULT:    -5.960      1.784      2.511
REMARK INTER + INTRA:          -6.817
REMARK INTER:                  -6.704
REMARK INTRA:                  -0.113
REMARK UNBOUND:                -0.161
REMARK  Name = 1550473
REMARK  2 active torsions:
REMARK  status: ('A' for Active; 'I' for Inactive)
REMARK    1  A    between atoms: N_1  and  C_4
REMARK    2  A    between atoms: C_4  and  C_5
REMARK                            x       y       z     vdW  Elec       q    Type
REMARK                         _______ _______ _______ _____ _____    ______ ____
ROOT
ATOM      1  N   UNL     1      -2.747   2.765   1.259  0.00  0.00    -0.354 N 
ATOM      2  N   UNL     1      -1.676   0.746   0.884  0.00  0.00    -0.372 N 
ATOM      3  N   UNL     1      -0.500   2.695   0.597  0.00  0.00    -0.372 N 
ATOM      4  C   UNL     1      -1.646   2.083   0.915  0.00  0.00    +0.166 C 
ATOM      5  H   UNL     1      -3.593   2.243   1.459  0.00  0.00    +0.163 HD
ATOM      6  H   UNL     1      -0.860   0.204   0.631  0.00  0.00    +0.159 HD
ATOM      7  H   UNL     1      -2.510   0.226   1.129  0.00  0.00    +0.159 HD
ATOM      8  H   UNL     1      -0.413   3.702   0.595  0.00  0.00    +0.159 HD
ATOM      9  H   UNL     1       0.324   2.171   0.330  0.00  0.00    +0.159 HD
ENDROOT
BRANCH   1  10
ATOM     10  C   UNL     1      -2.805   4.221   1.375  0.00  0.00    +0.151 C 
BRANCH  10  11
ATOM     11  C   UNL     1      -2.755   4.599   2.830  0.00  0.00    -0.028 A 
ATOM     12  C   UNL     1      -1.566   4.460   3.561  0.00  0.00    +0.005 A 
ATOM     13  C   UNL     1      -3.891   5.103   3.481  0.00  0.00    +0.005 A 
ATOM     14  C   UNL     1      -1.511   4.839   4.905  0.00  0.00    +0.000 A 
ATOM     15  C   UNL     1      -3.832   5.480   4.822  0.00  0.00    +0.000 A 
ATOM     16  C   UNL     1      -2.641   5.351   5.533  0.00  0.00    +0.000 A 
ENDBRANCH  10  11
ENDBRANCH   1  10
TORSDOF 2
ENDMDL
MODEL 3
REMARK VINA RESULT:    -5.514     19.236     21.962
REMARK INTER + INTRA:          -6.319
REMARK INTER:                  -6.223
REMARK INTRA:                  -0.096
REMARK UNBOUND:                -0.161
REMARK  Name = 1550473
REMARK  2 active torsions:
REMARK  status: ('A' for Active; 'I' for Inactive)
REMARK    1  A    between atoms: N_1  and  C_4
REMARK    2  A    between atoms: C_4  and  C_5
REMARK                            x       y       z     vdW  Elec       q    Type
REMARK                         _______ _______ _______ _____ _____    ______ ____
ROOT
ATOM      1  N   UNL     1      -1.695  -7.107 -15.611  0.00  0.00    -0.354 N 
ATOM      2  N   UNL     1      -2.339  -6.068 -13.644  0.00  0.00    -0.372 N 
ATOM      3  N   UNL     1      -0.552  -7.506 -13.605  0.00  0.00    -0.372 N 
ATOM      4  C   UNL     1      -1.522  -6.902 -14.298  0.00  0.00    +0.166 C 
ATOM      5  H   UNL     1      -2.469  -6.642 -16.073  0.00  0.00    +0.163 HD
ATOM      6  H   UNL     1      -2.231  -5.891 -12.654  0.00  0.00    +0.159 HD
ATOM      7  H   UNL     1      -3.082  -5.569 -14.117  0.00  0.00    +0.159 HD
ATOM      8  H   UNL     1       0.094  -8.152 -14.039  0.00  0.00    +0.159 HD
ATOM      9  H   UNL     1      -0.435  -7.351 -12.611  0.00  0.00    +0.159 HD
ENDROOT
BRANCH   1  10
ATOM     10  C   UNL     1      -0.828  -7.954 -16.428  0.00  0.00    +0.151 C 
BRANCH  10  11
ATOM     11  C   UNL     1      -0.998  -7.581 -17.874  0.00  0.00    -0.028 A 
ATOM     12  C   UNL     1      -2.206  -7.839 -18.539  0.00  0.00    +0.005 A 
ATOM     13  C   UNL     1       0.043  -6.964 -18.585  0.00  0.00    +0.005 A 
ATOM     14  C   UNL     1      -2.375  -7.465 -19.874  0.00  0.00    +0.000 A 
ATOM     15  C   UNL     1      -0.129  -6.593 -19.918  0.00  0.00    +0.000 A 
ATOM     16  C   UNL     1      -1.339  -6.842 -20.562  0.00  0.00    +0.000 A 
ENDBRANCH  10  11
ENDBRANCH   1  10
TORSDOF 2
ENDMDL
MODEL 4
REMARK VINA RESULT:    -5.443      4.252      5.555
REMARK INTER + INTRA:          -6.240
REMARK INTER:                  -6.099
REMARK INTRA:                  -0.141
REMARK UNBOUND:                -0.161
REMARK  Name = 1550473
REMARK  2 active torsions:
REMARK  status: ('A' for Active; 'I' for Inactive)
REMARK    1  A    between atoms: N_1  and  C_4
REMARK    2  A    between atoms: C_4  and  C_5
REMARK                            x       y       z     vdW  Elec       q    Type
REMARK                         _______ _______ _______ _____ _____    ______ ____
ROOT
ATOM      1  N   UNL     1      -2.320   7.052   5.261  0.00  0.00    -0.354 N 
ATOM      2  N   UNL     1      -3.024   6.402   7.369  0.00  0.00    -0.372 N 
ATOM      3  N   UNL     1      -4.575   6.575   5.687  0.00  0.00    -0.372 N 
ATOM      4  C   UNL     1      -3.304   6.681   6.090  0.00  0.00    +0.166 C 
ATOM      5  H   UNL     1      -1.383   7.143   5.636  0.00  0.00    +0.163 HD
ATOM      6  H   UNL     1      -3.745   6.116   8.018  0.00  0.00    +0.159 HD
ATOM      7  H   UNL     1      -2.079   6.449   7.730  0.00  0.00    +0.159 HD
ATOM      8  H   UNL     1      -4.853   6.777   4.736  0.00  0.00    +0.159 HD
ATOM      9  H   UNL     1      -5.312   6.301   6.324  0.00  0.00    +0.159 HD
ENDROOT
BRANCH   1  10
ATOM     10  C   UNL     1      -2.510   7.326   3.837  0.00  0.00    +0.151 C 
BRANCH  10  11
ATOM     11  C   UNL     1      -2.331   6.049   3.063  0.00  0.00    -0.028 A 
ATOM     12  C   UNL     1      -3.184   5.739   1.994  0.00  0.00    +0.005 A 
ATOM     13  C   UNL     1      -1.306   5.148   3.391  0.00  0.00    +0.005 A 
ATOM     14  C   UNL     1      -2.999   4.567   1.256  0.00  0.00    +0.000 A 
ATOM     15  C   UNL     1      -1.126   3.979   2.652  0.00  0.00    +0.000 A 
ATOM     16  C   UNL     1      -1.971   3.690   1.583  0.00  0.00    +0.000 A 
ENDBRANCH  10  11
ENDBRANCH   1  10
TORSDOF 2
ENDMDL
MODEL 5
REMARK VINA RESULT:    -5.319      4.192      5.642
REMARK INTER + INTRA:          -6.102
REMARK INTER:                  -5.932
REMARK INTRA:                  -0.170
REMARK UNBOUND:                -0.161
REMARK  Name = 1550473
REMARK  2 active torsions:
REMARK  status: ('A' for Active; 'I' for Inactive)
REMARK    1  A    between atoms: N_1  and  C_4
REMARK    2  A    between atoms: C_4  and  C_5
REMARK                            x       y       z     vdW  Elec       q    Type
REMARK                         _______ _______ _______ _____ _____    ______ ____
ROOT
ATOM      1  N   UNL     1      -2.250   6.991   5.135  0.00  0.00    -0.354 N 
ATOM      2  N   UNL     1      -2.058   9.254   4.679  0.00  0.00    -0.372 N 
ATOM      3  N   UNL     1      -4.066   8.211   4.296  0.00  0.00    -0.372 N 
ATOM      4  C   UNL     1      -2.795   8.137   4.705  0.00  0.00    +0.166 C 
ATOM      5  H   UNL     1      -1.273   6.994   5.404  0.00  0.00    +0.163 HD
ATOM      6  H   UNL     1      -2.443  10.134   4.363  0.00  0.00    +0.159 HD
ATOM      7  H   UNL     1      -1.095   9.264   4.992  0.00  0.00    +0.159 HD
ATOM      8  H   UNL     1      -4.674   7.403   4.285  0.00  0.00    +0.159 HD
ATOM      9  H   UNL     1      -4.466   9.080   3.964  0.00  0.00    +0.159 HD
ENDROOT
BRANCH   1  10
ATOM     10  C   UNL     1      -2.982   5.731   5.254  0.00  0.00    +0.151 C 
BRANCH  10  11
ATOM     11  C   UNL     1      -2.780   4.926   4.000  0.00  0.00    -0.028 A 
ATOM     12  C   UNL     1      -1.490   4.557   3.591  0.00  0.00    +0.005 A 
ATOM     13  C   UNL     1      -3.875   4.525   3.219  0.00  0.00    +0.005 A 
ATOM     14  C   UNL     1      -1.305   3.783   2.442  0.00  0.00    +0.000 A 
ATOM     15  C   UNL     1      -3.685   3.753   2.073  0.00  0.00    +0.000 A 
ATOM     16  C   UNL     1      -2.400   3.381   1.686  0.00  0.00    +0.000 A 
ENDBRANCH  10  11
ENDBRANCH   1  10
TORSDOF 2
ENDMDL
MODEL 6
REMARK VINA RESULT:    -5.044      2.778      3.847
REMARK INTER + INTRA:          -5.794
REMARK INTER:                  -5.694
REMARK INTRA:                  -0.101
REMARK UNBOUND:                -0.161
REMARK  Name = 1550473
REMARK  2 active torsions:
REMARK  status: ('A' for Active; 'I' for Inactive)
REMARK    1  A    between atoms: N_1  and  C_4
REMARK    2  A    between atoms: C_4  and  C_5
REMARK                            x       y       z     vdW  Elec       q    Type
REMARK                         _______ _______ _______ _____ _____    ______ ____
ROOT
ATOM      1  N   UNL     1      -2.275   4.588   2.912  0.00  0.00    -0.354 N 
ATOM      2  N   UNL     1      -1.201   3.468   1.192  0.00  0.00    -0.372 N 
ATOM      3  N   UNL     1      -3.436   3.082   1.543  0.00  0.00    -0.372 N 
ATOM      4  C   UNL     1      -2.314   3.719   1.894  0.00  0.00    +0.166 C 
ATOM      5  H   UNL     1      -1.386   5.015   3.147  0.00  0.00    +0.163 HD
ATOM      6  H   UNL     1      -1.201   2.820   0.416  0.00  0.00    +0.159 HD
ATOM      7  H   UNL     1      -0.325   3.932   1.400  0.00  0.00    +0.159 HD
ATOM      8  H   UNL     1      -4.308   3.222   2.035  0.00  0.00    +0.159 HD
ATOM      9  H   UNL     1      -3.452   2.420   0.776  0.00  0.00    +0.159 HD
ENDROOT
BRANCH   1  10
ATOM     10  C   UNL     1      -3.442   4.971   3.705  0.00  0.00    +0.151 C 
BRANCH  10  11
ATOM     11  C   UNL     1      -3.105   6.190   4.518  0.00  0.00    -0.028 A 
ATOM     12  C   UNL     1      -2.847   7.417   3.889  0.00  0.00    +0.005 A 
ATOM     13  C   UNL     1      -3.046   6.126   5.919  0.00  0.00    +0.005 A 
ATOM     14  C   UNL     1      -2.563   8.557   4.646  0.00  0.00    +0.000 A 
ATOM     15  C   UNL     1      -2.761   7.266   6.671  0.00  0.00    +0.000 A 
ATOM     16  C   UNL     1      -2.522   8.481   6.034  0.00  0.00    +0.000 A 
ENDBRANCH  10  11
ENDBRANCH   1  10
TORSDOF 2
ENDMDL
MODEL 7
REMARK VINA RESULT:    -5.036      4.410      5.760
REMARK INTER + INTRA:          -5.786
REMARK INTER:                  -5.673
REMARK INTRA:                  -0.112
REMARK UNBOUND:                -0.161
REMARK  Name = 1550473
REMARK  2 active torsions:
REMARK  status: ('A' for Active; 'I' for Inactive)
REMARK    1  A    between atoms: N_1  and  C_4
REMARK    2  A    between atoms: C_4  and  C_5
REMARK                            x       y       z     vdW  Elec       q    Type
REMARK                         _______ _______ _______ _____ _____    ______ ____
ROOT
ATOM      1  N   UNL     1      -3.552   6.518   5.445  0.00  0.00    -0.354 N 
ATOM      2  N   UNL     1      -5.523   7.222   6.437  0.00  0.00    -0.372 N 
ATOM      3  N   UNL     1      -4.448   5.382   7.289  0.00  0.00    -0.372 N 
ATOM      4  C   UNL     1      -4.494   6.367   6.385  0.00  0.00    +0.166 C 
ATOM      5  H   UNL     1      -3.660   7.266   4.770  0.00  0.00    +0.163 HD
ATOM      6  H   UNL     1      -6.247   7.135   7.137  0.00  0.00    +0.159 HD
ATOM      7  H   UNL     1      -5.604   7.996   5.790  0.00  0.00    +0.159 HD
ATOM      8  H   UNL     1      -3.701   4.700   7.300  0.00  0.00    +0.159 HD
ATOM      9  H   UNL     1      -5.170   5.272   7.990  0.00  0.00    +0.159 HD
ENDROOT
BRANCH   1  10
ATOM     10  C   UNL     1      -2.363   5.674   5.336  0.00  0.00    +0.151 C 
BRANCH  10  11
ATOM     11  C   UNL     1      -2.401   4.939   4.024  0.00  0.00    -0.028 A 
ATOM     12  C   UNL     1      -1.212   4.526   3.405  0.00  0.00    +0.005 A 
ATOM     13  C   UNL     1      -3.622   4.649   3.398  0.00  0.00    +0.005 A 
ATOM     14  C   UNL     1      -1.248   3.818   2.202  0.00  0.00    +0.000 A 
ATOM     15  C   UNL     1      -3.654   3.942   2.196  0.00  0.00    +0.000 A 
ATOM     16  C   UNL     1      -2.467   3.525   1.599  0.00  0.00    +0.000 A 
ENDBRANCH  10  11
ENDBRANCH   1  10
TORSDOF 2
ENDMDL
MODEL 8
REMARK VINA RESULT:    -4.807      5.075      6.220
REMARK INTER + INTRA:          -5.529
REMARK INTER:                  -5.349
REMARK INTRA:                  -0.181
REMARK UNBOUND:                -0.161
REMARK  Name = 1550473
REMARK  2 active torsions:
REMARK  status: ('A' for Active; 'I' for Inactive)
REMARK    1  A    between atoms: N_1  and  C_4
REMARK    2  A    between atoms: C_4  and  C_5
REMARK                            x       y       z     vdW  Elec       q    Type
REMARK                         _______ _______ _______ _____ _____    ______ ____
ROOT
ATOM      1  N   UNL     1      -3.482   7.457   6.484  0.00  0.00    -0.354 N 
ATOM      2  N   UNL     1      -3.608   6.327   8.502  0.00  0.00    -0.372 N 
ATOM      3  N   UNL     1      -1.571   6.517   7.463  0.00  0.00    -0.372 N 
ATOM      4  C   UNL     1      -2.883   6.774   7.469  0.00  0.00    +0.166 C 
ATOM      5  H   UNL     1      -4.485   7.592   6.533  0.00  0.00    +0.163 HD
ATOM      6  H   UNL     1      -3.183   5.811   9.262  0.00  0.00    +0.159 HD
ATOM      7  H   UNL     1      -4.603   6.503   8.571  0.00  0.00    +0.159 HD
ATOM      8  H   UNL     1      -0.970   6.822   6.709  0.00  0.00    +0.159 HD
ATOM      9  H   UNL     1      -1.130   5.993   8.208  0.00  0.00    +0.159 HD
ENDROOT
BRANCH   1  10
ATOM     10  C   UNL     1      -2.775   8.033   5.342  0.00  0.00    +0.151 C 
BRANCH  10  11
ATOM     11  C   UNL     1      -2.989   7.157   4.139  0.00  0.00    -0.028 A 
ATOM     12  C   UNL     1      -4.240   7.110   3.506  0.00  0.00    +0.005 A 
ATOM     13  C   UNL     1      -1.944   6.376   3.623  0.00  0.00    +0.005 A 
ATOM     14  C   UNL     1      -4.431   6.319   2.370  0.00  0.00    +0.000 A 
ATOM     15  C   UNL     1      -2.139   5.587   2.490  0.00  0.00    +0.000 A 
ATOM     16  C   UNL     1      -3.382   5.561   1.862  0.00  0.00    +0.000 A 
ENDBRANCH  10  11
ENDBRANCH   1  10
TORSDOF 2
ENDMDL
MODEL 9
REMARK VINA RESULT:    -4.779     21.373     22.660
REMARK INTER + INTRA:          -5.499
REMARK INTER:                  -5.396
REMARK INTRA:                  -0.103
REMARK UNBOUND:                -0.161
REMARK  Name = 1550473
REMARK  2 active torsions:
REMARK  status: ('A' for Active; 'I' for Inactive)
REMARK    1  A    between atoms: N_1  and  C_4
REMARK    2  A    between atoms: C_4  and  C_5
REMARK                            x       y       z     vdW  Elec       q    Type
REMARK                         _______ _______ _______ _____ _____    ______ ____
ROOT
ATOM      1  N   UNL     1      -4.124  -9.004 -18.476  0.00  0.00    -0.354 N 
ATOM      2  N   UNL     1      -6.406  -8.983 -18.082  0.00  0.00    -0.372 N 
ATOM      3  N   UNL     1      -5.483  -7.303 -19.342  0.00  0.00    -0.372 N 
ATOM      4  C   UNL     1      -5.322  -8.427 -18.637  0.00  0.00    +0.166 C 
ATOM      5  H   UNL     1      -4.065  -9.839 -17.905  0.00  0.00    +0.163 HD
ATOM      6  H   UNL     1      -7.324  -8.573 -18.189  0.00  0.00    +0.159 HD
ATOM      7  H   UNL     1      -6.351  -9.843 -17.550  0.00  0.00    +0.159 HD
ATOM      8  H   UNL     1      -4.704  -6.830 -19.782  0.00  0.00    +0.159 HD
ATOM      9  H   UNL     1      -6.392  -6.870 -19.451  0.00  0.00    +0.159 HD
ENDROOT
BRANCH   1  10
ATOM     10  C   UNL     1      -2.890  -8.509 -19.084  0.00  0.00    +0.151 C 
BRANCH  10  11
ATOM     11  C   UNL     1      -2.048  -7.856 -18.024  0.00  0.00    -0.028 A 
ATOM     12  C   UNL     1      -2.441  -7.894 -16.678  0.00  0.00    +0.005 A 
ATOM     13  C   UNL     1      -0.852  -7.202 -18.357  0.00  0.00    +0.005 A 
ATOM     14  C   UNL     1      -1.644  -7.313 -15.689  0.00  0.00    +0.000 A 
ATOM     15  C   UNL     1      -0.059  -6.622 -17.367  0.00  0.00    +0.000 A 
ATOM     16  C   UNL     1      -0.454  -6.680 -16.033  0.00  0.00    +0.000 A 
ENDBRANCH  10  11
ENDBRANCH   1  10
TORSDOF 2
ENDMDL
