MODEL 1
REMARK VINA RESULT:    -4.586      0.000      0.000
REMARK INTER + INTRA:          -5.238
REMARK INTER:                  -5.122
REMARK INTRA:                  -0.116
REMARK UNBOUND:                -0.116
REMARK  Name = 1550473
REMARK  2 active torsions:
REMARK  status: ('A' for Active; 'I' for Inactive)
REMARK    1  A    between atoms: N_1  and  C_4
REMARK    2  A    between atoms: C_4  and  C_5
REMARK                            x       y       z     vdW  Elec       q    Type
REMARK                         _______ _______ _______ _____ _____    ______ ____
ROOT
ATOM      1  N   UNL     1      -8.896  13.133   9.669  0.00  0.00    -0.354 N 
ATOM      2  N   UNL     1      -9.134  11.404   8.146  0.00  0.00    -0.372 N 
ATOM      3  N   UNL     1      -9.710  11.039  10.336  0.00  0.00    -0.372 N 
ATOM      4  C   UNL     1      -9.246  11.869   9.396  0.00  0.00    +0.166 C 
ATOM      5  H   UNL     1      -8.523  13.702   8.917  0.00  0.00    +0.163 HD
ATOM      6  H   UNL     1      -9.393  10.456   7.909  0.00  0.00    +0.159 HD
ATOM      7  H   UNL     1      -8.804  11.989   7.387  0.00  0.00    +0.159 HD
ATOM      8  H   UNL     1      -9.812  11.326  11.300  0.00  0.00    +0.159 HD
ATOM      9  H   UNL     1      -9.963  10.083  10.122  0.00  0.00    +0.159 HD
ENDROOT
BRANCH   1  10
ATOM     10  C   UNL     1      -9.030  13.752  10.986  0.00  0.00    +0.151 C 
BRANCH  10  11
ATOM     11  C   UNL     1      -7.811  14.588  11.262  0.00  0.00    -0.028 A 
ATOM     12  C   UNL     1      -7.117  14.456  12.474  0.00  0.00    +0.005 A 
ATOM     13  C   UNL     1      -7.341  15.509  10.314  0.00  0.00    +0.005 A 
ATOM     14  C   UNL     1      -5.967  15.211  12.719  0.00  0.00    +0.000 A 
ATOM     15  C   UNL     1      -6.193  16.261  10.562  0.00  0.00    +0.000 A 
ATOM     16  C   UNL     1      -5.505  16.110  11.764  0.00  0.00    +0.000 A 
ENDBRANCH  10  11
ENDBRANCH   1  10
TORSDOF 2
ENDMDL
MODEL 2
REMARK VINA RESULT:    -4.580     17.578     19.560
REMARK INTER + INTRA:          -5.231
REMARK INTER:                  -5.128
REMARK INTRA:                  -0.102
REMARK UNBOUND:                -0.116
REMARK  Name = 1550473
REMARK  2 active torsions:
REMARK  status: ('A' for Active; 'I' for Inactive)
REMARK    1  A    between atoms: N_1  and  C_4
REMARK    2  A    between atoms: C_4  and  C_5
REMARK                            x       y       z     vdW  Elec       q    Type
REMARK                         _______ _______ _______ _____ _____    ______ ____
ROOT
ATOM      1  N   UNL     1      -4.315  10.824  -6.712  0.00  0.00    -0.354 N 
ATOM      2  N   UNL     1      -2.457  11.781  -5.712  0.00  0.00    -0.372 N 
ATOM      3  N   UNL     1      -4.324  11.387  -4.437  0.00  0.00    -0.372 N 
ATOM      4  C   UNL     1      -3.713  11.324  -5.625  0.00  0.00    +0.166 C 
ATOM      5  H   UNL     1      -3.808  10.832  -7.589  0.00  0.00    +0.163 HD
ATOM      6  H   UNL     1      -1.976  12.161  -4.908  0.00  0.00    +0.159 HD
ATOM      7  H   UNL     1      -1.937  11.745  -6.581  0.00  0.00    +0.159 HD
ATOM      8  H   UNL     1      -5.273  11.065  -4.305  0.00  0.00    +0.159 HD
ATOM      9  H   UNL     1      -3.863  11.775  -3.623  0.00  0.00    +0.159 HD
ENDROOT
BRANCH   1  10
ATOM     10  C   UNL     1      -5.660  10.252  -6.711  0.00  0.00    +0.151 C 
BRANCH  10  11
ATOM     11  C   UNL     1      -6.152  10.151  -8.128  0.00  0.00    -0.028 A 
ATOM     12  C   UNL     1      -5.383   9.500  -9.104  0.00  0.00    +0.005 A 
ATOM     13  C   UNL     1      -7.389  10.699  -8.501  0.00  0.00    +0.005 A 
ATOM     14  C   UNL     1      -5.852   9.379 -10.414  0.00  0.00    +0.000 A 
ATOM     15  C   UNL     1      -7.854  10.577  -9.810  0.00  0.00    +0.000 A 
ATOM     16  C   UNL     1      -7.087   9.914 -10.766  0.00  0.00    +0.000 A 
ENDBRANCH  10  11
ENDBRANCH   1  10
TORSDOF 2
ENDMDL
MODEL 3
REMARK VINA RESULT:    -4.550      2.462      3.427
REMARK INTER + INTRA:          -5.198
REMARK INTER:                  -5.034
REMARK INTRA:                  -0.164
REMARK UNBOUND:                -0.116
REMARK  Name = 1550473
REMARK  2 active torsions:
REMARK  status: ('A' for Active; 'I' for Inactive)
REMARK    1  A    between atoms: N_1  and  C_4
REMARK    2  A    between atoms: C_4  and  C_5
REMARK                            x       y       z     vdW  Elec       q    Type
REMARK                         _______ _______ _______ _____ _____    ______ ____
ROOT
ATOM      1  N   UNL     1     -10.305  15.055  12.000  0.00  0.00    -0.354 N 
ATOM      2  N   UNL     1     -11.758  15.360  13.778  0.00  0.00    -0.372 N 
ATOM      3  N   UNL     1     -10.781  13.304  13.483  0.00  0.00    -0.372 N 
ATOM      4  C   UNL     1     -10.938  14.568  13.075  0.00  0.00    +0.166 C 
ATOM      5  H   UNL     1     -10.489  16.013  11.726  0.00  0.00    +0.163 HD
ATOM      6  H   UNL     1     -12.247  15.021  14.595  0.00  0.00    +0.159 HD
ATOM      7  H   UNL     1     -11.905  16.330  13.528  0.00  0.00    +0.159 HD
ATOM      8  H   UNL     1     -10.181  12.654  12.993  0.00  0.00    +0.159 HD
ATOM      9  H   UNL     1     -11.271  12.944  14.292  0.00  0.00    +0.159 HD
ENDROOT
BRANCH   1  10
ATOM     10  C   UNL     1      -9.350  14.292  11.198  0.00  0.00    +0.151 C 
BRANCH  10  11
ATOM     11  C   UNL     1      -7.977  14.881  11.378  0.00  0.00    -0.028 A 
ATOM     12  C   UNL     1      -7.408  15.678  10.374  0.00  0.00    +0.005 A 
ATOM     13  C   UNL     1      -7.244  14.650  12.552  0.00  0.00    +0.005 A 
ATOM     14  C   UNL     1      -6.146  16.249  10.553  0.00  0.00    +0.000 A 
ATOM     15  C   UNL     1      -5.983  15.221  12.726  0.00  0.00    +0.000 A 
ATOM     16  C   UNL     1      -5.436  16.023  11.727  0.00  0.00    +0.000 A 
ENDBRANCH  10  11
ENDBRANCH   1  10
TORSDOF 2
ENDMDL
MODEL 4
REMARK VINA RESULT:    -4.542     26.678     27.886
REMARK INTER + INTRA:          -5.189
REMARK INTER:                  -5.074
REMARK INTRA:                  -0.115
REMARK UNBOUND:                -0.116
REMARK  Name = 1550473
REMARK  2 active torsions:
REMARK  status: ('A' for Active; 'I' for Inactive)
REMARK    1  A    between atoms: N_1  and  C_4
REMARK    2  A    between atoms: C_4  and  C_5
REMARK                            x       y       z     vdW  Elec       q    Type
REMARK                         _______ _______ _______ _____ _____    ______ ____
ROOT
ATOM      1  N   UNL     1     -18.945  -5.630  -5.496  0.00  0.00    -0.354 N 
ATOM      2  N   UNL     1     -20.902  -5.136  -6.631  0.00  0.00    -0.372 N 
ATOM      3  N   UNL     1     -18.944  -5.301  -7.816  0.00  0.00    -0.372 N 
ATOM      4  C   UNL     1     -19.583  -5.359  -6.642  0.00  0.00    +0.166 C 
ATOM      5  H   UNL     1     -19.481  -5.630  -4.636  0.00  0.00    +0.163 HD
ATOM      6  H   UNL     1     -21.411  -4.932  -7.481  0.00  0.00    +0.159 HD
ATOM      7  H   UNL     1     -21.443  -5.181  -5.776  0.00  0.00    +0.159 HD
ATOM      8  H   UNL     1     -17.948  -5.454  -7.892  0.00  0.00    +0.159 HD
ATOM      9  H   UNL     1     -19.434  -5.087  -8.676  0.00  0.00    +0.159 HD
ENDROOT
BRANCH   1  10
ATOM     10  C   UNL     1     -17.519  -5.941  -5.407  0.00  0.00    +0.151 C 
BRANCH  10  11
ATOM     11  C   UNL     1     -17.292  -6.876  -4.251  0.00  0.00    -0.028 A 
ATOM     12  C   UNL     1     -16.503  -6.481  -3.160  0.00  0.00    +0.005 A 
ATOM     13  C   UNL     1     -17.866  -8.156  -4.238  0.00  0.00    +0.005 A 
ATOM     14  C   UNL     1     -16.316  -7.337  -2.073  0.00  0.00    +0.000 A 
ATOM     15  C   UNL     1     -17.676  -9.009  -3.150  0.00  0.00    +0.000 A 
ATOM     16  C   UNL     1     -16.903  -8.598  -2.067  0.00  0.00    +0.000 A 
ENDBRANCH  10  11
ENDBRANCH   1  10
TORSDOF 2
ENDMDL
MODEL 5
REMARK VINA RESULT:    -4.519     31.529     32.495
REMARK INTER + INTRA:          -5.163
REMARK INTER:                  -5.033
REMARK INTRA:                  -0.130
REMARK UNBOUND:                -0.116
REMARK  Name = 1550473
REMARK  2 active torsions:
REMARK  status: ('A' for Active; 'I' for Inactive)
REMARK    1  A    between atoms: N_1  and  C_4
REMARK    2  A    between atoms: C_4  and  C_5
REMARK                            x       y       z     vdW  Elec       q    Type
REMARK                         _______ _______ _______ _____ _____    ______ ____
ROOT
ATOM      1  N   UNL     1     -10.558  -6.060 -14.998  0.00  0.00    -0.354 N 
ATOM      2  N   UNL     1      -9.682  -7.829 -16.209  0.00  0.00    -0.372 N 
ATOM      3  N   UNL     1      -9.650  -5.729 -17.133  0.00  0.00    -0.372 N 
ATOM      4  C   UNL     1      -9.969  -6.525 -16.107  0.00  0.00    +0.166 C 
ATOM      5  H   UNL     1     -10.801  -6.720 -14.269  0.00  0.00    +0.163 HD
ATOM      6  H   UNL     1      -9.235  -8.209 -17.033  0.00  0.00    +0.159 HD
ATOM      7  H   UNL     1      -9.885  -8.479 -15.460  0.00  0.00    +0.159 HD
ATOM      8  H   UNL     1      -9.844  -4.736 -17.121  0.00  0.00    +0.159 HD
ATOM      9  H   UNL     1      -9.212  -6.092 -17.970  0.00  0.00    +0.159 HD
ENDROOT
BRANCH   1  10
ATOM     10  C   UNL     1     -10.863  -4.649 -14.765  0.00  0.00    +0.151 C 
BRANCH  10  11
ATOM     11  C   UNL     1     -12.328  -4.508 -14.455  0.00  0.00    -0.028 A 
ATOM     12  C   UNL     1     -13.186  -3.859 -15.355  0.00  0.00    +0.005 A 
ATOM     13  C   UNL     1     -12.865  -5.027 -13.267  0.00  0.00    +0.005 A 
ATOM     14  C   UNL     1     -14.552  -3.754 -15.082  0.00  0.00    +0.000 A 
ATOM     15  C   UNL     1     -14.229  -4.920 -12.998  0.00  0.00    +0.000 A 
ATOM     16  C   UNL     1     -15.073  -4.285 -13.907  0.00  0.00    +0.000 A 
ENDBRANCH  10  11
ENDBRANCH   1  10
TORSDOF 2
ENDMDL
MODEL 6
REMARK VINA RESULT:    -4.508      3.263      3.754
REMARK INTER + INTRA:          -5.151
REMARK INTER:                  -4.987
REMARK INTRA:                  -0.164
REMARK UNBOUND:                -0.116
REMARK  Name = 1550473
REMARK  2 active torsions:
REMARK  status: ('A' for Active; 'I' for Inactive)
REMARK    1  A    between atoms: N_1  and  C_4
REMARK    2  A    between atoms: C_4  and  C_5
REMARK                            x       y       z     vdW  Elec       q    Type
REMARK                         _______ _______ _______ _____ _____    ______ ____
ROOT
ATOM      1  N   UNL     1     -10.113  15.360  14.210  0.00  0.00    -0.354 N 
ATOM      2  N   UNL     1     -12.214  15.090  13.274  0.00  0.00    -0.372 N 
ATOM      3  N   UNL     1     -10.754  13.320  13.250  0.00  0.00    -0.372 N 
ATOM      4  C   UNL     1     -11.012  14.589  13.584  0.00  0.00    +0.166 C 
ATOM      5  H   UNL     1     -10.359  16.323  14.408  0.00  0.00    +0.163 HD
ATOM      6  H   UNL     1     -12.914  14.532  12.804  0.00  0.00    +0.159 HD
ATOM      7  H   UNL     1     -12.474  16.039  13.514  0.00  0.00    +0.159 HD
ATOM      8  H   UNL     1      -9.864  12.885  13.451  0.00  0.00    +0.159 HD
ATOM      9  H   UNL     1     -11.437  12.749  12.770  0.00  0.00    +0.159 HD
ENDROOT
BRANCH   1  10
ATOM     10  C   UNL     1      -8.796  14.895  14.640  0.00  0.00    +0.151 C 
BRANCH  10  11
ATOM     11  C   UNL     1      -7.757  15.404  13.679  0.00  0.00    -0.028 A 
ATOM     12  C   UNL     1      -6.635  14.624  13.364  0.00  0.00    +0.005 A 
ATOM     13  C   UNL     1      -7.893  16.664  13.075  0.00  0.00    +0.005 A 
ATOM     14  C   UNL     1      -5.686  15.084  12.448  0.00  0.00    +0.000 A 
ATOM     15  C   UNL     1      -6.942  17.120  12.162  0.00  0.00    +0.000 A 
ATOM     16  C   UNL     1      -5.840  16.329  11.847  0.00  0.00    +0.000 A 
ENDBRANCH  10  11
ENDBRANCH   1  10
TORSDOF 2
ENDMDL
MODEL 7
REMARK VINA RESULT:    -4.496     27.111     28.721
REMARK INTER + INTRA:          -5.137
REMARK INTER:                  -4.988
REMARK INTRA:                  -0.149
REMARK UNBOUND:                -0.116
REMARK  Name = 1550473
REMARK  2 active torsions:
REMARK  status: ('A' for Active; 'I' for Inactive)
REMARK    1  A    between atoms: N_1  and  C_4
REMARK    2  A    between atoms: C_4  and  C_5
REMARK                            x       y       z     vdW  Elec       q    Type
REMARK                         _______ _______ _______ _____ _____    ______ ____
ROOT
ATOM      1  N   UNL     1     -19.692  -8.261  -5.629  0.00  0.00    -0.354 N 
ATOM      2  N   UNL     1     -21.829  -7.440  -5.980  0.00  0.00    -0.372 N 
ATOM      3  N   UNL     1     -21.555  -9.280  -4.636  0.00  0.00    -0.372 N 
ATOM      4  C   UNL     1     -21.012  -8.335  -5.411  0.00  0.00    +0.166 C 
ATOM      5  H   UNL     1     -19.346  -7.540  -6.251  0.00  0.00    +0.163 HD
ATOM      6  H   UNL     1     -22.829  -7.469  -5.831  0.00  0.00    +0.159 HD
ATOM      7  H   UNL     1     -21.476  -6.692  -6.564  0.00  0.00    +0.159 HD
ATOM      8  H   UNL     1     -20.993  -9.988  -4.182  0.00  0.00    +0.159 HD
ATOM      9  H   UNL     1     -22.554  -9.331  -4.484  0.00  0.00    +0.159 HD
ENDROOT
BRANCH   1  10
ATOM     10  C   UNL     1     -18.711  -9.154  -5.013  0.00  0.00    +0.151 C 
BRANCH  10  11
ATOM     11  C   UNL     1     -17.834  -8.356  -4.088  0.00  0.00    -0.028 A 
ATOM     12  C   UNL     1     -17.330  -7.108  -4.484  0.00  0.00    +0.005 A 
ATOM     13  C   UNL     1     -17.507  -8.840  -2.812  0.00  0.00    +0.005 A 
ATOM     14  C   UNL     1     -16.540  -6.353  -3.614  0.00  0.00    +0.000 A 
ATOM     15  C   UNL     1     -16.717  -8.084  -1.946  0.00  0.00    +0.000 A 
ATOM     16  C   UNL     1     -16.236  -6.839  -2.347  0.00  0.00    +0.000 A 
ENDBRANCH  10  11
ENDBRANCH   1  10
TORSDOF 2
ENDMDL
MODEL 8
REMARK VINA RESULT:    -4.428     17.120     18.060
REMARK INTER + INTRA:          -5.061
REMARK INTER:                  -4.958
REMARK INTRA:                  -0.104
REMARK UNBOUND:                -0.116
REMARK  Name = 1550473
REMARK  2 active torsions:
REMARK  status: ('A' for Active; 'I' for Inactive)
REMARK    1  A    between atoms: N_1  and  C_4
REMARK    2  A    between atoms: C_4  and  C_5
REMARK                            x       y       z     vdW  Elec       q    Type
REMARK                         _______ _______ _______ _____ _____    ______ ____
ROOT
ATOM      1  N   UNL     1       7.510   8.871  14.298  0.00  0.00    -0.354 N 
ATOM      2  N   UNL     1       5.583   9.936  15.017  0.00  0.00    -0.372 N 
ATOM      3  N   UNL     1       5.842   7.697  15.450  0.00  0.00    -0.372 N 
ATOM      4  C   UNL     1       6.324   8.825  14.918  0.00  0.00    +0.166 C 
ATOM      5  H   UNL     1       7.806   9.750  13.889  0.00  0.00    +0.163 HD
ATOM      6  H   UNL     1       4.685   9.932  15.482  0.00  0.00    +0.159 HD
ATOM      7  H   UNL     1       5.902  10.823  14.648  0.00  0.00    +0.159 HD
ATOM      8  H   UNL     1       6.349   6.824  15.404  0.00  0.00    +0.159 HD
ATOM      9  H   UNL     1       4.940   7.671  15.910  0.00  0.00    +0.159 HD
ENDROOT
BRANCH   1  10
ATOM     10  C   UNL     1       8.418   7.731  14.183  0.00  0.00    +0.151 C 
BRANCH  10  11
ATOM     11  C   UNL     1       9.569   8.107  13.291  0.00  0.00    -0.028 A 
ATOM     12  C   UNL     1       9.928   7.291  12.209  0.00  0.00    +0.005 A 
ATOM     13  C   UNL     1      10.301   9.283  13.520  0.00  0.00    +0.005 A 
ATOM     14  C   UNL     1      10.978   7.655  11.363  0.00  0.00    +0.000 A 
ATOM     15  C   UNL     1      11.349   9.643  12.673  0.00  0.00    +0.000 A 
ATOM     16  C   UNL     1      11.685   8.830  11.593  0.00  0.00    +0.000 A 
ENDBRANCH  10  11
ENDBRANCH   1  10
TORSDOF 2
ENDMDL
MODEL 9
REMARK VINA RESULT:    -4.409     27.859     28.913
REMARK INTER + INTRA:          -5.041
REMARK INTER:                  -4.887
REMARK INTRA:                  -0.154
REMARK UNBOUND:                -0.116
REMARK  Name = 1550473
REMARK  2 active torsions:
REMARK  status: ('A' for Active; 'I' for Inactive)
REMARK    1  A    between atoms: N_1  and  C_4
REMARK    2  A    between atoms: C_4  and  C_5
REMARK                            x       y       z     vdW  Elec       q    Type
REMARK                         _______ _______ _______ _____ _____    ______ ____
ROOT
ATOM      1  N   UNL     1      20.223  13.079   0.253  0.00  0.00    -0.354 N 
ATOM      2  N   UNL     1      22.226  12.826  -0.882  0.00  0.00    -0.372 N 
ATOM      3  N   UNL     1      21.144  10.955  -0.111  0.00  0.00    -0.372 N 
ATOM      4  C   UNL     1      21.184  12.286  -0.238  0.00  0.00    +0.166 C 
ATOM      5  H   UNL     1      20.328  14.082   0.149  0.00  0.00    +0.163 HD
ATOM      6  H   UNL     1      22.965  12.252  -1.266  0.00  0.00    +0.159 HD
ATOM      7  H   UNL     1      22.305  13.825  -1.024  0.00  0.00    +0.159 HD
ATOM      8  H   UNL     1      20.387  10.486   0.369  0.00  0.00    +0.159 HD
ATOM      9  H   UNL     1      21.879  10.365  -0.478  0.00  0.00    +0.159 HD
ENDROOT
BRANCH   1  10
ATOM     10  C   UNL     1      19.020  12.589   0.922  0.00  0.00    +0.151 C 
BRANCH  10  11
ATOM     11  C   UNL     1      17.823  12.885   0.062  0.00  0.00    -0.028 A 
ATOM     12  C   UNL     1      16.676  12.082   0.137  0.00  0.00    +0.005 A 
ATOM     13  C   UNL     1      17.828  13.971  -0.827  0.00  0.00    +0.005 A 
ATOM     14  C   UNL     1      15.552  12.375  -0.641  0.00  0.00    +0.000 A 
ATOM     15  C   UNL     1      16.705  14.259  -1.603  0.00  0.00    +0.000 A 
ATOM     16  C   UNL     1      15.567  13.462  -1.507  0.00  0.00    +0.000 A 
ENDBRANCH  10  11
ENDBRANCH   1  10
TORSDOF 2
ENDMDL
