MODEL 1
REMARK VINA RESULT:    -5.173      0.000      0.000
REMARK INTER + INTRA:          -5.918
REMARK INTER:                  -5.778
REMARK INTRA:                  -0.141
REMARK UNBOUND:                -0.141
REMARK  Name = 1550473
REMARK  2 active torsions:
REMARK  status: ('A' for Active; 'I' for Inactive)
REMARK    1  A    between atoms: N_1  and  C_4
REMARK    2  A    between atoms: C_4  and  C_5
REMARK                            x       y       z     vdW  Elec       q    Type
REMARK                         _______ _______ _______ _____ _____    ______ ____
ROOT
ATOM      1  N   UNL     1       6.049  13.991  -0.428  0.00  0.00    -0.354 N 
ATOM      2  N   UNL     1       4.783  15.265   1.034  0.00  0.00    -0.372 N 
ATOM      3  N   UNL     1       4.000  13.205   0.395  0.00  0.00    -0.372 N 
ATOM      4  C   UNL     1       4.950  14.143   0.324  0.00  0.00    +0.166 C 
ATOM      5  H   UNL     1       6.717  14.752  -0.464  0.00  0.00    +0.163 HD
ATOM      6  H   UNL     1       3.967  15.406   1.614  0.00  0.00    +0.159 HD
ATOM      7  H   UNL     1       5.475  16.004   1.033  0.00  0.00    +0.159 HD
ATOM      8  H   UNL     1       4.064  12.338  -0.121  0.00  0.00    +0.159 HD
ATOM      9  H   UNL     1       3.170  13.333   0.961  0.00  0.00    +0.159 HD
ENDROOT
BRANCH   1  10
ATOM     10  C   UNL     1       6.352  12.785  -1.198  0.00  0.00    +0.151 C 
BRANCH  10  11
ATOM     11  C   UNL     1       7.721  12.291  -0.817  0.00  0.00    -0.028 A 
ATOM     12  C   UNL     1       8.058  10.939  -0.972  0.00  0.00    +0.005 A 
ATOM     13  C   UNL     1       8.686  13.172  -0.306  0.00  0.00    +0.005 A 
ATOM     14  C   UNL     1       9.339  10.485  -0.647  0.00  0.00    +0.000 A 
ATOM     15  C   UNL     1       9.963  12.715   0.018  0.00  0.00    +0.000 A 
ATOM     16  C   UNL     1      10.290  11.372  -0.155  0.00  0.00    +0.000 A 
ENDBRANCH  10  11
ENDBRANCH   1  10
TORSDOF 2
ENDMDL
MODEL 2
REMARK VINA RESULT:    -4.799      1.891      2.383
REMARK INTER + INTRA:          -5.501
REMARK INTER:                  -5.368
REMARK INTRA:                  -0.133
REMARK UNBOUND:                -0.141
REMARK  Name = 1550473
REMARK  2 active torsions:
REMARK  status: ('A' for Active; 'I' for Inactive)
REMARK    1  A    between atoms: N_1  and  C_4
REMARK    2  A    between atoms: C_4  and  C_5
REMARK                            x       y       z     vdW  Elec       q    Type
REMARK                         _______ _______ _______ _____ _____    ______ ____
ROOT
ATOM      1  N   UNL     1       8.489  14.613   1.279  0.00  0.00    -0.354 N 
ATOM      2  N   UNL     1       7.671  15.498   3.257  0.00  0.00    -0.372 N 
ATOM      3  N   UNL     1       6.237  15.228   1.486  0.00  0.00    -0.372 N 
ATOM      4  C   UNL     1       7.468  15.107   1.993  0.00  0.00    +0.166 C 
ATOM      5  H   UNL     1       9.405  14.576   1.711  0.00  0.00    +0.163 HD
ATOM      6  H   UNL     1       6.919  15.871   3.821  0.00  0.00    +0.159 HD
ATOM      7  H   UNL     1       8.577  15.417   3.701  0.00  0.00    +0.159 HD
ATOM      8  H   UNL     1       6.020  14.957   0.536  0.00  0.00    +0.159 HD
ATOM      9  H   UNL     1       5.474  15.610   2.031  0.00  0.00    +0.159 HD
ENDROOT
BRANCH   1  10
ATOM     10  C   UNL     1       8.363  14.110  -0.088  0.00  0.00    +0.151 C 
BRANCH  10  11
ATOM     11  C   UNL     1       8.853  12.689  -0.135  0.00  0.00    -0.028 A 
ATOM     12  C   UNL     1       7.943  11.622  -0.134  0.00  0.00    +0.005 A 
ATOM     13  C   UNL     1      10.226  12.404  -0.188  0.00  0.00    +0.005 A 
ATOM     14  C   UNL     1       8.397  10.303  -0.209  0.00  0.00    +0.000 A 
ATOM     15  C   UNL     1      10.675  11.085  -0.261  0.00  0.00    +0.000 A 
ATOM     16  C   UNL     1       9.760  10.035  -0.274  0.00  0.00    +0.000 A 
ENDBRANCH  10  11
ENDBRANCH   1  10
TORSDOF 2
ENDMDL
MODEL 3
REMARK VINA RESULT:    -4.526     17.384     18.518
REMARK INTER + INTRA:          -5.195
REMARK INTER:                  -5.013
REMARK INTRA:                  -0.182
REMARK UNBOUND:                -0.141
REMARK  Name = 1550473
REMARK  2 active torsions:
REMARK  status: ('A' for Active; 'I' for Inactive)
REMARK    1  A    between atoms: N_1  and  C_4
REMARK    2  A    between atoms: C_4  and  C_5
REMARK                            x       y       z     vdW  Elec       q    Type
REMARK                         _______ _______ _______ _____ _____    ______ ____
ROOT
ATOM      1  N   UNL     1       9.898   4.628 -14.677  0.00  0.00    -0.354 N 
ATOM      2  N   UNL     1      11.125   6.578 -14.446  0.00  0.00    -0.372 N 
ATOM      3  N   UNL     1       8.838   6.715 -14.563  0.00  0.00    -0.372 N 
ATOM      4  C   UNL     1       9.943   5.962 -14.564  0.00  0.00    +0.166 C 
ATOM      5  H   UNL     1      10.773   4.117 -14.702  0.00  0.00    +0.163 HD
ATOM      6  H   UNL     1      11.191   7.583 -14.355  0.00  0.00    +0.159 HD
ATOM      7  H   UNL     1      11.996   6.061 -14.424  0.00  0.00    +0.159 HD
ATOM      8  H   UNL     1       7.915   6.312 -14.655  0.00  0.00    +0.159 HD
ATOM      9  H   UNL     1       8.884   7.724 -14.485  0.00  0.00    +0.159 HD
ENDROOT
BRANCH   1  10
ATOM     10  C   UNL     1       8.659   3.856 -14.757  0.00  0.00    +0.151 C 
BRANCH  10  11
ATOM     11  C   UNL     1       8.426   3.448 -16.186  0.00  0.00    -0.028 A 
ATOM     12  C   UNL     1       7.478   4.119 -16.972  0.00  0.00    +0.005 A 
ATOM     13  C   UNL     1       9.153   2.394 -16.760  0.00  0.00    +0.005 A 
ATOM     14  C   UNL     1       7.283   3.760 -18.308  0.00  0.00    +0.000 A 
ATOM     15  C   UNL     1       8.955   2.038 -18.094  0.00  0.00    +0.000 A 
ATOM     16  C   UNL     1       8.021   2.723 -18.868  0.00  0.00    +0.000 A 
ENDBRANCH  10  11
ENDBRANCH   1  10
TORSDOF 2
ENDMDL
MODEL 4
REMARK VINA RESULT:    -4.420      1.896      2.721
REMARK INTER + INTRA:          -5.077
REMARK INTER:                  -4.970
REMARK INTRA:                  -0.107
REMARK UNBOUND:                -0.141
REMARK  Name = 1550473
REMARK  2 active torsions:
REMARK  status: ('A' for Active; 'I' for Inactive)
REMARK    1  A    between atoms: N_1  and  C_4
REMARK    2  A    between atoms: C_4  and  C_5
REMARK                            x       y       z     vdW  Elec       q    Type
REMARK                         _______ _______ _______ _____ _____    ______ ____
ROOT
ATOM      1  N   UNL     1       6.949  13.816  -0.181  0.00  0.00    -0.354 N 
ATOM      2  N   UNL     1       7.434  15.408   1.430  0.00  0.00    -0.372 N 
ATOM      3  N   UNL     1       5.243  15.050   0.849  0.00  0.00    -0.372 N 
ATOM      4  C   UNL     1       6.536  14.748   0.689  0.00  0.00    +0.166 C 
ATOM      5  H   UNL     1       7.945  13.655  -0.277  0.00  0.00    +0.163 HD
ATOM      6  H   UNL     1       7.152  16.114   2.097  0.00  0.00    +0.159 HD
ATOM      7  H   UNL     1       8.426  15.213   1.365  0.00  0.00    +0.159 HD
ATOM      8  H   UNL     1       4.517  14.592   0.315  0.00  0.00    +0.159 HD
ATOM      9  H   UNL     1       4.942  15.762   1.503  0.00  0.00    +0.159 HD
ENDROOT
BRANCH   1  10
ATOM     10  C   UNL     1       6.049  13.003  -0.997  0.00  0.00    +0.151 C 
BRANCH  10  11
ATOM     11  C   UNL     1       6.865  12.172  -1.948  0.00  0.00    -0.028 A 
ATOM     12  C   UNL     1       8.003  11.487  -1.499  0.00  0.00    +0.005 A 
ATOM     13  C   UNL     1       6.501  12.060  -3.299  0.00  0.00    +0.005 A 
ATOM     14  C   UNL     1       8.744  10.690  -2.375  0.00  0.00    +0.000 A 
ATOM     15  C   UNL     1       7.244  11.264  -4.171  0.00  0.00    +0.000 A 
ATOM     16  C   UNL     1       8.364  10.578  -3.708  0.00  0.00    +0.000 A 
ENDBRANCH  10  11
ENDBRANCH   1  10
TORSDOF 2
ENDMDL
MODEL 5
REMARK VINA RESULT:    -4.388     20.185     21.848
REMARK INTER + INTRA:          -5.041
REMARK INTER:                  -4.910
REMARK INTRA:                  -0.131
REMARK UNBOUND:                -0.141
REMARK  Name = 1550473
REMARK  2 active torsions:
REMARK  status: ('A' for Active; 'I' for Inactive)
REMARK    1  A    between atoms: N_1  and  C_4
REMARK    2  A    between atoms: C_4  and  C_5
REMARK                            x       y       z     vdW  Elec       q    Type
REMARK                         _______ _______ _______ _____ _____    ______ ____
ROOT
ATOM      1  N   UNL     1     -14.272   5.810   5.540  0.00  0.00    -0.354 N 
ATOM      2  N   UNL     1     -16.453   6.585   5.622  0.00  0.00    -0.372 N 
ATOM      3  N   UNL     1     -15.781   5.352   3.807  0.00  0.00    -0.372 N 
ATOM      4  C   UNL     1     -15.488   5.910   4.986  0.00  0.00    +0.166 C 
ATOM      5  H   UNL     1     -14.105   6.281   6.422  0.00  0.00    +0.163 HD
ATOM      6  H   UNL     1     -17.381   6.674   5.230  0.00  0.00    +0.159 HD
ATOM      7  H   UNL     1     -16.297   7.016   6.525  0.00  0.00    +0.159 HD
ATOM      8  H   UNL     1     -15.095   4.834   3.274  0.00  0.00    +0.159 HD
ATOM      9  H   UNL     1     -16.701   5.440   3.393  0.00  0.00    +0.159 HD
ENDROOT
BRANCH   1  10
ATOM     10  C   UNL     1     -13.167   5.052   4.956  0.00  0.00    +0.151 C 
BRANCH  10  11
ATOM     11  C   UNL     1     -11.867   5.699   5.348  0.00  0.00    -0.028 A 
ATOM     12  C   UNL     1     -10.648   5.188   4.878  0.00  0.00    +0.005 A 
ATOM     13  C   UNL     1     -11.848   6.826   6.183  0.00  0.00    +0.005 A 
ATOM     14  C   UNL     1      -9.442   5.806   5.217  0.00  0.00    +0.000 A 
ATOM     15  C   UNL     1     -10.641   7.440   6.520  0.00  0.00    +0.000 A 
ATOM     16  C   UNL     1      -9.439   6.931   6.035  0.00  0.00    +0.000 A 
ENDBRANCH  10  11
ENDBRANCH   1  10
TORSDOF 2
ENDMDL
MODEL 6
REMARK VINA RESULT:    -4.352      3.316      4.079
REMARK INTER + INTRA:          -5.001
REMARK INTER:                  -4.880
REMARK INTRA:                  -0.121
REMARK UNBOUND:                -0.141
REMARK  Name = 1550473
REMARK  2 active torsions:
REMARK  status: ('A' for Active; 'I' for Inactive)
REMARK    1  A    between atoms: N_1  and  C_4
REMARK    2  A    between atoms: C_4  and  C_5
REMARK                            x       y       z     vdW  Elec       q    Type
REMARK                         _______ _______ _______ _____ _____    ______ ____
ROOT
ATOM      1  N   UNL     1       7.338  16.981   2.892  0.00  0.00    -0.354 N 
ATOM      2  N   UNL     1       7.817  17.585   5.076  0.00  0.00    -0.372 N 
ATOM      3  N   UNL     1       6.221  15.982   4.694  0.00  0.00    -0.372 N 
ATOM      4  C   UNL     1       7.120  16.843   4.207  0.00  0.00    +0.166 C 
ATOM      5  H   UNL     1       8.012  17.673   2.586  0.00  0.00    +0.163 HD
ATOM      6  H   UNL     1       7.677  17.501   6.074  0.00  0.00    +0.159 HD
ATOM      7  H   UNL     1       8.523  18.243   4.769  0.00  0.00    +0.159 HD
ATOM      8  H   UNL     1       5.658  15.397   4.090  0.00  0.00    +0.159 HD
ATOM      9  H   UNL     1       6.058  15.892   5.689  0.00  0.00    +0.159 HD
ENDROOT
BRANCH   1  10
ATOM     10  C   UNL     1       6.671  16.183   1.865  0.00  0.00    +0.151 C 
BRANCH  10  11
ATOM     11  C   UNL     1       7.630  15.147   1.347  0.00  0.00    -0.028 A 
ATOM     12  C   UNL     1       7.170  14.079   0.564  0.00  0.00    +0.005 A 
ATOM     13  C   UNL     1       9.002  15.231   1.632  0.00  0.00    +0.005 A 
ATOM     14  C   UNL     1       8.064  13.132   0.058  0.00  0.00    +0.000 A 
ATOM     15  C   UNL     1       9.892  14.284   1.126  0.00  0.00    +0.000 A 
ATOM     16  C   UNL     1       9.423  13.236   0.337  0.00  0.00    +0.000 A 
ENDBRANCH  10  11
ENDBRANCH   1  10
TORSDOF 2
ENDMDL
MODEL 7
REMARK VINA RESULT:    -4.346     22.176     23.911
REMARK INTER + INTRA:          -4.995
REMARK INTER:                  -4.814
REMARK INTRA:                  -0.181
REMARK UNBOUND:                -0.141
REMARK  Name = 1550473
REMARK  2 active torsions:
REMARK  status: ('A' for Active; 'I' for Inactive)
REMARK    1  A    between atoms: N_1  and  C_4
REMARK    2  A    between atoms: C_4  and  C_5
REMARK                            x       y       z     vdW  Elec       q    Type
REMARK                         _______ _______ _______ _____ _____    ______ ____
ROOT
ATOM      1  N   UNL     1      17.866  -7.800  -1.902  0.00  0.00    -0.354 N 
ATOM      2  N   UNL     1      16.177  -6.548  -0.930  0.00  0.00    -0.372 N 
ATOM      3  N   UNL     1      17.542  -5.553  -2.483  0.00  0.00    -0.372 N 
ATOM      4  C   UNL     1      17.207  -6.640  -1.779  0.00  0.00    +0.166 C 
ATOM      5  H   UNL     1      17.582  -8.579  -1.318  0.00  0.00    +0.163 HD
ATOM      6  H   UNL     1      15.659  -5.687  -0.820  0.00  0.00    +0.159 HD
ATOM      7  H   UNL     1      15.866  -7.341  -0.382  0.00  0.00    +0.159 HD
ATOM      8  H   UNL     1      18.314  -5.555  -3.136  0.00  0.00    +0.159 HD
ATOM      9  H   UNL     1      17.043  -4.679  -2.377  0.00  0.00    +0.159 HD
ENDROOT
BRANCH   1  10
ATOM     10  C   UNL     1      18.968  -8.021  -2.837  0.00  0.00    +0.151 C 
BRANCH  10  11
ATOM     11  C   UNL     1      18.446  -8.740  -4.050  0.00  0.00    -0.028 A 
ATOM     12  C   UNL     1      17.860 -10.009  -3.928  0.00  0.00    +0.005 A 
ATOM     13  C   UNL     1      18.529  -8.157  -5.323  0.00  0.00    +0.005 A 
ATOM     14  C   UNL     1      17.349 -10.665  -5.050  0.00  0.00    +0.000 A 
ATOM     15  C   UNL     1      18.018  -8.815  -6.441  0.00  0.00    +0.000 A 
ATOM     16  C   UNL     1      17.425 -10.068  -6.304  0.00  0.00    +0.000 A 
ENDBRANCH  10  11
ENDBRANCH   1  10
TORSDOF 2
ENDMDL
MODEL 8
REMARK VINA RESULT:    -4.320      3.962      5.008
REMARK INTER + INTRA:          -4.966
REMARK INTER:                  -4.834
REMARK INTRA:                  -0.132
REMARK UNBOUND:                -0.141
REMARK  Name = 1550473
REMARK  2 active torsions:
REMARK  status: ('A' for Active; 'I' for Inactive)
REMARK    1  A    between atoms: N_1  and  C_4
REMARK    2  A    between atoms: C_4  and  C_5
REMARK                            x       y       z     vdW  Elec       q    Type
REMARK                         _______ _______ _______ _____ _____    ______ ____
ROOT
ATOM      1  N   UNL     1      10.260  13.192  -3.324  0.00  0.00    -0.354 N 
ATOM      2  N   UNL     1      11.886  13.487  -4.946  0.00  0.00    -0.372 N 
ATOM      3  N   UNL     1      10.089  12.137  -5.410  0.00  0.00    -0.372 N 
ATOM      4  C   UNL     1      10.733  12.935  -4.551  0.00  0.00    +0.166 C 
ATOM      5  H   UNL     1      10.810  13.780  -2.709  0.00  0.00    +0.163 HD
ATOM      6  H   UNL     1      12.266  13.315  -5.867  0.00  0.00    +0.159 HD
ATOM      7  H   UNL     1      12.411  14.112  -4.347  0.00  0.00    +0.159 HD
ATOM      8  H   UNL     1       9.217  11.685  -5.170  0.00  0.00    +0.159 HD
ATOM      9  H   UNL     1      10.459  11.943  -6.332  0.00  0.00    +0.159 HD
ENDROOT
BRANCH   1  10
ATOM     10  C   UNL     1       8.987  12.683  -2.815  0.00  0.00    +0.151 C 
BRANCH  10  11
ATOM     11  C   UNL     1       9.255  11.746  -1.670  0.00  0.00    -0.028 A 
ATOM     12  C   UNL     1       8.198  11.075  -1.037  0.00  0.00    +0.005 A 
ATOM     13  C   UNL     1      10.564  11.519  -1.218  0.00  0.00    +0.005 A 
ATOM     14  C   UNL     1       8.450  10.181   0.007  0.00  0.00    +0.000 A 
ATOM     15  C   UNL     1      10.810  10.626  -0.175  0.00  0.00    +0.000 A 
ATOM     16  C   UNL     1       9.753   9.956   0.435  0.00  0.00    +0.000 A 
ENDBRANCH  10  11
ENDBRANCH   1  10
TORSDOF 2
ENDMDL
MODEL 9
REMARK VINA RESULT:    -4.250     15.453     16.425
REMARK INTER + INTRA:          -4.887
REMARK INTER:                  -4.748
REMARK INTRA:                  -0.139
REMARK UNBOUND:                -0.141
REMARK  Name = 1550473
REMARK  2 active torsions:
REMARK  status: ('A' for Active; 'I' for Inactive)
REMARK    1  A    between atoms: N_1  and  C_4
REMARK    2  A    between atoms: C_4  and  C_5
REMARK                            x       y       z     vdW  Elec       q    Type
REMARK                         _______ _______ _______ _____ _____    ______ ____
ROOT
ATOM      1  N   UNL     1       8.785   5.052 -15.855  0.00  0.00    -0.354 N 
ATOM      2  N   UNL     1       6.957   3.976 -16.785  0.00  0.00    -0.372 N 
ATOM      3  N   UNL     1       7.508   3.539 -14.601  0.00  0.00    -0.372 N 
ATOM      4  C   UNL     1       7.762   4.195 -15.738  0.00  0.00    +0.166 C 
ATOM      5  H   UNL     1       8.942   5.494 -16.754  0.00  0.00    +0.163 HD
ATOM      6  H   UNL     1       6.175   3.338 -16.726  0.00  0.00    +0.159 HD
ATOM      7  H   UNL     1       7.089   4.454 -17.668  0.00  0.00    +0.159 HD
ATOM      8  H   UNL     1       8.082   3.655 -13.776  0.00  0.00    +0.159 HD
ATOM      9  H   UNL     1       6.738   2.887 -14.525  0.00  0.00    +0.159 HD
ENDROOT
BRANCH   1  10
ATOM     10  C   UNL     1       9.689   5.401 -14.760  0.00  0.00    +0.151 C 
BRANCH  10  11
ATOM     11  C   UNL     1       9.628   6.885 -14.528  0.00  0.00    -0.028 A 
ATOM     12  C   UNL     1       8.808   7.698 -15.325  0.00  0.00    +0.005 A 
ATOM     13  C   UNL     1      10.383   7.485 -13.508  0.00  0.00    +0.005 A 
ATOM     14  C   UNL     1       8.729   9.073 -15.090  0.00  0.00    +0.000 A 
ATOM     15  C   UNL     1      10.301   8.858 -13.277  0.00  0.00    +0.000 A 
ATOM     16  C   UNL     1       9.472   9.651 -14.066  0.00  0.00    +0.000 A 
ENDBRANCH  10  11
ENDBRANCH   1  10
TORSDOF 2
ENDMDL
