MODEL 1
REMARK VINA RESULT:    -5.930      0.000      0.000
REMARK INTER + INTRA:          -6.776
REMARK INTER:                  -6.624
REMARK INTRA:                  -0.152
REMARK UNBOUND:                -0.152
REMARK  Name = 1550473
REMARK  2 active torsions:
REMARK  status: ('A' for Active; 'I' for Inactive)
REMARK    1  A    between atoms: N_1  and  C_4
REMARK    2  A    between atoms: C_4  and  C_5
REMARK                            x       y       z     vdW  Elec       q    Type
REMARK                         _______ _______ _______ _____ _____    ______ ____
ROOT
ATOM      1  N   UNL     1      11.399  13.497   4.881  0.00  0.00    -0.354 N 
ATOM      2  N   UNL     1      10.288  15.528   4.804  0.00  0.00    -0.372 N 
ATOM      3  N   UNL     1       9.708  14.007   6.421  0.00  0.00    -0.372 N 
ATOM      4  C   UNL     1      10.471  14.329   5.371  0.00  0.00    +0.166 C 
ATOM      5  H   UNL     1      11.923  13.789   4.064  0.00  0.00    +0.163 HD
ATOM      6  H   UNL     1       9.597  16.178   5.154  0.00  0.00    +0.159 HD
ATOM      7  H   UNL     1      10.845  15.835   4.016  0.00  0.00    +0.159 HD
ATOM      8  H   UNL     1       9.793  13.115   6.891  0.00  0.00    +0.159 HD
ATOM      9  H   UNL     1       9.004  14.640   6.779  0.00  0.00    +0.159 HD
ENDROOT
BRANCH   1  10
ATOM     10  C   UNL     1      11.715  12.192   5.458  0.00  0.00    +0.151 C 
BRANCH  10  11
ATOM     11  C   UNL     1      11.134  11.115   4.585  0.00  0.00    -0.028 A 
ATOM     12  C   UNL     1      11.959  10.371   3.728  0.00  0.00    +0.005 A 
ATOM     13  C   UNL     1       9.761  10.828   4.613  0.00  0.00    +0.005 A 
ATOM     14  C   UNL     1      11.425   9.350   2.938  0.00  0.00    +0.000 A 
ATOM     15  C   UNL     1       9.231   9.808   3.822  0.00  0.00    +0.000 A 
ATOM     16  C   UNL     1      10.064   9.068   2.987  0.00  0.00    +0.000 A 
ENDBRANCH  10  11
ENDBRANCH   1  10
TORSDOF 2
ENDMDL
MODEL 2
REMARK VINA RESULT:    -5.919      1.496      2.448
REMARK INTER + INTRA:          -6.763
REMARK INTER:                  -6.650
REMARK INTRA:                  -0.114
REMARK UNBOUND:                -0.152
REMARK  Name = 1550473
REMARK  2 active torsions:
REMARK  status: ('A' for Active; 'I' for Inactive)
REMARK    1  A    between atoms: N_1  and  C_4
REMARK    2  A    between atoms: C_4  and  C_5
REMARK                            x       y       z     vdW  Elec       q    Type
REMARK                         _______ _______ _______ _____ _____    ______ ____
ROOT
ATOM      1  N   UNL     1      11.203  12.087   6.742  0.00  0.00    -0.354 N 
ATOM      2  N   UNL     1      10.831  12.460   8.998  0.00  0.00    -0.372 N 
ATOM      3  N   UNL     1      10.308  14.116   7.499  0.00  0.00    -0.372 N 
ATOM      4  C   UNL     1      10.782  12.888   7.731  0.00  0.00    +0.166 C 
ATOM      5  H   UNL     1      11.580  11.179   6.986  0.00  0.00    +0.163 HD
ATOM      6  H   UNL     1      10.518  13.040   9.764  0.00  0.00    +0.159 HD
ATOM      7  H   UNL     1      11.166  11.533   9.235  0.00  0.00    +0.159 HD
ATOM      8  H   UNL     1      10.250  14.501   6.566  0.00  0.00    +0.159 HD
ATOM      9  H   UNL     1      10.000  14.717   8.254  0.00  0.00    +0.159 HD
ENDROOT
BRANCH   1  10
ATOM     10  C   UNL     1      11.141  12.437   5.324  0.00  0.00    +0.151 C 
BRANCH  10  11
ATOM     11  C   UNL     1      10.796  11.209   4.529  0.00  0.00    -0.028 A 
ATOM     12  C   UNL     1       9.479  10.727   4.501  0.00  0.00    +0.005 A 
ATOM     13  C   UNL     1      11.779  10.525   3.798  0.00  0.00    +0.005 A 
ATOM     14  C   UNL     1       9.151   9.603   3.738  0.00  0.00    +0.000 A 
ATOM     15  C   UNL     1      11.448   9.403   3.039  0.00  0.00    +0.000 A 
ATOM     16  C   UNL     1      10.134   8.944   3.007  0.00  0.00    +0.000 A 
ENDBRANCH  10  11
ENDBRANCH   1  10
TORSDOF 2
ENDMDL
MODEL 3
REMARK VINA RESULT:    -5.137      3.497      4.782
REMARK INTER + INTRA:          -5.890
REMARK INTER:                  -5.748
REMARK INTRA:                  -0.142
REMARK UNBOUND:                -0.152
REMARK  Name = 1550473
REMARK  2 active torsions:
REMARK  status: ('A' for Active; 'I' for Inactive)
REMARK    1  A    between atoms: N_1  and  C_4
REMARK    2  A    between atoms: C_4  and  C_5
REMARK                            x       y       z     vdW  Elec       q    Type
REMARK                         _______ _______ _______ _____ _____    ______ ____
ROOT
ATOM      1  N   UNL     1      14.039   9.847   3.033  0.00  0.00    -0.354 N 
ATOM      2  N   UNL     1      16.150  10.138   3.941  0.00  0.00    -0.372 N 
ATOM      3  N   UNL     1      15.199   8.051   3.992  0.00  0.00    -0.372 N 
ATOM      4  C   UNL     1      15.115   9.341   3.650  0.00  0.00    +0.166 C 
ATOM      5  H   UNL     1      14.025  10.840   2.827  0.00  0.00    +0.163 HD
ATOM      6  H   UNL     1      16.977   9.784   4.403  0.00  0.00    +0.159 HD
ATOM      7  H   UNL     1      16.152  11.120   3.693  0.00  0.00    +0.159 HD
ATOM      8  H   UNL     1      14.449   7.398   3.807  0.00  0.00    +0.159 HD
ATOM      9  H   UNL     1      16.013   7.680   4.466  0.00  0.00    +0.159 HD
ENDROOT
BRANCH   1  10
ATOM     10  C   UNL     1      12.882   9.053   2.624  0.00  0.00    +0.151 C 
BRANCH  10  11
ATOM     11  C   UNL     1      11.645   9.622   3.264  0.00  0.00    -0.028 A 
ATOM     12  C   UNL     1      11.727  10.753   4.089  0.00  0.00    +0.005 A 
ATOM     13  C   UNL     1      10.389   9.037   3.045  0.00  0.00    +0.005 A 
ATOM     14  C   UNL     1      10.574  11.300   4.659  0.00  0.00    +0.000 A 
ATOM     15  C   UNL     1       9.241   9.585   3.617  0.00  0.00    +0.000 A 
ATOM     16  C   UNL     1       9.334  10.717   4.422  0.00  0.00    +0.000 A 
ENDBRANCH  10  11
ENDBRANCH   1  10
TORSDOF 2
ENDMDL
MODEL 4
REMARK VINA RESULT:    -5.007      7.966      9.113
REMARK INTER + INTRA:          -5.744
REMARK INTER:                  -5.584
REMARK INTRA:                  -0.160
REMARK UNBOUND:                -0.152
REMARK  Name = 1550473
REMARK  2 active torsions:
REMARK  status: ('A' for Active; 'I' for Inactive)
REMARK    1  A    between atoms: N_1  and  C_4
REMARK    2  A    between atoms: C_4  and  C_5
REMARK                            x       y       z     vdW  Elec       q    Type
REMARK                         _______ _______ _______ _____ _____    ______ ____
ROOT
ATOM      1  N   UNL     1      13.214  11.862  14.653  0.00  0.00    -0.354 N 
ATOM      2  N   UNL     1      13.221  13.436  16.352  0.00  0.00    -0.372 N 
ATOM      3  N   UNL     1      13.881  14.072  14.249  0.00  0.00    -0.372 N 
ATOM      4  C   UNL     1      13.440  13.114  15.071  0.00  0.00    +0.166 C 
ATOM      5  H   UNL     1      12.909  11.175  15.333  0.00  0.00    +0.163 HD
ATOM      6  H   UNL     1      13.379  14.373  16.696  0.00  0.00    +0.159 HD
ATOM      7  H   UNL     1      12.872  12.758  17.019  0.00  0.00    +0.159 HD
ATOM      8  H   UNL     1      14.072  13.892  13.272  0.00  0.00    +0.159 HD
ATOM      9  H   UNL     1      14.057  15.013  14.577  0.00  0.00    +0.159 HD
ENDROOT
BRANCH   1  10
ATOM     10  C   UNL     1      13.370  11.422  13.267  0.00  0.00    +0.151 C 
BRANCH  10  11
ATOM     11  C   UNL     1      12.064  11.605  12.544  0.00  0.00    -0.028 A 
ATOM     12  C   UNL     1      12.023  12.257  11.303  0.00  0.00    +0.005 A 
ATOM     13  C   UNL     1      10.866  11.123  13.092  0.00  0.00    +0.005 A 
ATOM     14  C   UNL     1      10.814  12.401  10.617  0.00  0.00    +0.000 A 
ATOM     15  C   UNL     1       9.661  11.268  12.404  0.00  0.00    +0.000 A 
ATOM     16  C   UNL     1       9.636  11.905  11.166  0.00  0.00    +0.000 A 
ENDBRANCH  10  11
ENDBRANCH   1  10
TORSDOF 2
ENDMDL
MODEL 5
REMARK VINA RESULT:    -4.893      5.503      6.881
REMARK INTER + INTRA:          -5.617
REMARK INTER:                  -5.467
REMARK INTRA:                  -0.150
REMARK UNBOUND:                -0.152
REMARK  Name = 1550473
REMARK  2 active torsions:
REMARK  status: ('A' for Active; 'I' for Inactive)
REMARK    1  A    between atoms: N_1  and  C_4
REMARK    2  A    between atoms: C_4  and  C_5
REMARK                            x       y       z     vdW  Elec       q    Type
REMARK                         _______ _______ _______ _____ _____    ______ ____
ROOT
ATOM      1  N   UNL     1      11.931  13.195   8.922  0.00  0.00    -0.354 N 
ATOM      2  N   UNL     1      13.100  12.763   6.970  0.00  0.00    -0.372 N 
ATOM      3  N   UNL     1      10.892  12.154   7.098  0.00  0.00    -0.372 N 
ATOM      4  C   UNL     1      11.964  12.705   7.676  0.00  0.00    +0.166 C 
ATOM      5  H   UNL     1      12.786  13.573   9.314  0.00  0.00    +0.163 HD
ATOM      6  H   UNL     1      13.155  12.405   6.026  0.00  0.00    +0.159 HD
ATOM      7  H   UNL     1      13.941  13.183   7.348  0.00  0.00    +0.159 HD
ATOM      8  H   UNL     1      10.006  12.074   7.579  0.00  0.00    +0.159 HD
ATOM      9  H   UNL     1      10.930  11.779   6.158  0.00  0.00    +0.159 HD
ENDROOT
BRANCH   1  10
ATOM     10  C   UNL     1      10.730  13.229   9.755  0.00  0.00    +0.151 C 
BRANCH  10  11
ATOM     11  C   UNL     1      10.952  12.375  10.972  0.00  0.00    -0.028 A 
ATOM     12  C   UNL     1      12.247  12.162  11.467  0.00  0.00    +0.005 A 
ATOM     13  C   UNL     1       9.870  11.779  11.639  0.00  0.00    +0.005 A 
ATOM     14  C   UNL     1      12.451  11.393  12.615  0.00  0.00    +0.000 A 
ATOM     15  C   UNL     1      10.078  11.011  12.785  0.00  0.00    +0.000 A 
ATOM     16  C   UNL     1      11.368  10.820  13.274  0.00  0.00    +0.000 A 
ENDBRANCH  10  11
ENDBRANCH   1  10
TORSDOF 2
ENDMDL
MODEL 6
REMARK VINA RESULT:    -4.679     26.001     27.706
REMARK INTER + INTRA:          -5.378
REMARK INTER:                  -5.323
REMARK INTRA:                  -0.055
REMARK UNBOUND:                -0.152
REMARK  Name = 1550473
REMARK  2 active torsions:
REMARK  status: ('A' for Active; 'I' for Inactive)
REMARK    1  A    between atoms: N_1  and  C_4
REMARK    2  A    between atoms: C_4  and  C_5
REMARK                            x       y       z     vdW  Elec       q    Type
REMARK                         _______ _______ _______ _____ _____    ______ ____
ROOT
ATOM      1  N   UNL     1       2.274  -3.198 -14.726  0.00  0.00    -0.354 N 
ATOM      2  N   UNL     1       2.357  -3.158 -12.412  0.00  0.00    -0.372 N 
ATOM      3  N   UNL     1       3.744  -4.591 -13.547  0.00  0.00    -0.372 N 
ATOM      4  C   UNL     1       2.793  -3.651 -13.578  0.00  0.00    +0.166 C 
ATOM      5  H   UNL     1       1.534  -2.507 -14.680  0.00  0.00    +0.163 HD
ATOM      6  H   UNL     1       2.732  -3.478 -11.529  0.00  0.00    +0.159 HD
ATOM      7  H   UNL     1       1.650  -2.434 -12.371  0.00  0.00    +0.159 HD
ATOM      8  H   UNL     1       4.112  -5.008 -14.392  0.00  0.00    +0.159 HD
ATOM      9  H   UNL     1       4.124  -4.933 -12.673  0.00  0.00    +0.159 HD
ENDROOT
BRANCH   1  10
ATOM     10  C   UNL     1       2.716  -3.630 -16.051  0.00  0.00    +0.151 C 
BRANCH  10  11
ATOM     11  C   UNL     1       1.664  -4.518 -16.655  0.00  0.00    -0.028 A 
ATOM     12  C   UNL     1       1.592  -4.693 -18.045  0.00  0.00    +0.005 A 
ATOM     13  C   UNL     1       0.739  -5.192 -15.843  0.00  0.00    +0.005 A 
ATOM     14  C   UNL     1       0.634  -5.542 -18.605  0.00  0.00    +0.000 A 
ATOM     15  C   UNL     1      -0.217  -6.037 -16.406  0.00  0.00    +0.000 A 
ATOM     16  C   UNL     1      -0.268  -6.214 -17.786  0.00  0.00    +0.000 A 
ENDBRANCH  10  11
ENDBRANCH   1  10
TORSDOF 2
ENDMDL
MODEL 7
REMARK VINA RESULT:    -4.659      3.482      4.612
REMARK INTER + INTRA:          -5.355
REMARK INTER:                  -5.217
REMARK INTRA:                  -0.138
REMARK UNBOUND:                -0.152
REMARK  Name = 1550473
REMARK  2 active torsions:
REMARK  status: ('A' for Active; 'I' for Inactive)
REMARK    1  A    between atoms: N_1  and  C_4
REMARK    2  A    between atoms: C_4  and  C_5
REMARK                            x       y       z     vdW  Elec       q    Type
REMARK                         _______ _______ _______ _____ _____    ______ ____
ROOT
ATOM      1  N   UNL     1      14.154   9.744   3.631  0.00  0.00    -0.354 N 
ATOM      2  N   UNL     1      16.038   8.724   2.752  0.00  0.00    -0.372 N 
ATOM      3  N   UNL     1      15.646  10.934   2.272  0.00  0.00    -0.372 N 
ATOM      4  C   UNL     1      15.267   9.810   2.889  0.00  0.00    +0.166 C 
ATOM      5  H   UNL     1      13.905   8.854   4.049  0.00  0.00    +0.163 HD
ATOM      6  H   UNL     1      16.886   8.745   2.201  0.00  0.00    +0.159 HD
ATOM      7  H   UNL     1      15.812   7.849   3.208  0.00  0.00    +0.159 HD
ATOM      8  H   UNL     1      15.105  11.786   2.331  0.00  0.00    +0.159 HD
ATOM      9  H   UNL     1      16.486  10.971   1.707  0.00  0.00    +0.159 HD
ENDROOT
BRANCH   1  10
ATOM     10  C   UNL     1      13.274  10.883   3.888  0.00  0.00    +0.151 C 
BRANCH  10  11
ATOM     11  C   UNL     1      11.843  10.430   3.791  0.00  0.00    -0.028 A 
ATOM     12  C   UNL     1      11.501   9.312   3.016  0.00  0.00    +0.005 A 
ATOM     13  C   UNL     1      10.825  11.111   4.476  0.00  0.00    +0.005 A 
ATOM     14  C   UNL     1      10.177   8.873   2.949  0.00  0.00    +0.000 A 
ATOM     15  C   UNL     1       9.504  10.670   4.406  0.00  0.00    +0.000 A 
ATOM     16  C   UNL     1       9.180   9.550   3.645  0.00  0.00    +0.000 A 
ENDBRANCH  10  11
ENDBRANCH   1  10
TORSDOF 2
ENDMDL
MODEL 8
REMARK VINA RESULT:    -4.656      7.992      9.267
REMARK INTER + INTRA:          -5.352
REMARK INTER:                  -5.174
REMARK INTRA:                  -0.179
REMARK UNBOUND:                -0.152
REMARK  Name = 1550473
REMARK  2 active torsions:
REMARK  status: ('A' for Active; 'I' for Inactive)
REMARK    1  A    between atoms: N_1  and  C_4
REMARK    2  A    between atoms: C_4  and  C_5
REMARK                            x       y       z     vdW  Elec       q    Type
REMARK                         _______ _______ _______ _____ _____    ______ ____
ROOT
ATOM      1  N   UNL     1      14.603  12.125  13.905  0.00  0.00    -0.354 N 
ATOM      2  N   UNL     1      16.657  11.294  13.233  0.00  0.00    -0.372 N 
ATOM      3  N   UNL     1      15.844  13.187  12.224  0.00  0.00    -0.372 N 
ATOM      4  C   UNL     1      15.688  12.209  13.123  0.00  0.00    +0.166 C 
ATOM      5  H   UNL     1      14.531  11.343  14.545  0.00  0.00    +0.163 HD
ATOM      6  H   UNL     1      17.489  11.333  12.659  0.00  0.00    +0.159 HD
ATOM      7  H   UNL     1      16.604  10.539  13.906  0.00  0.00    +0.159 HD
ATOM      8  H   UNL     1      15.146  13.906  12.088  0.00  0.00    +0.159 HD
ATOM      9  H   UNL     1      16.664  13.237  11.632  0.00  0.00    +0.159 HD
ENDROOT
BRANCH   1  10
ATOM     10  C   UNL     1      13.515  13.102  13.902  0.00  0.00    +0.151 C 
BRANCH  10  11
ATOM     11  C   UNL     1      12.376  12.565  13.080  0.00  0.00    -0.028 A 
ATOM     12  C   UNL     1      11.504  11.604  13.612  0.00  0.00    +0.005 A 
ATOM     13  C   UNL     1      12.159  13.018  11.769  0.00  0.00    +0.005 A 
ATOM     14  C   UNL     1      10.428  11.127  12.860  0.00  0.00    +0.000 A 
ATOM     15  C   UNL     1      11.084  12.539  11.021  0.00  0.00    +0.000 A 
ATOM     16  C   UNL     1      10.217  11.596  11.567  0.00  0.00    +0.000 A 
ENDBRANCH  10  11
ENDBRANCH   1  10
TORSDOF 2
ENDMDL
MODEL 9
REMARK VINA RESULT:    -4.472     32.598     33.793
REMARK INTER + INTRA:          -5.147
REMARK INTER:                  -5.024
REMARK INTRA:                  -0.123
REMARK UNBOUND:                -0.152
REMARK  Name = 1550473
REMARK  2 active torsions:
REMARK  status: ('A' for Active; 'I' for Inactive)
REMARK    1  A    between atoms: N_1  and  C_4
REMARK    2  A    between atoms: C_4  and  C_5
REMARK                            x       y       z     vdW  Elec       q    Type
REMARK                         _______ _______ _______ _____ _____    ______ ____
ROOT
ATOM      1  N   UNL     1     -16.731   1.537 -14.256  0.00  0.00    -0.354 N 
ATOM      2  N   UNL     1     -18.457   2.526 -13.072  0.00  0.00    -0.372 N 
ATOM      3  N   UNL     1     -17.713   3.532 -14.995  0.00  0.00    -0.372 N 
ATOM      4  C   UNL     1     -17.622   2.527 -14.117  0.00  0.00    +0.166 C 
ATOM      5  H   UNL     1     -16.691   0.821 -13.540  0.00  0.00    +0.163 HD
ATOM      6  H   UNL     1     -19.143   3.258 -12.942  0.00  0.00    +0.159 HD
ATOM      7  H   UNL     1     -18.447   1.785 -12.382  0.00  0.00    +0.159 HD
ATOM      8  H   UNL     1     -17.108   3.594 -15.803  0.00  0.00    +0.159 HD
ATOM      9  H   UNL     1     -18.385   4.280 -14.877  0.00  0.00    +0.159 HD
ENDROOT
BRANCH   1  10
ATOM     10  C   UNL     1     -15.812   1.416 -15.387  0.00  0.00    +0.151 C 
BRANCH  10  11
ATOM     11  C   UNL     1     -14.513   0.832 -14.904  0.00  0.00    -0.028 A 
ATOM     12  C   UNL     1     -13.307   1.153 -15.544  0.00  0.00    +0.005 A 
ATOM     13  C   UNL     1     -14.480  -0.038 -13.804  0.00  0.00    +0.005 A 
ATOM     14  C   UNL     1     -12.096   0.635 -15.078  0.00  0.00    +0.000 A 
ATOM     15  C   UNL     1     -13.270  -0.554 -13.342  0.00  0.00    +0.000 A 
ATOM     16  C   UNL     1     -12.078  -0.215 -13.977  0.00  0.00    +0.000 A 
ENDBRANCH  10  11
ENDBRANCH   1  10
TORSDOF 2
ENDMDL
