MODEL 1
REMARK VINA RESULT:    -5.447      0.000      0.000
REMARK INTER + INTRA:          -6.222
REMARK INTER:                  -6.084
REMARK INTRA:                  -0.139
REMARK UNBOUND:                -0.139
REMARK  Name = 1550473
REMARK  2 active torsions:
REMARK  status: ('A' for Active; 'I' for Inactive)
REMARK    1  A    between atoms: N_1  and  C_4
REMARK    2  A    between atoms: C_4  and  C_5
REMARK                            x       y       z     vdW  Elec       q    Type
REMARK                         _______ _______ _______ _____ _____    ______ ____
ROOT
ATOM      1  N   UNL     1       5.300   3.825 -13.014  0.00  0.00    -0.354 N 
ATOM      2  N   UNL     1       3.271   4.828 -13.503  0.00  0.00    -0.372 N 
ATOM      3  N   UNL     1       3.440   2.544 -13.638  0.00  0.00    -0.372 N 
ATOM      4  C   UNL     1       4.016   3.723 -13.382  0.00  0.00    +0.166 C 
ATOM      5  H   UNL     1       5.686   4.750 -12.864  0.00  0.00    +0.163 HD
ATOM      6  H   UNL     1       2.299   4.782 -13.777  0.00  0.00    +0.159 HD
ATOM      7  H   UNL     1       3.647   5.748 -13.308  0.00  0.00    +0.159 HD
ATOM      8  H   UNL     1       3.950   1.673 -13.571  0.00  0.00    +0.159 HD
ATOM      9  H   UNL     1       2.471   2.478 -13.924  0.00  0.00    +0.159 HD
ENDROOT
BRANCH   1  10
ATOM     10  C   UNL     1       6.183   2.680 -12.801  0.00  0.00    +0.151 C 
BRANCH  10  11
ATOM     11  C   UNL     1       6.878   2.834 -11.476  0.00  0.00    -0.028 A 
ATOM     12  C   UNL     1       6.406   3.754 -10.528  0.00  0.00    +0.005 A 
ATOM     13  C   UNL     1       8.004   2.059 -11.160  0.00  0.00    +0.005 A 
ATOM     14  C   UNL     1       7.032   3.877  -9.285  0.00  0.00    +0.000 A 
ATOM     15  C   UNL     1       8.627   2.184  -9.918  0.00  0.00    +0.000 A 
ATOM     16  C   UNL     1       8.139   3.092  -8.980  0.00  0.00    +0.000 A 
ENDBRANCH  10  11
ENDBRANCH   1  10
TORSDOF 2
ENDMDL
MODEL 2
REMARK VINA RESULT:    -5.258     23.593     24.559
REMARK INTER + INTRA:          -6.012
REMARK INTER:                  -5.838
REMARK INTRA:                  -0.173
REMARK UNBOUND:                -0.139
REMARK  Name = 1550473
REMARK  2 active torsions:
REMARK  status: ('A' for Active; 'I' for Inactive)
REMARK    1  A    between atoms: N_1  and  C_4
REMARK    2  A    between atoms: C_4  and  C_5
REMARK                            x       y       z     vdW  Elec       q    Type
REMARK                         _______ _______ _______ _____ _____    ______ ____
ROOT
ATOM      1  N   UNL     1      -5.071 -16.587 -15.495  0.00  0.00    -0.354 N 
ATOM      2  N   UNL     1      -6.602 -14.859 -15.300  0.00  0.00    -0.372 N 
ATOM      3  N   UNL     1      -7.134 -16.670 -16.605  0.00  0.00    -0.372 N 
ATOM      4  C   UNL     1      -6.260 -16.052 -15.803  0.00  0.00    +0.166 C 
ATOM      5  H   UNL     1      -4.442 -16.053 -14.906  0.00  0.00    +0.163 HD
ATOM      6  H   UNL     1      -7.494 -14.432 -15.512  0.00  0.00    +0.159 HD
ATOM      7  H   UNL     1      -5.990 -14.349 -14.675  0.00  0.00    +0.159 HD
ATOM      8  H   UNL     1      -6.934 -17.570 -17.022  0.00  0.00    +0.159 HD
ATOM      9  H   UNL     1      -8.026 -16.254 -16.838  0.00  0.00    +0.159 HD
ENDROOT
BRANCH   1  10
ATOM     10  C   UNL     1      -4.625 -17.903 -15.947  0.00  0.00    +0.151 C 
BRANCH  10  11
ATOM     11  C   UNL     1      -4.643 -18.854 -14.782  0.00  0.00    -0.028 A 
ATOM     12  C   UNL     1      -3.481 -19.078 -14.029  0.00  0.00    +0.005 A 
ATOM     13  C   UNL     1      -5.819 -19.530 -14.423  0.00  0.00    +0.005 A 
ATOM     14  C   UNL     1      -3.504 -19.938 -12.928  0.00  0.00    +0.000 A 
ATOM     15  C   UNL     1      -5.838 -20.389 -13.324  0.00  0.00    +0.000 A 
ATOM     16  C   UNL     1      -4.681 -20.591 -12.575  0.00  0.00    +0.000 A 
ENDBRANCH  10  11
ENDBRANCH   1  10
TORSDOF 2
ENDMDL
MODEL 3
REMARK VINA RESULT:    -4.903      1.535      2.136
REMARK INTER + INTRA:          -5.615
REMARK INTER:                  -5.462
REMARK INTRA:                  -0.153
REMARK UNBOUND:                -0.139
REMARK  Name = 1550473
REMARK  2 active torsions:
REMARK  status: ('A' for Active; 'I' for Inactive)
REMARK    1  A    between atoms: N_1  and  C_4
REMARK    2  A    between atoms: C_4  and  C_5
REMARK                            x       y       z     vdW  Elec       q    Type
REMARK                         _______ _______ _______ _____ _____    ______ ____
ROOT
ATOM      1  N   UNL     1       6.796   2.354 -12.585  0.00  0.00    -0.354 N 
ATOM      2  N   UNL     1       4.606   1.787 -13.084  0.00  0.00    -0.372 N 
ATOM      3  N   UNL     1       5.252   3.982 -13.260  0.00  0.00    -0.372 N 
ATOM      4  C   UNL     1       5.565   2.715 -12.973  0.00  0.00    +0.166 C 
ATOM      5  H   UNL     1       6.962   1.381 -12.353  0.00  0.00    +0.163 HD
ATOM      6  H   UNL     1       3.670   2.029 -13.379  0.00  0.00    +0.159 HD
ATOM      7  H   UNL     1       4.787   0.809 -12.897  0.00  0.00    +0.159 HD
ATOM      8  H   UNL     1       5.929   4.731 -13.190  0.00  0.00    +0.159 HD
ATOM      9  H   UNL     1       4.317   4.246 -13.544  0.00  0.00    +0.159 HD
ENDROOT
BRANCH   1  10
ATOM     10  C   UNL     1       7.925   3.277 -12.483  0.00  0.00    +0.151 C 
BRANCH  10  11
ATOM     11  C   UNL     1       7.978   3.837 -11.089  0.00  0.00    -0.028 A 
ATOM     12  C   UNL     1       8.100   5.218 -10.880  0.00  0.00    +0.005 A 
ATOM     13  C   UNL     1       7.901   2.991  -9.971  0.00  0.00    +0.005 A 
ATOM     14  C   UNL     1       8.120   5.742  -9.585  0.00  0.00    +0.000 A 
ATOM     15  C   UNL     1       7.922   3.517  -8.680  0.00  0.00    +0.000 A 
ATOM     16  C   UNL     1       8.029   4.893  -8.487  0.00  0.00    +0.000 A 
ENDBRANCH  10  11
ENDBRANCH   1  10
TORSDOF 2
ENDMDL
MODEL 4
REMARK VINA RESULT:    -4.821     24.522     25.462
REMARK INTER + INTRA:          -5.523
REMARK INTER:                  -5.345
REMARK INTRA:                  -0.178
REMARK UNBOUND:                -0.139
REMARK  Name = 1550473
REMARK  2 active torsions:
REMARK  status: ('A' for Active; 'I' for Inactive)
REMARK    1  A    between atoms: N_1  and  C_4
REMARK    2  A    between atoms: C_4  and  C_5
REMARK                            x       y       z     vdW  Elec       q    Type
REMARK                         _______ _______ _______ _____ _____    ______ ____
ROOT
ATOM      1  N   UNL     1      -6.101 -18.082 -15.621  0.00  0.00    -0.354 N 
ATOM      2  N   UNL     1      -6.025 -15.768 -15.629  0.00  0.00    -0.372 N 
ATOM      3  N   UNL     1      -4.054 -16.942 -15.583  0.00  0.00    -0.372 N 
ATOM      4  C   UNL     1      -5.391 -16.946 -15.611  0.00  0.00    +0.166 C 
ATOM      5  H   UNL     1      -7.112 -18.018 -15.612  0.00  0.00    +0.163 HD
ATOM      6  H   UNL     1      -5.516 -14.894 -15.625  0.00  0.00    +0.159 HD
ATOM      7  H   UNL     1      -7.035 -15.707 -15.666  0.00  0.00    +0.159 HD
ATOM      8  H   UNL     1      -3.516 -17.797 -15.563  0.00  0.00    +0.159 HD
ATOM      9  H   UNL     1      -3.527 -16.077 -15.567  0.00  0.00    +0.159 HD
ENDROOT
BRANCH   1  10
ATOM     10  C   UNL     1      -5.506 -19.417 -15.658  0.00  0.00    +0.151 C 
BRANCH  10  11
ATOM     11  C   UNL     1      -5.537 -20.007 -14.274  0.00  0.00    -0.028 A 
ATOM     12  C   UNL     1      -4.417 -19.911 -13.435  0.00  0.00    +0.005 A 
ATOM     13  C   UNL     1      -6.685 -20.656 -13.795  0.00  0.00    +0.005 A 
ATOM     14  C   UNL     1      -4.456 -20.432 -12.139  0.00  0.00    +0.000 A 
ATOM     15  C   UNL     1      -6.719 -21.175 -12.501  0.00  0.00    +0.000 A 
ATOM     16  C   UNL     1      -5.605 -21.061 -11.672  0.00  0.00    +0.000 A 
ENDBRANCH  10  11
ENDBRANCH   1  10
TORSDOF 2
ENDMDL
MODEL 5
REMARK VINA RESULT:    -4.811     25.031     26.269
REMARK INTER + INTRA:          -5.512
REMARK INTER:                  -5.405
REMARK INTRA:                  -0.107
REMARK UNBOUND:                -0.139
REMARK  Name = 1550473
REMARK  2 active torsions:
REMARK  status: ('A' for Active; 'I' for Inactive)
REMARK    1  A    between atoms: N_1  and  C_4
REMARK    2  A    between atoms: C_4  and  C_5
REMARK                            x       y       z     vdW  Elec       q    Type
REMARK                         _______ _______ _______ _____ _____    ______ ____
ROOT
ATOM      1  N   UNL     1      -6.013 -17.891 -16.038  0.00  0.00    -0.354 N 
ATOM      2  N   UNL     1      -7.301 -16.044 -15.496  0.00  0.00    -0.372 N 
ATOM      3  N   UNL     1      -5.311 -15.725 -16.594  0.00  0.00    -0.372 N 
ATOM      4  C   UNL     1      -6.198 -16.564 -16.047  0.00  0.00    +0.166 C 
ATOM      5  H   UNL     1      -6.708 -18.470 -15.582  0.00  0.00    +0.163 HD
ATOM      6  H   UNL     1      -7.469 -15.047 -15.491  0.00  0.00    +0.159 HD
ATOM      7  H   UNL     1      -8.016 -16.629 -15.081  0.00  0.00    +0.159 HD
ATOM      8  H   UNL     1      -4.456 -16.053 -17.021  0.00  0.00    +0.159 HD
ATOM      9  H   UNL     1      -5.457 -14.723 -16.588  0.00  0.00    +0.159 HD
ENDROOT
BRANCH   1  10
ATOM     10  C   UNL     1      -4.872 -18.562 -16.659  0.00  0.00    +0.151 C 
BRANCH  10  11
ATOM     11  C   UNL     1      -5.344 -19.833 -17.310  0.00  0.00    -0.028 A 
ATOM     12  C   UNL     1      -5.895 -20.866 -16.538  0.00  0.00    +0.005 A 
ATOM     13  C   UNL     1      -5.249 -20.008 -18.699  0.00  0.00    +0.005 A 
ATOM     14  C   UNL     1      -6.361 -22.034 -17.145  0.00  0.00    +0.000 A 
ATOM     15  C   UNL     1      -5.715 -21.176 -19.301  0.00  0.00    +0.000 A 
ATOM     16  C   UNL     1      -6.273 -22.188 -18.524  0.00  0.00    +0.000 A 
ENDBRANCH  10  11
ENDBRANCH   1  10
TORSDOF 2
ENDMDL
MODEL 6
REMARK VINA RESULT:    -4.699      1.866      2.695
REMARK INTER + INTRA:          -5.387
REMARK INTER:                  -5.271
REMARK INTRA:                  -0.116
REMARK UNBOUND:                -0.139
REMARK  Name = 1550473
REMARK  2 active torsions:
REMARK  status: ('A' for Active; 'I' for Inactive)
REMARK    1  A    between atoms: N_1  and  C_4
REMARK    2  A    between atoms: C_4  and  C_5
REMARK                            x       y       z     vdW  Elec       q    Type
REMARK                         _______ _______ _______ _____ _____    ______ ____
ROOT
ATOM      1  N   UNL     1       5.897   2.289 -12.445  0.00  0.00    -0.354 N 
ATOM      2  N   UNL     1       4.358   2.168 -14.171  0.00  0.00    -0.372 N 
ATOM      3  N   UNL     1       4.115   3.804 -12.581  0.00  0.00    -0.372 N 
ATOM      4  C   UNL     1       4.799   2.756 -13.053  0.00  0.00    +0.166 C 
ATOM      5  H   UNL     1       6.353   1.472 -12.836  0.00  0.00    +0.163 HD
ATOM      6  H   UNL     1       3.534   2.501 -14.653  0.00  0.00    +0.159 HD
ATOM      7  H   UNL     1       4.842   1.380 -14.585  0.00  0.00    +0.159 HD
ATOM      8  H   UNL     1       4.393   4.289 -11.738  0.00  0.00    +0.159 HD
ATOM      9  H   UNL     1       3.282   4.145 -13.043  0.00  0.00    +0.159 HD
ENDROOT
BRANCH   1  10
ATOM     10  C   UNL     1       6.491   2.891 -11.252  0.00  0.00    +0.151 C 
BRANCH  10  11
ATOM     11  C   UNL     1       7.977   3.014 -11.452  0.00  0.00    -0.028 A 
ATOM     12  C   UNL     1       8.816   1.907 -11.258  0.00  0.00    +0.005 A 
ATOM     13  C   UNL     1       8.551   4.234 -11.842  0.00  0.00    +0.005 A 
ATOM     14  C   UNL     1      10.192   2.013 -11.472  0.00  0.00    +0.000 A 
ATOM     15  C   UNL     1       9.925   4.336 -12.054  0.00  0.00    +0.000 A 
ATOM     16  C   UNL     1      10.745   3.225 -11.872  0.00  0.00    +0.000 A 
ENDBRANCH  10  11
ENDBRANCH   1  10
TORSDOF 2
ENDMDL
MODEL 7
REMARK VINA RESULT:    -4.666     10.172     11.544
REMARK INTER + INTRA:          -5.350
REMARK INTER:                  -5.209
REMARK INTRA:                  -0.141
REMARK UNBOUND:                -0.139
REMARK  Name = 1550473
REMARK  2 active torsions:
REMARK  status: ('A' for Active; 'I' for Inactive)
REMARK    1  A    between atoms: N_1  and  C_4
REMARK    2  A    between atoms: C_4  and  C_5
REMARK                            x       y       z     vdW  Elec       q    Type
REMARK                         _______ _______ _______ _____ _____    ______ ____
ROOT
ATOM      1  N   UNL     1      10.320  -4.766 -15.314  0.00  0.00    -0.354 N 
ATOM      2  N   UNL     1      10.901  -5.595 -13.231  0.00  0.00    -0.372 N 
ATOM      3  N   UNL     1       8.850  -4.602 -13.496  0.00  0.00    -0.372 N 
ATOM      4  C   UNL     1      10.018  -4.981 -14.027  0.00  0.00    +0.166 C 
ATOM      5  H   UNL     1      11.234  -5.051 -15.648  0.00  0.00    +0.163 HD
ATOM      6  H   UNL     1      10.700  -5.775 -12.256  0.00  0.00    +0.159 HD
ATOM      7  H   UNL     1      11.796  -5.920 -13.578  0.00  0.00    +0.159 HD
ATOM      8  H   UNL     1       8.142  -4.129 -14.042  0.00  0.00    +0.159 HD
ATOM      9  H   UNL     1       8.635  -4.762 -12.520  0.00  0.00    +0.159 HD
ENDROOT
BRANCH   1  10
ATOM     10  C   UNL     1       9.407  -4.154 -16.277  0.00  0.00    +0.151 C 
BRANCH  10  11
ATOM     11  C   UNL     1       9.373  -4.994 -17.524  0.00  0.00    -0.028 A 
ATOM     12  C   UNL     1       8.428  -4.739 -18.529  0.00  0.00    +0.005 A 
ATOM     13  C   UNL     1      10.286  -6.044 -17.709  0.00  0.00    +0.005 A 
ATOM     14  C   UNL     1       8.416  -5.500 -19.701  0.00  0.00    +0.000 A 
ATOM     15  C   UNL     1      10.270  -6.801 -18.880  0.00  0.00    +0.000 A 
ATOM     16  C   UNL     1       9.336  -6.528 -19.877  0.00  0.00    +0.000 A 
ENDBRANCH  10  11
ENDBRANCH   1  10
TORSDOF 2
ENDMDL
MODEL 8
REMARK VINA RESULT:    -4.632     26.487     28.090
REMARK INTER + INTRA:          -5.312
REMARK INTER:                  -5.287
REMARK INTRA:                  -0.025
REMARK UNBOUND:                -0.139
REMARK  Name = 1550473
REMARK  2 active torsions:
REMARK  status: ('A' for Active; 'I' for Inactive)
REMARK    1  A    between atoms: N_1  and  C_4
REMARK    2  A    between atoms: C_4  and  C_5
REMARK                            x       y       z     vdW  Elec       q    Type
REMARK                         _______ _______ _______ _____ _____    ______ ____
ROOT
ATOM      1  N   UNL     1      12.570  10.440  15.567  0.00  0.00    -0.354 N 
ATOM      2  N   UNL     1      11.426   9.342  17.255  0.00  0.00    -0.372 N 
ATOM      3  N   UNL     1      13.714   9.475  17.370  0.00  0.00    -0.372 N 
ATOM      4  C   UNL     1      12.580   9.759  16.721  0.00  0.00    +0.166 C 
ATOM      5  H   UNL     1      11.679  10.597  15.109  0.00  0.00    +0.163 HD
ATOM      6  H   UNL     1      11.402   8.829  18.126  0.00  0.00    +0.159 HD
ATOM      7  H   UNL     1      10.534   9.540  16.818  0.00  0.00    +0.159 HD
ATOM      8  H   UNL     1      14.618   9.756  17.016  0.00  0.00    +0.159 HD
ATOM      9  H   UNL     1      13.711   8.952  18.237  0.00  0.00    +0.159 HD
ENDROOT
BRANCH   1  10
ATOM     10  C   UNL     1      13.766  10.985  14.929  0.00  0.00    +0.151 C 
BRANCH  10  11
ATOM     11  C   UNL     1      14.135  10.119  13.756  0.00  0.00    -0.028 A 
ATOM     12  C   UNL     1      14.922  10.630  12.713  0.00  0.00    +0.005 A 
ATOM     13  C   UNL     1      13.707   8.785  13.685  0.00  0.00    +0.005 A 
ATOM     14  C   UNL     1      15.290   9.817  11.638  0.00  0.00    +0.000 A 
ATOM     15  C   UNL     1      14.076   7.977  12.609  0.00  0.00    +0.000 A 
ATOM     16  C   UNL     1      14.869   8.493  11.588  0.00  0.00    +0.000 A 
ENDBRANCH  10  11
ENDBRANCH   1  10
TORSDOF 2
ENDMDL
MODEL 9
REMARK VINA RESULT:    -4.484     25.227     27.049
REMARK INTER + INTRA:          -5.148
REMARK INTER:                  -5.015
REMARK INTRA:                  -0.132
REMARK UNBOUND:                -0.139
REMARK  Name = 1550473
REMARK  2 active torsions:
REMARK  status: ('A' for Active; 'I' for Inactive)
REMARK    1  A    between atoms: N_1  and  C_4
REMARK    2  A    between atoms: C_4  and  C_5
REMARK                            x       y       z     vdW  Elec       q    Type
REMARK                         _______ _______ _______ _____ _____    ______ ____
ROOT
ATOM      1  N   UNL     1      14.366   8.038  11.886  0.00  0.00    -0.354 N 
ATOM      2  N   UNL     1      14.907   8.391   9.662  0.00  0.00    -0.372 N 
ATOM      3  N   UNL     1      16.500   7.522  11.067  0.00  0.00    -0.372 N 
ATOM      4  C   UNL     1      15.257   7.981  10.887  0.00  0.00    +0.166 C 
ATOM      5  H   UNL     1      13.449   8.424  11.692  0.00  0.00    +0.163 HD
ATOM      6  H   UNL     1      15.557   8.356   8.888  0.00  0.00    +0.159 HD
ATOM      7  H   UNL     1      13.976   8.733   9.460  0.00  0.00    +0.159 HD
ATOM      8  H   UNL     1      16.828   7.203  11.969  0.00  0.00    +0.159 HD
ATOM      9  H   UNL     1      17.168   7.491  10.307  0.00  0.00    +0.159 HD
ENDROOT
BRANCH   1  10
ATOM     10  C   UNL     1      14.629   7.567  13.244  0.00  0.00    +0.151 C 
BRANCH  10  11
ATOM     11  C   UNL     1      14.001   8.518  14.225  0.00  0.00    -0.028 A 
ATOM     12  C   UNL     1      13.006   9.415  13.809  0.00  0.00    +0.005 A 
ATOM     13  C   UNL     1      14.392   8.524  15.573  0.00  0.00    +0.005 A 
ATOM     14  C   UNL     1      12.400  10.278  14.726  0.00  0.00    +0.000 A 
ATOM     15  C   UNL     1      13.786   9.388  16.485  0.00  0.00    +0.000 A 
ATOM     16  C   UNL     1      12.788  10.263  16.061  0.00  0.00    +0.000 A 
ENDBRANCH  10  11
ENDBRANCH   1  10
TORSDOF 2
ENDMDL
