MODEL 1
REMARK VINA RESULT:    -5.440      0.000      0.000
REMARK INTER + INTRA:          -6.240
REMARK INTER:                  -6.076
REMARK INTRA:                  -0.164
REMARK UNBOUND:                -0.164
REMARK  Name = 1550473
REMARK  2 active torsions:
REMARK  status: ('A' for Active; 'I' for Inactive)
REMARK    1  A    between atoms: N_1  and  C_4
REMARK    2  A    between atoms: C_4  and  C_5
REMARK                            x       y       z     vdW  Elec       q    Type
REMARK                         _______ _______ _______ _____ _____    ______ ____
ROOT
ATOM      1  N   UNL     1       7.877   3.028   9.965  0.00  0.00    -0.354 N 
ATOM      2  N   UNL     1       9.209   2.418   8.171  0.00  0.00    -0.372 N 
ATOM      3  N   UNL     1       7.054   3.098   7.772  0.00  0.00    -0.372 N 
ATOM      4  C   UNL     1       8.036   2.853   8.646  0.00  0.00    +0.166 C 
ATOM      5  H   UNL     1       8.650   2.796  10.578  0.00  0.00    +0.163 HD
ATOM      6  H   UNL     1       9.360   2.280   7.181  0.00  0.00    +0.159 HD
ATOM      7  H   UNL     1       9.995   2.231   8.782  0.00  0.00    +0.159 HD
ATOM      8  H   UNL     1       6.143   3.422   8.066  0.00  0.00    +0.159 HD
ATOM      9  H   UNL     1       7.182   2.954   6.778  0.00  0.00    +0.159 HD
ENDROOT
BRANCH   1  10
ATOM     10  C   UNL     1       6.657   3.548  10.579  0.00  0.00    +0.151 C 
BRANCH  10  11
ATOM     11  C   UNL     1       5.957   2.431  11.304  0.00  0.00    -0.028 A 
ATOM     12  C   UNL     1       6.606   1.735  12.334  0.00  0.00    +0.005 A 
ATOM     13  C   UNL     1       4.644   2.069  10.969  0.00  0.00    +0.005 A 
ATOM     14  C   UNL     1       5.946   0.717  13.027  0.00  0.00    +0.000 A 
ATOM     15  C   UNL     1       3.988   1.052  11.663  0.00  0.00    +0.000 A 
ATOM     16  C   UNL     1       4.639   0.378  12.694  0.00  0.00    +0.000 A 
ENDBRANCH  10  11
ENDBRANCH   1  10
TORSDOF 2
ENDMDL
MODEL 2
REMARK VINA RESULT:    -5.402      2.453      3.147
REMARK INTER + INTRA:          -6.197
REMARK INTER:                  -6.056
REMARK INTRA:                  -0.141
REMARK UNBOUND:                -0.164
REMARK  Name = 1550473
REMARK  2 active torsions:
REMARK  status: ('A' for Active; 'I' for Inactive)
REMARK    1  A    between atoms: N_1  and  C_4
REMARK    2  A    between atoms: C_4  and  C_5
REMARK                            x       y       z     vdW  Elec       q    Type
REMARK                         _______ _______ _______ _____ _____    ______ ____
ROOT
ATOM      1  N   UNL     1       4.383   4.315   9.122  0.00  0.00    -0.354 N 
ATOM      2  N   UNL     1       4.970   5.531   7.240  0.00  0.00    -0.372 N 
ATOM      3  N   UNL     1       3.602   3.705   6.998  0.00  0.00    -0.372 N 
ATOM      4  C   UNL     1       4.313   4.507   7.798  0.00  0.00    +0.166 C 
ATOM      5  H   UNL     1       4.963   4.940   9.669  0.00  0.00    +0.163 HD
ATOM      6  H   UNL     1       4.934   5.704   6.245  0.00  0.00    +0.159 HD
ATOM      7  H   UNL     1       5.513   6.182   7.796  0.00  0.00    +0.159 HD
ATOM      8  H   UNL     1       3.089   2.911   7.355  0.00  0.00    +0.159 HD
ATOM      9  H   UNL     1       3.563   3.855   5.997  0.00  0.00    +0.159 HD
ENDROOT
BRANCH   1  10
ATOM     10  C   UNL     1       3.662   3.261   9.834  0.00  0.00    +0.151 C 
BRANCH  10  11
ATOM     11  C   UNL     1       4.607   2.571  10.778  0.00  0.00    -0.028 A 
ATOM     12  C   UNL     1       4.197   1.436  11.492  0.00  0.00    +0.005 A 
ATOM     13  C   UNL     1       5.916   3.045  10.959  0.00  0.00    +0.005 A 
ATOM     14  C   UNL     1       5.085   0.777  12.347  0.00  0.00    +0.000 A 
ATOM     15  C   UNL     1       6.798   2.384  11.814  0.00  0.00    +0.000 A 
ATOM     16  C   UNL     1       6.383   1.249  12.506  0.00  0.00    +0.000 A 
ENDBRANCH  10  11
ENDBRANCH   1  10
TORSDOF 2
ENDMDL
MODEL 3
REMARK VINA RESULT:    -5.046     22.509     23.837
REMARK INTER + INTRA:          -5.800
REMARK INTER:                  -5.666
REMARK INTRA:                  -0.133
REMARK UNBOUND:                -0.164
REMARK  Name = 1550473
REMARK  2 active torsions:
REMARK  status: ('A' for Active; 'I' for Inactive)
REMARK    1  A    between atoms: N_1  and  C_4
REMARK    2  A    between atoms: C_4  and  C_5
REMARK                            x       y       z     vdW  Elec       q    Type
REMARK                         _______ _______ _______ _____ _____    ______ ____
ROOT
ATOM      1  N   UNL     1     -12.784  -1.192  -4.668  0.00  0.00    -0.354 N 
ATOM      2  N   UNL     1     -13.531  -1.343  -6.855  0.00  0.00    -0.372 N 
ATOM      3  N   UNL     1     -15.036  -1.630  -5.147  0.00  0.00    -0.372 N 
ATOM      4  C   UNL     1     -13.781  -1.388  -5.541  0.00  0.00    +0.166 C 
ATOM      5  H   UNL     1     -11.849  -1.043  -5.030  0.00  0.00    +0.163 HD
ATOM      6  H   UNL     1     -14.264  -1.483  -7.537  0.00  0.00    +0.159 HD
ATOM      7  H   UNL     1     -12.604  -1.148  -7.214  0.00  0.00    +0.159 HD
ATOM      8  H   UNL     1     -15.289  -1.682  -4.169  0.00  0.00    +0.159 HD
ATOM      9  H   UNL     1     -15.780  -1.785  -5.814  0.00  0.00    +0.159 HD
ENDROOT
BRANCH   1  10
ATOM     10  C   UNL     1     -12.960  -1.167  -3.217  0.00  0.00    +0.151 C 
BRANCH  10  11
ATOM     11  C   UNL     1     -11.889  -2.007  -2.577  0.00  0.00    -0.028 A 
ATOM     12  C   UNL     1     -10.646  -2.174  -3.204  0.00  0.00    +0.005 A 
ATOM     13  C   UNL     1     -12.110  -2.635  -1.342  0.00  0.00    +0.005 A 
ATOM     14  C   UNL     1      -9.640  -2.929  -2.596  0.00  0.00    +0.000 A 
ATOM     15  C   UNL     1     -11.103  -3.389  -0.739  0.00  0.00    +0.000 A 
ATOM     16  C   UNL     1      -9.868  -3.534  -1.365  0.00  0.00    +0.000 A 
ENDBRANCH  10  11
ENDBRANCH   1  10
TORSDOF 2
ENDMDL
MODEL 4
REMARK VINA RESULT:    -4.925     21.246     22.585
REMARK INTER + INTRA:          -5.665
REMARK INTER:                  -5.526
REMARK INTRA:                  -0.139
REMARK UNBOUND:                -0.164
REMARK  Name = 1550473
REMARK  2 active torsions:
REMARK  status: ('A' for Active; 'I' for Inactive)
REMARK    1  A    between atoms: N_1  and  C_4
REMARK    2  A    between atoms: C_4  and  C_5
REMARK                            x       y       z     vdW  Elec       q    Type
REMARK                         _______ _______ _______ _____ _____    ______ ____
ROOT
ATOM      1  N   UNL     1      -8.977  -4.146  -1.962  0.00  0.00    -0.354 N 
ATOM      2  N   UNL     1      -7.755  -6.087  -1.638  0.00  0.00    -0.372 N 
ATOM      3  N   UNL     1      -9.462  -5.595  -0.185  0.00  0.00    -0.372 N 
ATOM      4  C   UNL     1      -8.741  -5.263  -1.262  0.00  0.00    +0.166 C 
ATOM      5  H   UNL     1      -8.376  -3.936  -2.750  0.00  0.00    +0.163 HD
ATOM      6  H   UNL     1      -7.556  -6.939  -1.131  0.00  0.00    +0.159 HD
ATOM      7  H   UNL     1      -7.185  -5.897  -2.453  0.00  0.00    +0.159 HD
ATOM      8  H   UNL     1     -10.217  -5.013   0.154  0.00  0.00    +0.159 HD
ATOM      9  H   UNL     1      -9.271  -6.438   0.342  0.00  0.00    +0.159 HD
ENDROOT
BRANCH   1  10
ATOM     10  C   UNL     1     -10.061  -3.210  -1.668  0.00  0.00    +0.151 C 
BRANCH  10  11
ATOM     11  C   UNL     1     -10.724  -2.805  -2.956  0.00  0.00    -0.028 A 
ATOM     12  C   UNL     1     -11.585  -1.699  -2.996  0.00  0.00    +0.005 A 
ATOM     13  C   UNL     1     -10.489  -3.520  -4.141  0.00  0.00    +0.005 A 
ATOM     14  C   UNL     1     -12.177  -1.305  -4.199  0.00  0.00    +0.000 A 
ATOM     15  C   UNL     1     -11.083  -3.123  -5.339  0.00  0.00    +0.000 A 
ATOM     16  C   UNL     1     -11.925  -2.014  -5.368  0.00  0.00    +0.000 A 
ENDBRANCH  10  11
ENDBRANCH   1  10
TORSDOF 2
ENDMDL
MODEL 5
REMARK VINA RESULT:    -4.876     32.490     33.577
REMARK INTER + INTRA:          -5.610
REMARK INTER:                  -5.505
REMARK INTRA:                  -0.105
REMARK UNBOUND:                -0.164
REMARK  Name = 1550473
REMARK  2 active torsions:
REMARK  status: ('A' for Active; 'I' for Inactive)
REMARK    1  A    between atoms: N_1  and  C_4
REMARK    2  A    between atoms: C_4  and  C_5
REMARK                            x       y       z     vdW  Elec       q    Type
REMARK                         _______ _______ _______ _____ _____    ______ ____
ROOT
ATOM      1  N   UNL     1     -12.098 -12.079 -13.504  0.00  0.00    -0.354 N 
ATOM      2  N   UNL     1     -12.926 -13.493 -11.868  0.00  0.00    -0.372 N 
ATOM      3  N   UNL     1     -13.898 -13.512 -13.946  0.00  0.00    -0.372 N 
ATOM      4  C   UNL     1     -12.970 -13.019 -13.119  0.00  0.00    +0.166 C 
ATOM      5  H   UNL     1     -11.438 -11.725 -12.820  0.00  0.00    +0.163 HD
ATOM      6  H   UNL     1     -13.569 -14.205 -11.549  0.00  0.00    +0.159 HD
ATOM      7  H   UNL     1     -12.236 -13.170 -11.200  0.00  0.00    +0.159 HD
ATOM      8  H   UNL     1     -13.988 -13.193 -14.901  0.00  0.00    +0.159 HD
ATOM      9  H   UNL     1     -14.558 -14.217 -13.642  0.00  0.00    +0.159 HD
ENDROOT
BRANCH   1  10
ATOM     10  C   UNL     1     -12.027 -11.535 -14.859  0.00  0.00    +0.151 C 
BRANCH  10  11
ATOM     11  C   UNL     1     -10.990 -10.447 -14.898  0.00  0.00    -0.028 A 
ATOM     12  C   UNL     1      -9.971 -10.468 -15.862  0.00  0.00    +0.005 A 
ATOM     13  C   UNL     1     -11.024  -9.388 -13.978  0.00  0.00    +0.005 A 
ATOM     14  C   UNL     1      -9.025  -9.441 -15.917  0.00  0.00    +0.000 A 
ATOM     15  C   UNL     1     -10.077  -8.365 -14.036  0.00  0.00    +0.000 A 
ATOM     16  C   UNL     1      -9.080  -8.391 -15.007  0.00  0.00    +0.000 A 
ENDBRANCH  10  11
ENDBRANCH   1  10
TORSDOF 2
ENDMDL
MODEL 6
REMARK VINA RESULT:    -4.790      2.296      3.246
REMARK INTER + INTRA:          -5.514
REMARK INTER:                  -5.353
REMARK INTRA:                  -0.161
REMARK UNBOUND:                -0.164
REMARK  Name = 1550473
REMARK  2 active torsions:
REMARK  status: ('A' for Active; 'I' for Inactive)
REMARK    1  A    between atoms: N_1  and  C_4
REMARK    2  A    between atoms: C_4  and  C_5
REMARK                            x       y       z     vdW  Elec       q    Type
REMARK                         _______ _______ _______ _____ _____    ______ ____
ROOT
ATOM      1  N   UNL     1       8.265   3.197  10.416  0.00  0.00    -0.354 N 
ATOM      2  N   UNL     1       9.655   2.733   8.622  0.00  0.00    -0.372 N 
ATOM      3  N   UNL     1       9.625   4.861   9.480  0.00  0.00    -0.372 N 
ATOM      4  C   UNL     1       9.173   3.603   9.518  0.00  0.00    +0.166 C 
ATOM      5  H   UNL     1       7.941   2.238  10.373  0.00  0.00    +0.163 HD
ATOM      6  H   UNL     1      10.343   3.009   7.934  0.00  0.00    +0.159 HD
ATOM      7  H   UNL     1       9.363   1.763   8.611  0.00  0.00    +0.159 HD
ATOM      8  H   UNL     1       9.297   5.567  10.124  0.00  0.00    +0.159 HD
ATOM      9  H   UNL     1      10.305   5.159   8.791  0.00  0.00    +0.159 HD
ENDROOT
BRANCH   1  10
ATOM     10  C   UNL     1       7.717   4.052  11.468  0.00  0.00    +0.151 C 
BRANCH  10  11
ATOM     11  C   UNL     1       6.293   4.395  11.129  0.00  0.00    -0.028 A 
ATOM     12  C   UNL     1       5.400   3.397  10.712  0.00  0.00    +0.005 A 
ATOM     13  C   UNL     1       5.828   5.715  11.231  0.00  0.00    +0.005 A 
ATOM     14  C   UNL     1       4.069   3.710  10.426  0.00  0.00    +0.000 A 
ATOM     15  C   UNL     1       4.498   6.024  10.944  0.00  0.00    +0.000 A 
ATOM     16  C   UNL     1       3.619   5.021  10.544  0.00  0.00    +0.000 A 
ENDBRANCH  10  11
ENDBRANCH   1  10
TORSDOF 2
ENDMDL
MODEL 7
REMARK VINA RESULT:    -4.663     24.810     26.122
REMARK INTER + INTRA:          -5.372
REMARK INTER:                  -5.264
REMARK INTRA:                  -0.108
REMARK UNBOUND:                -0.164
REMARK  Name = 1550473
REMARK  2 active torsions:
REMARK  status: ('A' for Active; 'I' for Inactive)
REMARK    1  A    between atoms: N_1  and  C_4
REMARK    2  A    between atoms: C_4  and  C_5
REMARK                            x       y       z     vdW  Elec       q    Type
REMARK                         _______ _______ _______ _____ _____    ______ ____
ROOT
ATOM      1  N   UNL     1     -15.072  -1.268  -5.695  0.00  0.00    -0.354 N 
ATOM      2  N   UNL     1     -17.331  -0.798  -5.494  0.00  0.00    -0.372 N 
ATOM      3  N   UNL     1     -16.241  -0.202  -7.424  0.00  0.00    -0.372 N 
ATOM      4  C   UNL     1     -16.199  -0.758  -6.208  0.00  0.00    +0.166 C 
ATOM      5  H   UNL     1     -15.099  -1.649  -4.756  0.00  0.00    +0.163 HD
ATOM      6  H   UNL     1     -18.197  -0.424  -5.856  0.00  0.00    +0.159 HD
ATOM      7  H   UNL     1     -17.365  -1.220  -4.574  0.00  0.00    +0.159 HD
ATOM      8  H   UNL     1     -15.420  -0.136  -8.011  0.00  0.00    +0.159 HD
ATOM      9  H   UNL     1     -17.097   0.188  -7.799  0.00  0.00    +0.159 HD
ENDROOT
BRANCH   1  10
ATOM     10  C   UNL     1     -13.799  -1.323  -6.412  0.00  0.00    +0.151 C 
BRANCH  10  11
ATOM     11  C   UNL     1     -12.717  -1.752  -5.459  0.00  0.00    -0.028 A 
ATOM     12  C   UNL     1     -12.538  -1.085  -4.238  0.00  0.00    +0.005 A 
ATOM     13  C   UNL     1     -11.871  -2.828  -5.770  0.00  0.00    +0.005 A 
ATOM     14  C   UNL     1     -11.552  -1.503  -3.340  0.00  0.00    +0.000 A 
ATOM     15  C   UNL     1     -10.888  -3.241  -4.871  0.00  0.00    +0.000 A 
ATOM     16  C   UNL     1     -10.731  -2.580  -3.655  0.00  0.00    +0.000 A 
ENDBRANCH  10  11
ENDBRANCH   1  10
TORSDOF 2
ENDMDL
MODEL 8
REMARK VINA RESULT:    -4.661     12.923     14.191
REMARK INTER + INTRA:          -5.370
REMARK INTER:                  -5.239
REMARK INTRA:                  -0.131
REMARK UNBOUND:                -0.164
REMARK  Name = 1550473
REMARK  2 active torsions:
REMARK  status: ('A' for Active; 'I' for Inactive)
REMARK    1  A    between atoms: N_1  and  C_4
REMARK    2  A    between atoms: C_4  and  C_5
REMARK                            x       y       z     vdW  Elec       q    Type
REMARK                         _______ _______ _______ _____ _____    ______ ____
ROOT
ATOM      1  N   UNL     1       5.019  15.240  18.056  0.00  0.00    -0.354 N 
ATOM      2  N   UNL     1       3.031  15.763  19.123  0.00  0.00    -0.372 N 
ATOM      3  N   UNL     1       4.759  14.899  20.360  0.00  0.00    -0.372 N 
ATOM      4  C   UNL     1       4.284  15.296  19.175  0.00  0.00    +0.166 C 
ATOM      5  H   UNL     1       4.591  15.528  17.184  0.00  0.00    +0.163 HD
ATOM      6  H   UNL     1       2.454  15.820  19.951  0.00  0.00    +0.159 HD
ATOM      7  H   UNL     1       2.621  16.093  18.258  0.00  0.00    +0.159 HD
ATOM      8  H   UNL     1       5.695  14.531  20.466  0.00  0.00    +0.159 HD
ATOM      9  H   UNL     1       4.193  14.938  21.198  0.00  0.00    +0.159 HD
ENDROOT
BRANCH   1  10
ATOM     10  C   UNL     1       6.412  14.799  18.014  0.00  0.00    +0.151 C 
BRANCH  10  11
ATOM     11  C   UNL     1       6.534  13.648  17.054  0.00  0.00    -0.028 A 
ATOM     12  C   UNL     1       5.475  12.743  16.889  0.00  0.00    +0.005 A 
ATOM     13  C   UNL     1       7.704  13.459  16.302  0.00  0.00    +0.005 A 
ATOM     14  C   UNL     1       5.576  11.691  15.976  0.00  0.00    +0.000 A 
ATOM     15  C   UNL     1       7.801  12.407  15.392  0.00  0.00    +0.000 A 
ATOM     16  C   UNL     1       6.736  11.525  15.227  0.00  0.00    +0.000 A 
ENDBRANCH  10  11
ENDBRANCH   1  10
TORSDOF 2
ENDMDL
MODEL 9
REMARK VINA RESULT:    -4.557     22.484     23.811
REMARK INTER + INTRA:          -5.254
REMARK INTER:                  -5.137
REMARK INTRA:                  -0.117
REMARK UNBOUND:                -0.164
REMARK  Name = 1550473
REMARK  2 active torsions:
REMARK  status: ('A' for Active; 'I' for Inactive)
REMARK    1  A    between atoms: N_1  and  C_4
REMARK    2  A    between atoms: C_4  and  C_5
REMARK                            x       y       z     vdW  Elec       q    Type
REMARK                         _______ _______ _______ _____ _____    ______ ____
ROOT
ATOM      1  N   UNL     1     -12.764  -2.361  -4.835  0.00  0.00    -0.354 N 
ATOM      2  N   UNL     1     -14.539  -1.117  -5.650  0.00  0.00    -0.372 N 
ATOM      3  N   UNL     1     -12.769  -1.565  -7.039  0.00  0.00    -0.372 N 
ATOM      4  C   UNL     1     -13.344  -1.689  -5.838  0.00  0.00    +0.166 C 
ATOM      5  H   UNL     1     -13.237  -2.392  -3.939  0.00  0.00    +0.163 HD
ATOM      6  H   UNL     1     -15.003  -0.607  -6.389  0.00  0.00    +0.159 HD
ATOM      7  H   UNL     1     -15.031  -1.189  -4.768  0.00  0.00    +0.159 HD
ATOM      8  H   UNL     1     -11.865  -1.969  -7.244  0.00  0.00    +0.159 HD
ATOM      9  H   UNL     1     -13.212  -1.048  -7.788  0.00  0.00    +0.159 HD
ENDROOT
BRANCH   1  10
ATOM     10  C   UNL     1     -11.488  -3.065  -4.953  0.00  0.00    +0.151 C 
BRANCH  10  11
ATOM     11  C   UNL     1     -10.897  -3.243  -3.581  0.00  0.00    -0.028 A 
ATOM     12  C   UNL     1     -11.728  -3.396  -2.462  0.00  0.00    +0.005 A 
ATOM     13  C   UNL     1      -9.506  -3.265  -3.396  0.00  0.00    +0.005 A 
ATOM     14  C   UNL     1     -11.179  -3.591  -1.192  0.00  0.00    +0.000 A 
ATOM     15  C   UNL     1      -8.962  -3.460  -2.126  0.00  0.00    +0.000 A 
ATOM     16  C   UNL     1      -9.799  -3.625  -1.025  0.00  0.00    +0.000 A 
ENDBRANCH  10  11
ENDBRANCH   1  10
TORSDOF 2
ENDMDL
