MODEL 1
REMARK VINA RESULT:    -5.608      0.000      0.000
REMARK INTER + INTRA:          -6.360
REMARK INTER:                  -6.264
REMARK INTRA:                  -0.096
REMARK UNBOUND:                -0.096
REMARK  Name = 1550473
REMARK  2 active torsions:
REMARK  status: ('A' for Active; 'I' for Inactive)
REMARK    1  A    between atoms: N_1  and  C_4
REMARK    2  A    between atoms: C_4  and  C_5
REMARK                            x       y       z     vdW  Elec       q    Type
REMARK                         _______ _______ _______ _____ _____    ______ ____
ROOT
ATOM      1  N   UNL     1      -1.929  -6.717   0.431  0.00  0.00    -0.354 N 
ATOM      2  N   UNL     1      -2.260  -7.216  -1.806  0.00  0.00    -0.372 N 
ATOM      3  N   UNL     1      -4.022  -7.422  -0.351  0.00  0.00    -0.372 N 
ATOM      4  C   UNL     1      -2.738  -7.116  -0.559  0.00  0.00    +0.166 C 
ATOM      5  H   UNL     1      -0.957  -6.529   0.213  0.00  0.00    +0.163 HD
ATOM      6  H   UNL     1      -2.848  -7.511  -2.574  0.00  0.00    +0.159 HD
ATOM      7  H   UNL     1      -1.300  -6.983  -2.029  0.00  0.00    +0.159 HD
ATOM      8  H   UNL     1      -4.442  -7.373   0.568  0.00  0.00    +0.159 HD
ATOM      9  H   UNL     1      -4.623  -7.730  -1.105  0.00  0.00    +0.159 HD
ENDROOT
BRANCH   1  10
ATOM     10  C   UNL     1      -2.363  -6.524   1.814  0.00  0.00    +0.151 C 
BRANCH  10  11
ATOM     11  C   UNL     1      -1.166  -6.196   2.663  0.00  0.00    -0.028 A 
ATOM     12  C   UNL     1      -0.716  -7.099   3.638  0.00  0.00    +0.005 A 
ATOM     13  C   UNL     1      -0.475  -4.986   2.495  0.00  0.00    +0.005 A 
ATOM     14  C   UNL     1       0.413  -6.808   4.407  0.00  0.00    +0.000 A 
ATOM     15  C   UNL     1       0.652  -4.699   3.265  0.00  0.00    +0.000 A 
ATOM     16  C   UNL     1       1.097  -5.611   4.219  0.00  0.00    +0.000 A 
ENDBRANCH  10  11
ENDBRANCH   1  10
TORSDOF 2
ENDMDL
MODEL 2
REMARK VINA RESULT:    -5.358      7.480      8.498
REMARK INTER + INTRA:          -6.081
REMARK INTER:                  -5.931
REMARK INTRA:                  -0.149
REMARK UNBOUND:                -0.096
REMARK  Name = 1550473
REMARK  2 active torsions:
REMARK  status: ('A' for Active; 'I' for Inactive)
REMARK    1  A    between atoms: N_1  and  C_4
REMARK    2  A    between atoms: C_4  and  C_5
REMARK                            x       y       z     vdW  Elec       q    Type
REMARK                         _______ _______ _______ _____ _____    ______ ____
ROOT
ATOM      1  N   UNL     1      -6.054   0.575   4.355  0.00  0.00    -0.354 N 
ATOM      2  N   UNL     1      -8.334   0.583   4.761  0.00  0.00    -0.372 N 
ATOM      3  N   UNL     1      -7.141  -1.336   5.165  0.00  0.00    -0.372 N 
ATOM      4  C   UNL     1      -7.161  -0.062   4.758  0.00  0.00    +0.166 C 
ATOM      5  H   UNL     1      -6.140   1.532   4.030  0.00  0.00    +0.163 HD
ATOM      6  H   UNL     1      -9.185   0.129   5.063  0.00  0.00    +0.159 HD
ATOM      7  H   UNL     1      -8.410   1.552   4.479  0.00  0.00    +0.159 HD
ATOM      8  H   UNL     1      -6.289  -1.880   5.180  0.00  0.00    +0.159 HD
ATOM      9  H   UNL     1      -7.985  -1.811   5.460  0.00  0.00    +0.159 HD
ENDROOT
BRANCH   1  10
ATOM     10  C   UNL     1      -4.718  -0.019   4.364  0.00  0.00    +0.151 C 
BRANCH  10  11
ATOM     11  C   UNL     1      -4.177  -0.032   2.961  0.00  0.00    -0.028 A 
ATOM     12  C   UNL     1      -4.722   0.809   1.980  0.00  0.00    +0.005 A 
ATOM     13  C   UNL     1      -3.114  -0.878   2.608  0.00  0.00    +0.005 A 
ATOM     14  C   UNL     1      -4.199   0.819   0.684  0.00  0.00    +0.000 A 
ATOM     15  C   UNL     1      -2.595  -0.865   1.314  0.00  0.00    +0.000 A 
ATOM     16  C   UNL     1      -3.137  -0.015   0.353  0.00  0.00    +0.000 A 
ENDBRANCH  10  11
ENDBRANCH   1  10
TORSDOF 2
ENDMDL
MODEL 3
REMARK VINA RESULT:    -5.320      7.033      8.874
REMARK INTER + INTRA:          -6.038
REMARK INTER:                  -5.906
REMARK INTRA:                  -0.132
REMARK UNBOUND:                -0.096
REMARK  Name = 1550473
REMARK  2 active torsions:
REMARK  status: ('A' for Active; 'I' for Inactive)
REMARK    1  A    between atoms: N_1  and  C_4
REMARK    2  A    between atoms: C_4  and  C_5
REMARK                            x       y       z     vdW  Elec       q    Type
REMARK                         _______ _______ _______ _____ _____    ______ ____
ROOT
ATOM      1  N   UNL     1       6.139  -7.970   6.914  0.00  0.00    -0.354 N 
ATOM      2  N   UNL     1       7.716  -7.408   8.514  0.00  0.00    -0.372 N 
ATOM      3  N   UNL     1       5.987  -8.798   9.101  0.00  0.00    -0.372 N 
ATOM      4  C   UNL     1       6.602  -8.064   8.168  0.00  0.00    +0.166 C 
ATOM      5  H   UNL     1       6.634  -7.373   6.261  0.00  0.00    +0.163 HD
ATOM      6  H   UNL     1       8.091  -7.462   9.452  0.00  0.00    +0.159 HD
ATOM      7  H   UNL     1       8.234  -6.849   7.848  0.00  0.00    +0.159 HD
ATOM      8  H   UNL     1       5.138  -9.312   8.905  0.00  0.00    +0.159 HD
ATOM      9  H   UNL     1       6.340  -8.855  10.048  0.00  0.00    +0.159 HD
ENDROOT
BRANCH   1  10
ATOM     10  C   UNL     1       4.964  -8.687   6.420  0.00  0.00    +0.151 C 
BRANCH  10  11
ATOM     11  C   UNL     1       3.909  -7.690   6.028  0.00  0.00    -0.028 A 
ATOM     12  C   UNL     1       3.526  -6.673   6.915  0.00  0.00    +0.005 A 
ATOM     13  C   UNL     1       3.292  -7.754   4.770  0.00  0.00    +0.005 A 
ATOM     14  C   UNL     1       2.568  -5.729   6.540  0.00  0.00    +0.000 A 
ATOM     15  C   UNL     1       2.334  -6.810   4.399  0.00  0.00    +0.000 A 
ATOM     16  C   UNL     1       1.974  -5.796   5.284  0.00  0.00    +0.000 A 
ENDBRANCH  10  11
ENDBRANCH   1  10
TORSDOF 2
ENDMDL
MODEL 4
REMARK VINA RESULT:    -5.225      3.555      4.225
REMARK INTER + INTRA:          -5.931
REMARK INTER:                  -5.766
REMARK INTRA:                  -0.165
REMARK UNBOUND:                -0.096
REMARK  Name = 1550473
REMARK  2 active torsions:
REMARK  status: ('A' for Active; 'I' for Inactive)
REMARK    1  A    between atoms: N_1  and  C_4
REMARK    2  A    between atoms: C_4  and  C_5
REMARK                            x       y       z     vdW  Elec       q    Type
REMARK                         _______ _______ _______ _____ _____    ______ ____
ROOT
ATOM      1  N   UNL     1      -3.087  -3.332   3.376  0.00  0.00    -0.354 N 
ATOM      2  N   UNL     1      -4.100  -1.563   4.475  0.00  0.00    -0.372 N 
ATOM      3  N   UNL     1      -4.572  -3.705   5.149  0.00  0.00    -0.372 N 
ATOM      4  C   UNL     1      -3.914  -2.880   4.328  0.00  0.00    +0.166 C 
ATOM      5  H   UNL     1      -2.641  -2.656   2.765  0.00  0.00    +0.163 HD
ATOM      6  H   UNL     1      -4.715  -1.193   5.187  0.00  0.00    +0.159 HD
ATOM      7  H   UNL     1      -3.618  -0.888   3.894  0.00  0.00    +0.159 HD
ATOM      8  H   UNL     1      -4.480  -4.710   5.086  0.00  0.00    +0.159 HD
ATOM      9  H   UNL     1      -5.202  -3.354   5.860  0.00  0.00    +0.159 HD
ENDROOT
BRANCH   1  10
ATOM     10  C   UNL     1      -2.774  -4.744   3.166  0.00  0.00    +0.151 C 
BRANCH  10  11
ATOM     11  C   UNL     1      -1.357  -5.003   3.599  0.00  0.00    -0.028 A 
ATOM     12  C   UNL     1      -1.091  -5.749   4.756  0.00  0.00    +0.005 A 
ATOM     13  C   UNL     1      -0.276  -4.509   2.852  0.00  0.00    +0.005 A 
ATOM     14  C   UNL     1       0.226  -6.015   5.141  0.00  0.00    +0.000 A 
ATOM     15  C   UNL     1       1.036  -4.776   3.241  0.00  0.00    +0.000 A 
ATOM     16  C   UNL     1       1.287  -5.531   4.384  0.00  0.00    +0.000 A 
ENDBRANCH  10  11
ENDBRANCH   1  10
TORSDOF 2
ENDMDL
MODEL 5
REMARK VINA RESULT:    -5.163     22.081     22.851
REMARK INTER + INTRA:          -5.863
REMARK INTER:                  -5.738
REMARK INTRA:                  -0.125
REMARK UNBOUND:                -0.096
REMARK  Name = 1550473
REMARK  2 active torsions:
REMARK  status: ('A' for Active; 'I' for Inactive)
REMARK    1  A    between atoms: N_1  and  C_4
REMARK    2  A    between atoms: C_4  and  C_5
REMARK                            x       y       z     vdW  Elec       q    Type
REMARK                         _______ _______ _______ _____ _____    ______ ____
ROOT
ATOM      1  N   UNL     1       6.423  -5.860 -20.000  0.00  0.00    -0.354 N 
ATOM      2  N   UNL     1       5.939  -3.848 -21.042  0.00  0.00    -0.372 N 
ATOM      3  N   UNL     1       5.220  -5.800 -22.011  0.00  0.00    -0.372 N 
ATOM      4  C   UNL     1       5.863  -5.184 -21.013  0.00  0.00    +0.166 C 
ATOM      5  H   UNL     1       6.922  -5.337 -19.290  0.00  0.00    +0.163 HD
ATOM      6  H   UNL     1       5.524  -3.311 -21.791  0.00  0.00    +0.159 HD
ATOM      7  H   UNL     1       6.399  -3.325 -20.307  0.00  0.00    +0.159 HD
ATOM      8  H   UNL     1       5.132  -6.807 -22.051  0.00  0.00    +0.159 HD
ATOM      9  H   UNL     1       4.807  -5.281 -22.775  0.00  0.00    +0.159 HD
ENDROOT
BRANCH   1  10
ATOM     10  C   UNL     1       6.350  -7.312 -19.847  0.00  0.00    +0.151 C 
BRANCH  10  11
ATOM     11  C   UNL     1       7.386  -7.753 -18.850  0.00  0.00    -0.028 A 
ATOM     12  C   UNL     1       8.115  -6.807 -18.115  0.00  0.00    +0.005 A 
ATOM     13  C   UNL     1       7.639  -9.116 -18.632  0.00  0.00    +0.005 A 
ATOM     14  C   UNL     1       9.056  -7.217 -17.167  0.00  0.00    +0.000 A 
ATOM     15  C   UNL     1       8.581  -9.521 -17.686  0.00  0.00    +0.000 A 
ATOM     16  C   UNL     1       9.287  -8.571 -16.952  0.00  0.00    +0.000 A 
ENDBRANCH  10  11
ENDBRANCH   1  10
TORSDOF 2
ENDMDL
MODEL 6
REMARK VINA RESULT:    -5.086      5.255      6.777
REMARK INTER + INTRA:          -5.776
REMARK INTER:                  -5.602
REMARK INTRA:                  -0.174
REMARK UNBOUND:                -0.096
REMARK  Name = 1550473
REMARK  2 active torsions:
REMARK  status: ('A' for Active; 'I' for Inactive)
REMARK    1  A    between atoms: N_1  and  C_4
REMARK    2  A    between atoms: C_4  and  C_5
REMARK                            x       y       z     vdW  Elec       q    Type
REMARK                         _______ _______ _______ _____ _____    ______ ____
ROOT
ATOM      1  N   UNL     1       2.827  -6.633   6.985  0.00  0.00    -0.354 N 
ATOM      2  N   UNL     1       2.512  -6.109   9.219  0.00  0.00    -0.372 N 
ATOM      3  N   UNL     1       1.348  -7.869   8.317  0.00  0.00    -0.372 N 
ATOM      4  C   UNL     1       2.229  -6.876   8.158  0.00  0.00    +0.166 C 
ATOM      5  H   UNL     1       3.463  -5.846   6.922  0.00  0.00    +0.163 HD
ATOM      6  H   UNL     1       2.079  -6.271  10.118  0.00  0.00    +0.159 HD
ATOM      7  H   UNL     1       3.183  -5.352   9.165  0.00  0.00    +0.159 HD
ATOM      8  H   UNL     1       1.086  -8.479   7.554  0.00  0.00    +0.159 HD
ATOM      9  H   UNL     1       0.895  -8.039   9.206  0.00  0.00    +0.159 HD
ENDROOT
BRANCH   1  10
ATOM     10  C   UNL     1       2.629  -7.441   5.783  0.00  0.00    +0.151 C 
BRANCH  10  11
ATOM     11  C   UNL     1       1.582  -6.792   4.921  0.00  0.00    -0.028 A 
ATOM     12  C   UNL     1       1.781  -5.502   4.408  0.00  0.00    +0.005 A 
ATOM     13  C   UNL     1       0.390  -7.464   4.609  0.00  0.00    +0.005 A 
ATOM     14  C   UNL     1       0.822  -4.910   3.583  0.00  0.00    +0.000 A 
ATOM     15  C   UNL     1      -0.566  -6.869   3.785  0.00  0.00    +0.000 A 
ATOM     16  C   UNL     1      -0.348  -5.593   3.270  0.00  0.00    +0.000 A 
ENDBRANCH  10  11
ENDBRANCH   1  10
TORSDOF 2
ENDMDL
MODEL 7
REMARK VINA RESULT:    -4.993      5.816      6.825
REMARK INTER + INTRA:          -5.672
REMARK INTER:                  -5.512
REMARK INTRA:                  -0.160
REMARK UNBOUND:                -0.096
REMARK  Name = 1550473
REMARK  2 active torsions:
REMARK  status: ('A' for Active; 'I' for Inactive)
REMARK    1  A    between atoms: N_1  and  C_4
REMARK    2  A    between atoms: C_4  and  C_5
REMARK                            x       y       z     vdW  Elec       q    Type
REMARK                         _______ _______ _______ _____ _____    ______ ____
ROOT
ATOM      1  N   UNL     1      -3.104  -2.321   1.011  0.00  0.00    -0.354 N 
ATOM      2  N   UNL     1      -3.422  -4.611   1.150  0.00  0.00    -0.372 N 
ATOM      3  N   UNL     1      -1.826  -3.630   2.476  0.00  0.00    -0.372 N 
ATOM      4  C   UNL     1      -2.780  -3.505   1.546  0.00  0.00    +0.166 C 
ATOM      5  H   UNL     1      -3.815  -2.298   0.289  0.00  0.00    +0.163 HD
ATOM      6  H   UNL     1      -3.201  -5.518   1.538  0.00  0.00    +0.159 HD
ATOM      7  H   UNL     1      -4.164  -4.578   0.461  0.00  0.00    +0.159 HD
ATOM      8  H   UNL     1      -1.300  -2.835   2.813  0.00  0.00    +0.159 HD
ATOM      9  H   UNL     1      -1.583  -4.531   2.868  0.00  0.00    +0.159 HD
ENDROOT
BRANCH   1  10
ATOM     10  C   UNL     1      -2.503  -1.050   1.413  0.00  0.00    +0.151 C 
BRANCH  10  11
ATOM     11  C   UNL     1      -3.560  -0.183   2.039  0.00  0.00    -0.028 A 
ATOM     12  C   UNL     1      -3.813  -0.252   3.417  0.00  0.00    +0.005 A 
ATOM     13  C   UNL     1      -4.309   0.713   1.261  0.00  0.00    +0.005 A 
ATOM     14  C   UNL     1      -4.773   0.575   4.005  0.00  0.00    +0.000 A 
ATOM     15  C   UNL     1      -5.268   1.536   1.851  0.00  0.00    +0.000 A 
ATOM     16  C   UNL     1      -5.498   1.469   3.223  0.00  0.00    +0.000 A 
ENDBRANCH  10  11
ENDBRANCH   1  10
TORSDOF 2
ENDMDL
MODEL 8
REMARK VINA RESULT:    -4.990     20.218     21.281
REMARK INTER + INTRA:          -5.669
REMARK INTER:                  -5.545
REMARK INTRA:                  -0.124
REMARK UNBOUND:                -0.096
REMARK  Name = 1550473
REMARK  2 active torsions:
REMARK  status: ('A' for Active; 'I' for Inactive)
REMARK    1  A    between atoms: N_1  and  C_4
REMARK    2  A    between atoms: C_4  and  C_5
REMARK                            x       y       z     vdW  Elec       q    Type
REMARK                         _______ _______ _______ _____ _____    ______ ____
ROOT
ATOM      1  N   UNL     1      -5.646  11.235   9.598  0.00  0.00    -0.354 N 
ATOM      2  N   UNL     1      -7.369  10.632   8.173  0.00  0.00    -0.372 N 
ATOM      3  N   UNL     1      -7.880  11.673  10.152  0.00  0.00    -0.372 N 
ATOM      4  C   UNL     1      -6.955  11.185   9.319  0.00  0.00    +0.166 C 
ATOM      5  H   UNL     1      -4.997  10.820   8.939  0.00  0.00    +0.163 HD
ATOM      6  H   UNL     1      -8.350  10.583   7.934  0.00  0.00    +0.159 HD
ATOM      7  H   UNL     1      -6.716  10.259   7.495  0.00  0.00    +0.159 HD
ATOM      8  H   UNL     1      -7.634  12.098  11.036  0.00  0.00    +0.159 HD
ATOM      9  H   UNL     1      -8.868  11.623   9.936  0.00  0.00    +0.159 HD
ENDROOT
BRANCH   1  10
ATOM     10  C   UNL     1      -5.088  11.864  10.794  0.00  0.00    +0.151 C 
BRANCH  10  11
ATOM     11  C   UNL     1      -4.219  13.020  10.381  0.00  0.00    -0.028 A 
ATOM     12  C   UNL     1      -4.126  13.395   9.032  0.00  0.00    +0.005 A 
ATOM     13  C   UNL     1      -3.490  13.748  11.334  0.00  0.00    +0.005 A 
ATOM     14  C   UNL     1      -3.343  14.487   8.652  0.00  0.00    +0.000 A 
ATOM     15  C   UNL     1      -2.709  14.837  10.950  0.00  0.00    +0.000 A 
ATOM     16  C   UNL     1      -2.637  15.208   9.609  0.00  0.00    +0.000 A 
ENDBRANCH  10  11
ENDBRANCH   1  10
TORSDOF 2
ENDMDL
MODEL 9
REMARK VINA RESULT:    -4.838     22.301     23.522
REMARK INTER + INTRA:          -5.499
REMARK INTER:                  -5.354
REMARK INTRA:                  -0.145
REMARK UNBOUND:                -0.096
REMARK  Name = 1550473
REMARK  2 active torsions:
REMARK  status: ('A' for Active; 'I' for Inactive)
REMARK    1  A    between atoms: N_1  and  C_4
REMARK    2  A    between atoms: C_4  and  C_5
REMARK                            x       y       z     vdW  Elec       q    Type
REMARK                         _______ _______ _______ _____ _____    ______ ____
ROOT
ATOM      1  N   UNL     1      -4.165  15.434  12.900  0.00  0.00    -0.354 N 
ATOM      2  N   UNL     1      -5.668  16.855  13.943  0.00  0.00    -0.372 N 
ATOM      3  N   UNL     1      -5.868  14.593  14.273  0.00  0.00    -0.372 N 
ATOM      4  C   UNL     1      -5.225  15.615  13.699  0.00  0.00    +0.166 C 
ATOM      5  H   UNL     1      -3.741  16.248  12.471  0.00  0.00    +0.163 HD
ATOM      6  H   UNL     1      -6.463  17.023  14.544  0.00  0.00    +0.159 HD
ATOM      7  H   UNL     1      -5.213  17.670  13.549  0.00  0.00    +0.159 HD
ATOM      8  H   UNL     1      -5.588  13.633  14.125  0.00  0.00    +0.159 HD
ATOM      9  H   UNL     1      -6.673  14.741  14.869  0.00  0.00    +0.159 HD
ENDROOT
BRANCH   1  10
ATOM     10  C   UNL     1      -3.571  14.129  12.613  0.00  0.00    +0.151 C 
BRANCH  10  11
ATOM     11  C   UNL     1      -3.709  13.838  11.144  0.00  0.00    -0.028 A 
ATOM     12  C   UNL     1      -4.336  12.663  10.707  0.00  0.00    +0.005 A 
ATOM     13  C   UNL     1      -3.219  14.738  10.185  0.00  0.00    +0.005 A 
ATOM     14  C   UNL     1      -4.491  12.407   9.342  0.00  0.00    +0.000 A 
ATOM     15  C   UNL     1      -3.375  14.478   8.823  0.00  0.00    +0.000 A 
ATOM     16  C   UNL     1      -4.013  13.314   8.402  0.00  0.00    +0.000 A 
ENDBRANCH  10  11
ENDBRANCH   1  10
TORSDOF 2
ENDMDL
