MODEL 1
REMARK VINA RESULT:    -5.850      0.000      0.000
REMARK INTER + INTRA:          -6.699
REMARK INTER:                  -6.534
REMARK INTRA:                  -0.165
REMARK UNBOUND:                -0.165
REMARK  Name = 1550473
REMARK  2 active torsions:
REMARK  status: ('A' for Active; 'I' for Inactive)
REMARK    1  A    between atoms: N_1  and  C_4
REMARK    2  A    between atoms: C_4  and  C_5
REMARK                            x       y       z     vdW  Elec       q    Type
REMARK                         _______ _______ _______ _____ _____    ______ ____
ROOT
ATOM      1  N   UNL     1       4.106 -16.685  -2.693  0.00  0.00    -0.354 N 
ATOM      2  N   UNL     1       5.168 -18.699  -2.272  0.00  0.00    -0.372 N 
ATOM      3  N   UNL     1       3.528 -18.624  -3.875  0.00  0.00    -0.372 N 
ATOM      4  C   UNL     1       4.258 -17.990  -2.951  0.00  0.00    +0.166 C 
ATOM      5  H   UNL     1       4.670 -16.270  -1.960  0.00  0.00    +0.163 HD
ATOM      6  H   UNL     1       5.308 -19.685  -2.447  0.00  0.00    +0.159 HD
ATOM      7  H   UNL     1       5.762 -18.272  -1.572  0.00  0.00    +0.159 HD
ATOM      8  H   UNL     1       2.820 -18.147  -4.417  0.00  0.00    +0.159 HD
ATOM      9  H   UNL     1       3.645 -19.613  -4.056  0.00  0.00    +0.159 HD
ENDROOT
BRANCH   1  10
ATOM     10  C   UNL     1       3.181 -15.811  -3.413  0.00  0.00    +0.151 C 
BRANCH  10  11
ATOM     11  C   UNL     1       3.937 -15.072  -4.483  0.00  0.00    -0.028 A 
ATOM     12  C   UNL     1       5.245 -14.622  -4.249  0.00  0.00    +0.005 A 
ATOM     13  C   UNL     1       3.352 -14.822  -5.734  0.00  0.00    +0.005 A 
ATOM     14  C   UNL     1       5.958 -13.962  -5.253  0.00  0.00    +0.000 A 
ATOM     15  C   UNL     1       4.067 -14.161  -6.733  0.00  0.00    +0.000 A 
ATOM     16  C   UNL     1       5.370 -13.733  -6.493  0.00  0.00    +0.000 A 
ENDBRANCH  10  11
ENDBRANCH   1  10
TORSDOF 2
ENDMDL
MODEL 2
REMARK VINA RESULT:    -5.688      1.161      1.662
REMARK INTER + INTRA:          -6.518
REMARK INTER:                  -6.337
REMARK INTRA:                  -0.181
REMARK UNBOUND:                -0.165
REMARK  Name = 1550473
REMARK  2 active torsions:
REMARK  status: ('A' for Active; 'I' for Inactive)
REMARK    1  A    between atoms: N_1  and  C_4
REMARK    2  A    between atoms: C_4  and  C_5
REMARK                            x       y       z     vdW  Elec       q    Type
REMARK                         _______ _______ _______ _____ _____    ______ ____
ROOT
ATOM      1  N   UNL     1       2.520 -17.163  -5.034  0.00  0.00    -0.354 N 
ATOM      2  N   UNL     1       2.911 -19.427  -5.325  0.00  0.00    -0.372 N 
ATOM      3  N   UNL     1       3.857 -18.361  -3.527  0.00  0.00    -0.372 N 
ATOM      4  C   UNL     1       3.095 -18.302  -4.625  0.00  0.00    +0.166 C 
ATOM      5  H   UNL     1       1.979 -17.178  -5.891  0.00  0.00    +0.163 HD
ATOM      6  H   UNL     1       3.329 -20.302  -5.039  0.00  0.00    +0.159 HD
ATOM      7  H   UNL     1       2.332 -19.449  -6.156  0.00  0.00    +0.159 HD
ATOM      8  H   UNL     1       4.040 -17.545  -2.958  0.00  0.00    +0.159 HD
ATOM      9  H   UNL     1       4.294 -19.225  -3.231  0.00  0.00    +0.159 HD
ENDROOT
BRANCH   1  10
ATOM     10  C   UNL     1       2.614 -15.895  -4.313  0.00  0.00    +0.151 C 
BRANCH  10  11
ATOM     11  C   UNL     1       3.636 -15.021  -4.987  0.00  0.00    -0.028 A 
ATOM     12  C   UNL     1       4.836 -14.697  -4.336  0.00  0.00    +0.005 A 
ATOM     13  C   UNL     1       3.414 -14.520  -6.278  0.00  0.00    +0.005 A 
ATOM     14  C   UNL     1       5.799 -13.910  -4.973  0.00  0.00    +0.000 A 
ATOM     15  C   UNL     1       4.378 -13.734  -6.911  0.00  0.00    +0.000 A 
ATOM     16  C   UNL     1       5.571 -13.432  -6.258  0.00  0.00    +0.000 A 
ENDBRANCH  10  11
ENDBRANCH   1  10
TORSDOF 2
ENDMDL
MODEL 3
REMARK VINA RESULT:    -5.641      3.164      4.701
REMARK INTER + INTRA:          -6.466
REMARK INTER:                  -6.321
REMARK INTRA:                  -0.145
REMARK UNBOUND:                -0.165
REMARK  Name = 1550473
REMARK  2 active torsions:
REMARK  status: ('A' for Active; 'I' for Inactive)
REMARK    1  A    between atoms: N_1  and  C_4
REMARK    2  A    between atoms: C_4  and  C_5
REMARK                            x       y       z     vdW  Elec       q    Type
REMARK                         _______ _______ _______ _____ _____    ______ ____
ROOT
ATOM      1  N   UNL     1       3.832 -15.008  -7.656  0.00  0.00    -0.354 N 
ATOM      2  N   UNL     1       5.047 -16.163  -9.254  0.00  0.00    -0.372 N 
ATOM      3  N   UNL     1       6.167 -15.159  -7.521  0.00  0.00    -0.372 N 
ATOM      4  C   UNL     1       5.010 -15.435  -8.131  0.00  0.00    +0.166 C 
ATOM      5  H   UNL     1       2.993 -15.225  -8.181  0.00  0.00    +0.163 HD
ATOM      6  H   UNL     1       5.920 -16.502  -9.635  0.00  0.00    +0.159 HD
ATOM      7  H   UNL     1       4.203 -16.418  -9.752  0.00  0.00    +0.159 HD
ATOM      8  H   UNL     1       6.208 -14.609  -6.674  0.00  0.00    +0.159 HD
ATOM      9  H   UNL     1       7.052 -15.479  -7.893  0.00  0.00    +0.159 HD
ENDROOT
BRANCH   1  10
ATOM     10  C   UNL     1       3.677 -14.254  -6.413  0.00  0.00    +0.151 C 
BRANCH  10  11
ATOM     11  C   UNL     1       3.502 -15.219  -5.272  0.00  0.00    -0.028 A 
ATOM     12  C   UNL     1       2.657 -16.330  -5.403  0.00  0.00    +0.005 A 
ATOM     13  C   UNL     1       4.183 -15.029  -4.060  0.00  0.00    +0.005 A 
ATOM     14  C   UNL     1       2.518 -17.243  -4.354  0.00  0.00    +0.000 A 
ATOM     15  C   UNL     1       4.040 -15.942  -3.015  0.00  0.00    +0.000 A 
ATOM     16  C   UNL     1       3.209 -17.050  -3.163  0.00  0.00    +0.000 A 
ENDBRANCH  10  11
ENDBRANCH   1  10
TORSDOF 2
ENDMDL
MODEL 4
REMARK VINA RESULT:    -5.336      3.238      4.685
REMARK INTER + INTRA:          -6.125
REMARK INTER:                  -5.968
REMARK INTRA:                  -0.157
REMARK UNBOUND:                -0.165
REMARK  Name = 1550473
REMARK  2 active torsions:
REMARK  status: ('A' for Active; 'I' for Inactive)
REMARK    1  A    between atoms: N_1  and  C_4
REMARK    2  A    between atoms: C_4  and  C_5
REMARK                            x       y       z     vdW  Elec       q    Type
REMARK                         _______ _______ _______ _____ _____    ______ ____
ROOT
ATOM      1  N   UNL     1       4.404 -13.722  -6.593  0.00  0.00    -0.354 N 
ATOM      2  N   UNL     1       6.403 -12.812  -7.327  0.00  0.00    -0.372 N 
ATOM      3  N   UNL     1       5.682 -14.788  -8.243  0.00  0.00    -0.372 N 
ATOM      4  C   UNL     1       5.483 -13.783  -7.385  0.00  0.00    +0.166 C 
ATOM      5  H   UNL     1       4.327 -12.949  -5.943  0.00  0.00    +0.163 HD
ATOM      6  H   UNL     1       7.226 -12.829  -7.915  0.00  0.00    +0.159 HD
ATOM      7  H   UNL     1       6.301 -12.017  -6.709  0.00  0.00    +0.159 HD
ATOM      8  H   UNL     1       5.029 -15.555  -8.330  0.00  0.00    +0.159 HD
ATOM      9  H   UNL     1       6.505 -14.829  -8.831  0.00  0.00    +0.159 HD
ENDROOT
BRANCH   1  10
ATOM     10  C   UNL     1       3.318 -14.700  -6.617  0.00  0.00    +0.151 C 
BRANCH  10  11
ATOM     11  C   UNL     1       3.358 -15.510  -5.350  0.00  0.00    -0.028 A 
ATOM     12  C   UNL     1       3.885 -14.962  -4.171  0.00  0.00    +0.005 A 
ATOM     13  C   UNL     1       2.867 -16.824  -5.320  0.00  0.00    +0.005 A 
ATOM     14  C   UNL     1       3.895 -15.703  -2.987  0.00  0.00    +0.000 A 
ATOM     15  C   UNL     1       2.880 -17.561  -4.136  0.00  0.00    +0.000 A 
ATOM     16  C   UNL     1       3.392 -16.999  -2.969  0.00  0.00    +0.000 A 
ENDBRANCH  10  11
ENDBRANCH   1  10
TORSDOF 2
ENDMDL
MODEL 5
REMARK VINA RESULT:    -4.816     11.495     12.890
REMARK INTER + INTRA:          -5.544
REMARK INTER:                  -5.409
REMARK INTRA:                  -0.135
REMARK UNBOUND:                -0.165
REMARK  Name = 1550473
REMARK  2 active torsions:
REMARK  status: ('A' for Active; 'I' for Inactive)
REMARK    1  A    between atoms: N_1  and  C_4
REMARK    2  A    between atoms: C_4  and  C_5
REMARK                            x       y       z     vdW  Elec       q    Type
REMARK                         _______ _______ _______ _____ _____    ______ ____
ROOT
ATOM      1  N   UNL     1      -4.178 -12.272   4.357  0.00  0.00    -0.354 N 
ATOM      2  N   UNL     1      -3.977 -10.132   5.222  0.00  0.00    -0.372 N 
ATOM      3  N   UNL     1      -5.507 -11.567   6.154  0.00  0.00    -0.372 N 
ATOM      4  C   UNL     1      -4.557 -11.339   5.240  0.00  0.00    +0.166 C 
ATOM      5  H   UNL     1      -3.474 -12.026   3.670  0.00  0.00    +0.163 HD
ATOM      6  H   UNL     1      -4.240  -9.410   5.878  0.00  0.00    +0.159 HD
ATOM      7  H   UNL     1      -3.241  -9.905   4.564  0.00  0.00    +0.159 HD
ATOM      8  H   UNL     1      -5.987 -12.454   6.217  0.00  0.00    +0.159 HD
ATOM      9  H   UNL     1      -5.792 -10.852   6.812  0.00  0.00    +0.159 HD
ENDROOT
BRANCH   1  10
ATOM     10  C   UNL     1      -4.709 -13.633   4.327  0.00  0.00    +0.151 C 
BRANCH  10  11
ATOM     11  C   UNL     1      -5.094 -13.979   2.916  0.00  0.00    -0.028 A 
ATOM     12  C   UNL     1      -4.368 -14.938   2.194  0.00  0.00    +0.005 A 
ATOM     13  C   UNL     1      -6.188 -13.357   2.296  0.00  0.00    +0.005 A 
ATOM     14  C   UNL     1      -4.744 -15.282   0.893  0.00  0.00    +0.000 A 
ATOM     15  C   UNL     1      -6.560 -13.702   0.997  0.00  0.00    +0.000 A 
ATOM     16  C   UNL     1      -5.839 -14.666   0.297  0.00  0.00    +0.000 A 
ENDBRANCH  10  11
ENDBRANCH   1  10
TORSDOF 2
ENDMDL
MODEL 6
REMARK VINA RESULT:    -4.718     24.026     25.041
REMARK INTER + INTRA:          -5.435
REMARK INTER:                  -5.279
REMARK INTRA:                  -0.156
REMARK UNBOUND:                -0.165
REMARK  Name = 1550473
REMARK  2 active torsions:
REMARK  status: ('A' for Active; 'I' for Inactive)
REMARK    1  A    between atoms: N_1  and  C_4
REMARK    2  A    between atoms: C_4  and  C_5
REMARK                            x       y       z     vdW  Elec       q    Type
REMARK                         _______ _______ _______ _____ _____    ______ ____
ROOT
ATOM      1  N   UNL     1       6.055   0.249  16.312  0.00  0.00    -0.354 N 
ATOM      2  N   UNL     1       4.424   1.818  15.819  0.00  0.00    -0.372 N 
ATOM      3  N   UNL     1       3.831  -0.072  16.977  0.00  0.00    -0.372 N 
ATOM      4  C   UNL     1       4.779   0.653  16.374  0.00  0.00    +0.166 C 
ATOM      5  H   UNL     1       6.720   0.830  15.814  0.00  0.00    +0.163 HD
ATOM      6  H   UNL     1       3.469   2.150  15.853  0.00  0.00    +0.159 HD
ATOM      7  H   UNL     1       5.099   2.418  15.362  0.00  0.00    +0.159 HD
ATOM      8  H   UNL     1       4.033  -0.964  17.410  0.00  0.00    +0.159 HD
ATOM      9  H   UNL     1       2.868   0.237  17.011  0.00  0.00    +0.159 HD
ENDROOT
BRANCH   1  10
ATOM     10  C   UNL     1       6.556  -0.977  16.931  0.00  0.00    +0.151 C 
BRANCH  10  11
ATOM     11  C   UNL     1       6.957  -1.943  15.851  0.00  0.00    -0.028 A 
ATOM     12  C   UNL     1       5.987  -2.542  15.035  0.00  0.00    +0.005 A 
ATOM     13  C   UNL     1       8.307  -2.260  15.636  0.00  0.00    +0.005 A 
ATOM     14  C   UNL     1       6.361  -3.417  14.012  0.00  0.00    +0.000 A 
ATOM     15  C   UNL     1       8.677  -3.135  14.614  0.00  0.00    +0.000 A 
ATOM     16  C   UNL     1       7.704  -3.711  13.801  0.00  0.00    +0.000 A 
ENDBRANCH  10  11
ENDBRANCH   1  10
TORSDOF 2
ENDMDL
MODEL 7
REMARK VINA RESULT:    -4.689     17.730     19.323
REMARK INTER + INTRA:          -5.402
REMARK INTER:                  -5.278
REMARK INTRA:                  -0.125
REMARK UNBOUND:                -0.165
REMARK  Name = 1550473
REMARK  2 active torsions:
REMARK  status: ('A' for Active; 'I' for Inactive)
REMARK    1  A    between atoms: N_1  and  C_4
REMARK    2  A    between atoms: C_4  and  C_5
REMARK                            x       y       z     vdW  Elec       q    Type
REMARK                         _______ _______ _______ _____ _____    ______ ____
ROOT
ATOM      1  N   UNL     1      19.565  -2.963  -2.203  0.00  0.00    -0.354 N 
ATOM      2  N   UNL     1      20.301  -2.895  -0.008  0.00  0.00    -0.372 N 
ATOM      3  N   UNL     1      20.361  -0.972  -1.258  0.00  0.00    -0.372 N 
ATOM      4  C   UNL     1      20.071  -2.274  -1.171  0.00  0.00    +0.166 C 
ATOM      5  H   UNL     1      19.395  -3.955  -2.083  0.00  0.00    +0.163 HD
ATOM      6  H   UNL     1      20.680  -2.401   0.789  0.00  0.00    +0.159 HD
ATOM      7  H   UNL     1      20.088  -3.877   0.123  0.00  0.00    +0.159 HD
ATOM      8  H   UNL     1      20.217  -0.446  -2.109  0.00  0.00    +0.159 HD
ATOM      9  H   UNL     1      20.752  -0.462  -0.475  0.00  0.00    +0.159 HD
ENDROOT
BRANCH   1  10
ATOM     10  C   UNL     1      19.227  -2.369  -3.495  0.00  0.00    +0.151 C 
BRANCH  10  11
ATOM     11  C   UNL     1      18.381  -3.337  -4.275  0.00  0.00    -0.028 A 
ATOM     12  C   UNL     1      18.024  -3.061  -5.603  0.00  0.00    +0.005 A 
ATOM     13  C   UNL     1      17.937  -4.534  -3.693  0.00  0.00    +0.005 A 
ATOM     14  C   UNL     1      17.263  -3.974  -6.337  0.00  0.00    +0.000 A 
ATOM     15  C   UNL     1      17.177  -5.443  -4.429  0.00  0.00    +0.000 A 
ATOM     16  C   UNL     1      16.842  -5.163  -5.752  0.00  0.00    +0.000 A 
ENDBRANCH  10  11
ENDBRANCH   1  10
TORSDOF 2
ENDMDL
MODEL 8
REMARK VINA RESULT:    -4.644      2.202      2.961
REMARK INTER + INTRA:          -5.353
REMARK INTER:                  -5.224
REMARK INTRA:                  -0.129
REMARK UNBOUND:                -0.165
REMARK  Name = 1550473
REMARK  2 active torsions:
REMARK  status: ('A' for Active; 'I' for Inactive)
REMARK    1  A    between atoms: N_1  and  C_4
REMARK    2  A    between atoms: C_4  and  C_5
REMARK                            x       y       z     vdW  Elec       q    Type
REMARK                         _______ _______ _______ _____ _____    ______ ____
ROOT
ATOM      1  N   UNL     1       2.472 -18.452  -5.956  0.00  0.00    -0.354 N 
ATOM      2  N   UNL     1       2.681 -20.723  -6.359  0.00  0.00    -0.372 N 
ATOM      3  N   UNL     1       1.894 -20.027  -4.320  0.00  0.00    -0.372 N 
ATOM      4  C   UNL     1       2.347 -19.719  -5.539  0.00  0.00    +0.166 C 
ATOM      5  H   UNL     1       2.850 -18.284  -6.881  0.00  0.00    +0.163 HD
ATOM      6  H   UNL     1       2.594 -21.689  -6.074  0.00  0.00    +0.159 HD
ATOM      7  H   UNL     1       3.015 -20.553  -7.300  0.00  0.00    +0.159 HD
ATOM      8  H   UNL     1       1.630 -19.315  -3.651  0.00  0.00    +0.159 HD
ATOM      9  H   UNL     1       1.810 -20.987  -4.012  0.00  0.00    +0.159 HD
ENDROOT
BRANCH   1  10
ATOM     10  C   UNL     1       2.085 -17.288  -5.160  0.00  0.00    +0.151 C 
BRANCH  10  11
ATOM     11  C   UNL     1       3.226 -16.308  -5.137  0.00  0.00    -0.028 A 
ATOM     12  C   UNL     1       3.949 -16.028  -6.306  0.00  0.00    +0.005 A 
ATOM     13  C   UNL     1       3.585 -15.652  -3.949  0.00  0.00    +0.005 A 
ATOM     14  C   UNL     1       4.989 -15.096  -6.291  0.00  0.00    +0.000 A 
ATOM     15  C   UNL     1       4.625 -14.722  -3.938  0.00  0.00    +0.000 A 
ATOM     16  C   UNL     1       5.325 -14.443  -5.110  0.00  0.00    +0.000 A 
ENDBRANCH  10  11
ENDBRANCH   1  10
TORSDOF 2
ENDMDL
MODEL 9
REMARK VINA RESULT:    -4.576      1.726      2.363
REMARK INTER + INTRA:          -5.276
REMARK INTER:                  -5.108
REMARK INTRA:                  -0.168
REMARK UNBOUND:                -0.165
REMARK  Name = 1550473
REMARK  2 active torsions:
REMARK  status: ('A' for Active; 'I' for Inactive)
REMARK    1  A    between atoms: N_1  and  C_4
REMARK    2  A    between atoms: C_4  and  C_5
REMARK                            x       y       z     vdW  Elec       q    Type
REMARK                         _______ _______ _______ _____ _____    ______ ____
ROOT
ATOM      1  N   UNL     1       3.128 -16.593  -4.675  0.00  0.00    -0.354 N 
ATOM      2  N   UNL     1       3.764 -18.577  -3.665  0.00  0.00    -0.372 N 
ATOM      3  N   UNL     1       2.509 -18.662  -5.584  0.00  0.00    -0.372 N 
ATOM      4  C   UNL     1       3.128 -17.932  -4.650  0.00  0.00    +0.166 C 
ATOM      5  H   UNL     1       3.590 -16.097  -3.921  0.00  0.00    +0.163 HD
ATOM      6  H   UNL     1       3.784 -19.587  -3.621  0.00  0.00    +0.159 HD
ATOM      7  H   UNL     1       4.264 -18.079  -2.938  0.00  0.00    +0.159 HD
ATOM      8  H   UNL     1       2.006 -18.236  -6.351  0.00  0.00    +0.159 HD
ATOM      9  H   UNL     1       2.508 -19.674  -5.551  0.00  0.00    +0.159 HD
ENDROOT
BRANCH   1  10
ATOM     10  C   UNL     1       2.511 -15.795  -5.733  0.00  0.00    +0.151 C 
BRANCH  10  11
ATOM     11  C   UNL     1       3.591 -15.136  -6.546  0.00  0.00    -0.028 A 
ATOM     12  C   UNL     1       3.998 -15.688  -7.770  0.00  0.00    +0.005 A 
ATOM     13  C   UNL     1       4.208 -13.957  -6.101  0.00  0.00    +0.005 A 
ATOM     14  C   UNL     1       4.981 -15.060  -8.539  0.00  0.00    +0.000 A 
ATOM     15  C   UNL     1       5.189 -13.334  -6.871  0.00  0.00    +0.000 A 
ATOM     16  C   UNL     1       5.574 -13.885  -8.092  0.00  0.00    +0.000 A 
ENDBRANCH  10  11
ENDBRANCH   1  10
TORSDOF 2
ENDMDL
