MODEL 1
REMARK VINA RESULT:    -6.039      0.000      0.000
REMARK INTER + INTRA:          -6.924
REMARK INTER:                  -6.745
REMARK INTRA:                  -0.180
REMARK UNBOUND:                -0.180
REMARK  Name = 1550473
REMARK  2 active torsions:
REMARK  status: ('A' for Active; 'I' for Inactive)
REMARK    1  A    between atoms: N_1  and  C_4
REMARK    2  A    between atoms: C_4  and  C_5
REMARK                            x       y       z     vdW  Elec       q    Type
REMARK                         _______ _______ _______ _____ _____    ______ ____
ROOT
ATOM      1  N   UNL     1      14.073   3.034   0.412  0.00  0.00    -0.354 N 
ATOM      2  N   UNL     1      14.034   5.335   0.148  0.00  0.00    -0.372 N 
ATOM      3  N   UNL     1      12.263   4.307   1.183  0.00  0.00    -0.372 N 
ATOM      4  C   UNL     1      13.454   4.210   0.584  0.00  0.00    +0.166 C 
ATOM      5  H   UNL     1      14.961   3.024  -0.077  0.00  0.00    +0.163 HD
ATOM      6  H   UNL     1      13.593   6.237   0.266  0.00  0.00    +0.159 HD
ATOM      7  H   UNL     1      14.943   5.327  -0.300  0.00  0.00    +0.159 HD
ATOM      8  H   UNL     1      11.770   3.495   1.529  0.00  0.00    +0.159 HD
ATOM      9  H   UNL     1      11.800   5.200   1.301  0.00  0.00    +0.159 HD
ENDROOT
BRANCH   1  10
ATOM     10  C   UNL     1      13.552   1.758   0.897  0.00  0.00    +0.151 C 
BRANCH  10  11
ATOM     11  C   UNL     1      12.908   1.023  -0.246  0.00  0.00    -0.028 A 
ATOM     12  C   UNL     1      13.694   0.342  -1.188  0.00  0.00    +0.005 A 
ATOM     13  C   UNL     1      11.512   0.999  -0.390  0.00  0.00    +0.005 A 
ATOM     14  C   UNL     1      13.095  -0.365  -2.233  0.00  0.00    +0.000 A 
ATOM     15  C   UNL     1      10.918   0.292  -1.435  0.00  0.00    +0.000 A 
ATOM     16  C   UNL     1      11.710  -0.392  -2.355  0.00  0.00    +0.000 A 
ENDBRANCH  10  11
ENDBRANCH   1  10
TORSDOF 2
ENDMDL
MODEL 2
REMARK VINA RESULT:    -4.955      3.088      4.797
REMARK INTER + INTRA:          -5.715
REMARK INTER:                  -5.586
REMARK INTRA:                  -0.129
REMARK UNBOUND:                -0.180
REMARK  Name = 1550473
REMARK  2 active torsions:
REMARK  status: ('A' for Active; 'I' for Inactive)
REMARK    1  A    between atoms: N_1  and  C_4
REMARK    2  A    between atoms: C_4  and  C_5
REMARK                            x       y       z     vdW  Elec       q    Type
REMARK                         _______ _______ _______ _____ _____    ______ ____
ROOT
ATOM      1  N   UNL     1      13.830   2.917   0.944  0.00  0.00    -0.354 N 
ATOM      2  N   UNL     1      12.208   4.547   0.671  0.00  0.00    -0.372 N 
ATOM      3  N   UNL     1      11.684   2.647   1.845  0.00  0.00    -0.372 N 
ATOM      4  C   UNL     1      12.583   3.358   1.156  0.00  0.00    +0.166 C 
ATOM      5  H   UNL     1      14.455   3.489   0.389  0.00  0.00    +0.163 HD
ATOM      6  H   UNL     1      11.275   4.907   0.817  0.00  0.00    +0.159 HD
ATOM      7  H   UNL     1      12.849   5.138   0.155  0.00  0.00    +0.159 HD
ATOM      8  H   UNL     1      11.902   1.739   2.232  0.00  0.00    +0.159 HD
ATOM      9  H   UNL     1      10.741   2.985   1.992  0.00  0.00    +0.159 HD
ENDROOT
BRANCH   1  10
ATOM     10  C   UNL     1      14.355   1.660   1.476  0.00  0.00    +0.151 C 
BRANCH  10  11
ATOM     11  C   UNL     1      15.849   1.767   1.606  0.00  0.00    -0.028 A 
ATOM     12  C   UNL     1      16.621   0.635   1.905  0.00  0.00    +0.005 A 
ATOM     13  C   UNL     1      16.500   2.997   1.425  0.00  0.00    +0.005 A 
ATOM     14  C   UNL     1      18.012   0.728   1.996  0.00  0.00    +0.000 A 
ATOM     15  C   UNL     1      17.889   3.086   1.518  0.00  0.00    +0.000 A 
ATOM     16  C   UNL     1      18.644   1.951   1.801  0.00  0.00    +0.000 A 
ENDBRANCH  10  11
ENDBRANCH   1  10
TORSDOF 2
ENDMDL
MODEL 3
REMARK VINA RESULT:    -4.676      2.887      3.925
REMARK INTER + INTRA:          -5.403
REMARK INTER:                  -5.294
REMARK INTRA:                  -0.109
REMARK UNBOUND:                -0.180
REMARK  Name = 1550473
REMARK  2 active torsions:
REMARK  status: ('A' for Active; 'I' for Inactive)
REMARK    1  A    between atoms: N_1  and  C_4
REMARK    2  A    between atoms: C_4  and  C_5
REMARK                            x       y       z     vdW  Elec       q    Type
REMARK                         _______ _______ _______ _____ _____    ______ ____
ROOT
ATOM      1  N   UNL     1      14.774   3.408   0.994  0.00  0.00    -0.354 N 
ATOM      2  N   UNL     1      14.080   5.471   0.202  0.00  0.00    -0.372 N 
ATOM      3  N   UNL     1      12.496   3.915   0.780  0.00  0.00    -0.372 N 
ATOM      4  C   UNL     1      13.786   4.250   0.664  0.00  0.00    +0.166 C 
ATOM      5  H   UNL     1      15.731   3.711   0.855  0.00  0.00    +0.163 HD
ATOM      6  H   UNL     1      13.356   6.129  -0.052  0.00  0.00    +0.159 HD
ATOM      7  H   UNL     1      15.037   5.788   0.107  0.00  0.00    +0.159 HD
ATOM      8  H   UNL     1      12.207   3.006   1.117  0.00  0.00    +0.159 HD
ATOM      9  H   UNL     1      11.757   4.555   0.520  0.00  0.00    +0.159 HD
ENDROOT
BRANCH   1  10
ATOM     10  C   UNL     1      14.560   2.076   1.557  0.00  0.00    +0.151 C 
BRANCH  10  11
ATOM     11  C   UNL     1      15.700   1.183   1.152  0.00  0.00    -0.028 A 
ATOM     12  C   UNL     1      16.643   0.757   2.100  0.00  0.00    +0.005 A 
ATOM     13  C   UNL     1      15.839   0.753  -0.177  0.00  0.00    +0.005 A 
ATOM     14  C   UNL     1      17.684  -0.097   1.730  0.00  0.00    +0.000 A 
ATOM     15  C   UNL     1      16.881  -0.099  -0.542  0.00  0.00    +0.000 A 
ATOM     16  C   UNL     1      17.802  -0.526   0.412  0.00  0.00    +0.000 A 
ENDBRANCH  10  11
ENDBRANCH   1  10
TORSDOF 2
ENDMDL
MODEL 4
REMARK VINA RESULT:    -4.204      4.851      6.029
REMARK INTER + INTRA:          -4.876
REMARK INTER:                  -4.755
REMARK INTRA:                  -0.121
REMARK UNBOUND:                -0.180
REMARK  Name = 1550473
REMARK  2 active torsions:
REMARK  status: ('A' for Active; 'I' for Inactive)
REMARK    1  A    between atoms: N_1  and  C_4
REMARK    2  A    between atoms: C_4  and  C_5
REMARK                            x       y       z     vdW  Elec       q    Type
REMARK                         _______ _______ _______ _____ _____    ______ ____
ROOT
ATOM      1  N   UNL     1      10.894  -1.825  -1.558  0.00  0.00    -0.354 N 
ATOM      2  N   UNL     1      10.633   0.327  -0.742  0.00  0.00    -0.372 N 
ATOM      3  N   UNL     1      12.121  -0.039  -2.450  0.00  0.00    -0.372 N 
ATOM      4  C   UNL     1      11.220  -0.526  -1.590  0.00  0.00    +0.166 C 
ATOM      5  H   UNL     1      10.226  -2.136  -0.862  0.00  0.00    +0.163 HD
ATOM      6  H   UNL     1      10.856   1.313  -0.745  0.00  0.00    +0.159 HD
ATOM      7  H   UNL     1       9.932   0.020  -0.078  0.00  0.00    +0.159 HD
ATOM      8  H   UNL     1      12.604  -0.631  -3.112  0.00  0.00    +0.159 HD
ATOM      9  H   UNL     1      12.366   0.944  -2.460  0.00  0.00    +0.159 HD
ENDROOT
BRANCH   1  10
ATOM     10  C   UNL     1      11.435  -2.827  -2.475  0.00  0.00    +0.151 C 
BRANCH  10  11
ATOM     11  C   UNL     1      11.443  -4.166  -1.790  0.00  0.00    -0.028 A 
ATOM     12  C   UNL     1      11.986  -4.304  -0.504  0.00  0.00    +0.005 A 
ATOM     13  C   UNL     1      10.905  -5.298  -2.420  0.00  0.00    +0.005 A 
ATOM     14  C   UNL     1      11.967  -5.541   0.144  0.00  0.00    +0.000 A 
ATOM     15  C   UNL     1      10.889  -6.532  -1.769  0.00  0.00    +0.000 A 
ATOM     16  C   UNL     1      11.417  -6.653  -0.486  0.00  0.00    +0.000 A 
ENDBRANCH  10  11
ENDBRANCH   1  10
TORSDOF 2
ENDMDL
MODEL 5
REMARK VINA RESULT:    -4.186      8.268      9.777
REMARK INTER + INTRA:          -4.855
REMARK INTER:                  -4.675
REMARK INTRA:                  -0.180
REMARK UNBOUND:                -0.180
REMARK  Name = 1550473
REMARK  2 active torsions:
REMARK  status: ('A' for Active; 'I' for Inactive)
REMARK    1  A    between atoms: N_1  and  C_4
REMARK    2  A    between atoms: C_4  and  C_5
REMARK                            x       y       z     vdW  Elec       q    Type
REMARK                         _______ _______ _______ _____ _____    ______ ____
ROOT
ATOM      1  N   UNL     1       8.861  -7.724  -2.121  0.00  0.00    -0.354 N 
ATOM      2  N   UNL     1       6.568  -8.008  -1.961  0.00  0.00    -0.372 N 
ATOM      3  N   UNL     1       7.418  -6.822  -3.732  0.00  0.00    -0.372 N 
ATOM      4  C   UNL     1       7.631  -7.514  -2.608  0.00  0.00    +0.166 C 
ATOM      5  H   UNL     1       8.954  -8.231  -1.249  0.00  0.00    +0.163 HD
ATOM      6  H   UNL     1       5.628  -7.869  -2.307  0.00  0.00    +0.159 HD
ATOM      7  H   UNL     1       6.666  -8.554  -1.114  0.00  0.00    +0.159 HD
ATOM      8  H   UNL     1       8.178  -6.418  -4.265  0.00  0.00    +0.159 HD
ATOM      9  H   UNL     1       6.484  -6.662  -4.088  0.00  0.00    +0.159 HD
ENDROOT
BRANCH   1  10
ATOM     10  C   UNL     1      10.088  -7.276  -2.778  0.00  0.00    +0.151 C 
BRANCH  10  11
ATOM     11  C   UNL     1      10.612  -6.061  -2.063  0.00  0.00    -0.028 A 
ATOM     12  C   UNL     1      11.377  -6.196  -0.896  0.00  0.00    +0.005 A 
ATOM     13  C   UNL     1      10.351  -4.771  -2.552  0.00  0.00    +0.005 A 
ATOM     14  C   UNL     1      11.889  -5.069  -0.249  0.00  0.00    +0.000 A 
ATOM     15  C   UNL     1      10.863  -3.648  -1.902  0.00  0.00    +0.000 A 
ATOM     16  C   UNL     1      11.634  -3.798  -0.752  0.00  0.00    +0.000 A 
ENDBRANCH  10  11
ENDBRANCH   1  10
TORSDOF 2
ENDMDL
MODEL 6
REMARK VINA RESULT:    -3.899     19.321     20.530
REMARK INTER + INTRA:          -4.535
REMARK INTER:                  -4.399
REMARK INTRA:                  -0.136
REMARK UNBOUND:                -0.180
REMARK  Name = 1550473
REMARK  2 active torsions:
REMARK  status: ('A' for Active; 'I' for Inactive)
REMARK    1  A    between atoms: N_1  and  C_4
REMARK    2  A    between atoms: C_4  and  C_5
REMARK                            x       y       z     vdW  Elec       q    Type
REMARK                         _______ _______ _______ _____ _____    ______ ____
ROOT
ATOM      1  N   UNL     1      -2.391  -1.662  12.489  0.00  0.00    -0.354 N 
ATOM      2  N   UNL     1      -2.730  -2.389  10.316  0.00  0.00    -0.372 N 
ATOM      3  N   UNL     1      -1.008  -0.934  10.743  0.00  0.00    -0.372 N 
ATOM      4  C   UNL     1      -2.039  -1.655  11.197  0.00  0.00    +0.166 C 
ATOM      5  H   UNL     1      -3.201  -2.206  12.764  0.00  0.00    +0.163 HD
ATOM      6  H   UNL     1      -2.486  -2.406   9.335  0.00  0.00    +0.159 HD
ATOM      7  H   UNL     1      -3.511  -2.968  10.602  0.00  0.00    +0.159 HD
ATOM      8  H   UNL     1      -0.450  -0.354  11.355  0.00  0.00    +0.159 HD
ATOM      9  H   UNL     1      -0.755  -0.928   9.763  0.00  0.00    +0.159 HD
ENDROOT
BRANCH   1  10
ATOM     10  C   UNL     1      -1.671  -0.941  13.537  0.00  0.00    +0.151 C 
BRANCH  10  11
ATOM     11  C   UNL     1      -0.921  -1.929  14.387  0.00  0.00    -0.028 A 
ATOM     12  C   UNL     1      -1.290  -2.144  15.723  0.00  0.00    +0.005 A 
ATOM     13  C   UNL     1       0.157  -2.657  13.861  0.00  0.00    +0.005 A 
ATOM     14  C   UNL     1      -0.613  -3.083  16.504  0.00  0.00    +0.000 A 
ATOM     15  C   UNL     1       0.831  -3.594  14.645  0.00  0.00    +0.000 A 
ATOM     16  C   UNL     1       0.445  -3.808  15.965  0.00  0.00    +0.000 A 
ENDBRANCH  10  11
ENDBRANCH   1  10
TORSDOF 2
ENDMDL
MODEL 7
REMARK VINA RESULT:    -3.873      7.117      8.642
REMARK INTER + INTRA:          -4.506
REMARK INTER:                  -4.388
REMARK INTRA:                  -0.117
REMARK UNBOUND:                -0.180
REMARK  Name = 1550473
REMARK  2 active torsions:
REMARK  status: ('A' for Active; 'I' for Inactive)
REMARK    1  A    between atoms: N_1  and  C_4
REMARK    2  A    between atoms: C_4  and  C_5
REMARK                            x       y       z     vdW  Elec       q    Type
REMARK                         _______ _______ _______ _____ _____    ______ ____
ROOT
ATOM      1  N   UNL     1       9.607  -5.636  -3.602  0.00  0.00    -0.354 N 
ATOM      2  N   UNL     1       8.501  -7.124  -4.990  0.00  0.00    -0.372 N 
ATOM      3  N   UNL     1       7.523  -6.523  -3.003  0.00  0.00    -0.372 N 
ATOM      4  C   UNL     1       8.549  -6.418  -3.854  0.00  0.00    +0.166 C 
ATOM      5  H   UNL     1      10.366  -5.623  -4.273  0.00  0.00    +0.163 HD
ATOM      6  H   UNL     1       7.714  -7.720  -5.209  0.00  0.00    +0.159 HD
ATOM      7  H   UNL     1       9.241  -7.074  -5.680  0.00  0.00    +0.159 HD
ATOM      8  H   UNL     1       7.500  -6.021  -2.126  0.00  0.00    +0.159 HD
ATOM      9  H   UNL     1       6.731  -7.124  -3.199  0.00  0.00    +0.159 HD
ENDROOT
BRANCH   1  10
ATOM     10  C   UNL     1       9.732  -4.785  -2.420  0.00  0.00    +0.151 C 
BRANCH  10  11
ATOM     11  C   UNL     1      11.072  -4.103  -2.445  0.00  0.00    -0.028 A 
ATOM     12  C   UNL     1      12.177  -4.726  -3.045  0.00  0.00    +0.005 A 
ATOM     13  C   UNL     1      11.243  -2.832  -1.876  0.00  0.00    +0.005 A 
ATOM     14  C   UNL     1      13.415  -4.080  -3.095  0.00  0.00    +0.000 A 
ATOM     15  C   UNL     1      12.481  -2.191  -1.927  0.00  0.00    +0.000 A 
ATOM     16  C   UNL     1      13.566  -2.814  -2.539  0.00  0.00    +0.000 A 
ENDBRANCH  10  11
ENDBRANCH   1  10
TORSDOF 2
ENDMDL
MODEL 8
REMARK VINA RESULT:    -3.772     13.299     14.691
REMARK INTER + INTRA:          -4.393
REMARK INTER:                  -4.253
REMARK INTRA:                  -0.141
REMARK UNBOUND:                -0.180
REMARK  Name = 1550473
REMARK  2 active torsions:
REMARK  status: ('A' for Active; 'I' for Inactive)
REMARK    1  A    between atoms: N_1  and  C_4
REMARK    2  A    between atoms: C_4  and  C_5
REMARK                            x       y       z     vdW  Elec       q    Type
REMARK                         _______ _______ _______ _____ _____    ______ ____
ROOT
ATOM      1  N   UNL     1       5.670  12.299  -6.725  0.00  0.00    -0.354 N 
ATOM      2  N   UNL     1       6.753  10.993  -8.302  0.00  0.00    -0.372 N 
ATOM      3  N   UNL     1       5.693   9.962  -6.547  0.00  0.00    -0.372 N 
ATOM      4  C   UNL     1       6.031  11.091  -7.179  0.00  0.00    +0.166 C 
ATOM      5  H   UNL     1       5.983  13.118  -7.233  0.00  0.00    +0.163 HD
ATOM      6  H   UNL     1       7.037  10.096  -8.670  0.00  0.00    +0.159 HD
ATOM      7  H   UNL     1       7.026  11.811  -8.833  0.00  0.00    +0.159 HD
ATOM      8  H   UNL     1       5.154   9.968  -5.691  0.00  0.00    +0.159 HD
ATOM      9  H   UNL     1       5.978   9.055  -6.894  0.00  0.00    +0.159 HD
ENDROOT
BRANCH   1  10
ATOM     10  C   UNL     1       4.838  12.513  -5.542  0.00  0.00    +0.151 C 
BRANCH  10  11
ATOM     11  C   UNL     1       5.550  13.448  -4.604  0.00  0.00    -0.028 A 
ATOM     12  C   UNL     1       4.839  14.443  -3.916  0.00  0.00    +0.005 A 
ATOM     13  C   UNL     1       6.933  13.341  -4.393  0.00  0.00    +0.005 A 
ATOM     14  C   UNL     1       5.495  15.293  -3.022  0.00  0.00    +0.000 A 
ATOM     15  C   UNL     1       7.584  14.192  -3.500  0.00  0.00    +0.000 A 
ATOM     16  C   UNL     1       6.864  15.166  -2.813  0.00  0.00    +0.000 A 
ENDBRANCH  10  11
ENDBRANCH   1  10
TORSDOF 2
ENDMDL
MODEL 9
REMARK VINA RESULT:    -3.673     24.864     26.059
REMARK INTER + INTRA:          -4.282
REMARK INTER:                  -4.143
REMARK INTRA:                  -0.139
REMARK UNBOUND:                -0.180
REMARK  Name = 1550473
REMARK  2 active torsions:
REMARK  status: ('A' for Active; 'I' for Inactive)
REMARK    1  A    between atoms: N_1  and  C_4
REMARK    2  A    between atoms: C_4  and  C_5
REMARK                            x       y       z     vdW  Elec       q    Type
REMARK                         _______ _______ _______ _____ _____    ______ ____
ROOT
ATOM      1  N   UNL     1      -6.286 -15.661  -7.557  0.00  0.00    -0.354 N 
ATOM      2  N   UNL     1      -7.392 -15.149  -5.587  0.00  0.00    -0.372 N 
ATOM      3  N   UNL     1      -7.997 -14.060  -7.514  0.00  0.00    -0.372 N 
ATOM      4  C   UNL     1      -7.219 -14.958  -6.901  0.00  0.00    +0.166 C 
ATOM      5  H   UNL     1      -5.708 -16.304  -7.029  0.00  0.00    +0.163 HD
ATOM      6  H   UNL     1      -8.091 -14.636  -5.066  0.00  0.00    +0.159 HD
ATOM      7  H   UNL     1      -6.844 -15.827  -5.071  0.00  0.00    +0.159 HD
ATOM      8  H   UNL     1      -7.912 -13.864  -8.503  0.00  0.00    +0.159 HD
ATOM      9  H   UNL     1      -8.694 -13.528  -7.007  0.00  0.00    +0.159 HD
ENDROOT
BRANCH   1  10
ATOM     10  C   UNL     1      -6.054 -15.566  -8.997  0.00  0.00    +0.151 C 
BRANCH  10  11
ATOM     11  C   UNL     1      -4.611 -15.218  -9.240  0.00  0.00    -0.028 A 
ATOM     12  C   UNL     1      -3.757 -14.932  -8.166  0.00  0.00    +0.005 A 
ATOM     13  C   UNL     1      -4.091 -15.178 -10.543  0.00  0.00    +0.005 A 
ATOM     14  C   UNL     1      -2.410 -14.638  -8.389  0.00  0.00    +0.000 A 
ATOM     15  C   UNL     1      -2.746 -14.883 -10.762  0.00  0.00    +0.000 A 
ATOM     16  C   UNL     1      -1.905 -14.616  -9.685  0.00  0.00    +0.000 A 
ENDBRANCH  10  11
ENDBRANCH   1  10
TORSDOF 2
ENDMDL
