MODEL 1
REMARK VINA RESULT:    -6.386      0.000      0.000
REMARK INTER + INTRA:          -7.255
REMARK INTER:                  -7.132
REMARK INTRA:                  -0.122
REMARK UNBOUND:                -0.122
REMARK  Name = 1550473
REMARK  2 active torsions:
REMARK  status: ('A' for Active; 'I' for Inactive)
REMARK    1  A    between atoms: N_1  and  C_4
REMARK    2  A    between atoms: C_4  and  C_5
REMARK                            x       y       z     vdW  Elec       q    Type
REMARK                         _______ _______ _______ _____ _____    ______ ____
ROOT
ATOM      1  N   UNL     1       3.353  -6.346  -6.651  0.00  0.00    -0.354 N 
ATOM      2  N   UNL     1       3.160  -5.663  -4.446  0.00  0.00    -0.372 N 
ATOM      3  N   UNL     1       1.610  -7.128  -5.294  0.00  0.00    -0.372 N 
ATOM      4  C   UNL     1       2.707  -6.385  -5.478  0.00  0.00    +0.166 C 
ATOM      5  H   UNL     1       4.161  -5.739  -6.735  0.00  0.00    +0.163 HD
ATOM      6  H   UNL     1       2.695  -5.675  -3.548  0.00  0.00    +0.159 HD
ATOM      7  H   UNL     1       3.994  -5.094  -4.520  0.00  0.00    +0.159 HD
ATOM      8  H   UNL     1       1.214  -7.690  -6.035  0.00  0.00    +0.159 HD
ATOM      9  H   UNL     1       1.124  -7.144  -4.406  0.00  0.00    +0.159 HD
ENDROOT
BRANCH   1  10
ATOM     10  C   UNL     1       2.973  -7.135  -7.821  0.00  0.00    +0.151 C 
BRANCH  10  11
ATOM     11  C   UNL     1       4.181  -7.872  -8.330  0.00  0.00    -0.028 A 
ATOM     12  C   UNL     1       4.148  -9.264  -8.496  0.00  0.00    +0.005 A 
ATOM     13  C   UNL     1       5.360  -7.183  -8.653  0.00  0.00    +0.005 A 
ATOM     14  C   UNL     1       5.260  -9.946  -8.997  0.00  0.00    +0.000 A 
ATOM     15  C   UNL     1       6.468  -7.867  -9.153  0.00  0.00    +0.000 A 
ATOM     16  C   UNL     1       6.417  -9.248  -9.327  0.00  0.00    +0.000 A 
ENDBRANCH  10  11
ENDBRANCH   1  10
TORSDOF 2
ENDMDL
MODEL 2
REMARK VINA RESULT:    -5.902     12.709     13.739
REMARK INTER + INTRA:          -6.715
REMARK INTER:                  -6.571
REMARK INTRA:                  -0.144
REMARK UNBOUND:                -0.122
REMARK  Name = 1550473
REMARK  2 active torsions:
REMARK  status: ('A' for Active; 'I' for Inactive)
REMARK    1  A    between atoms: N_1  and  C_4
REMARK    2  A    between atoms: C_4  and  C_5
REMARK                            x       y       z     vdW  Elec       q    Type
REMARK                         _______ _______ _______ _____ _____    ______ ____
ROOT
ATOM      1  N   UNL     1      11.649   5.462  -8.312  0.00  0.00    -0.354 N 
ATOM      2  N   UNL     1      10.896   7.651  -8.226  0.00  0.00    -0.372 N 
ATOM      3  N   UNL     1      11.734   6.691  -6.318  0.00  0.00    -0.372 N 
ATOM      4  C   UNL     1      11.432   6.587  -7.617  0.00  0.00    +0.166 C 
ATOM      5  H   UNL     1      11.370   5.437  -9.286  0.00  0.00    +0.163 HD
ATOM      6  H   UNL     1      10.723   8.514  -7.728  0.00  0.00    +0.159 HD
ATOM      7  H   UNL     1      10.660   7.638  -9.211  0.00  0.00    +0.159 HD
ATOM      8  H   UNL     1      12.135   5.922  -5.798  0.00  0.00    +0.159 HD
ATOM      9  H   UNL     1      11.558   7.543  -5.800  0.00  0.00    +0.159 HD
ENDROOT
BRANCH   1  10
ATOM     10  C   UNL     1      12.277   4.265  -7.756  0.00  0.00    +0.151 C 
BRANCH  10  11
ATOM     11  C   UNL     1      11.410   3.073  -8.052  0.00  0.00    -0.028 A 
ATOM     12  C   UNL     1      11.657   1.841  -7.429  0.00  0.00    +0.005 A 
ATOM     13  C   UNL     1      10.337   3.170  -8.951  0.00  0.00    +0.005 A 
ATOM     14  C   UNL     1      10.833   0.741  -7.681  0.00  0.00    +0.000 A 
ATOM     15  C   UNL     1       9.518   2.069  -9.201  0.00  0.00    +0.000 A 
ATOM     16  C   UNL     1       9.765   0.855  -8.564  0.00  0.00    +0.000 A 
ENDBRANCH  10  11
ENDBRANCH   1  10
TORSDOF 2
ENDMDL
MODEL 3
REMARK VINA RESULT:    -5.752     12.658     13.775
REMARK INTER + INTRA:          -6.547
REMARK INTER:                  -6.416
REMARK INTRA:                  -0.130
REMARK UNBOUND:                -0.122
REMARK  Name = 1550473
REMARK  2 active torsions:
REMARK  status: ('A' for Active; 'I' for Inactive)
REMARK    1  A    between atoms: N_1  and  C_4
REMARK    2  A    between atoms: C_4  and  C_5
REMARK                            x       y       z     vdW  Elec       q    Type
REMARK                         _______ _______ _______ _____ _____    ______ ____
ROOT
ATOM      1  N   UNL     1      13.042   3.952  -6.526  0.00  0.00    -0.354 N 
ATOM      2  N   UNL     1      14.777   4.204  -5.013  0.00  0.00    -0.372 N 
ATOM      3  N   UNL     1      15.015   5.063  -7.127  0.00  0.00    -0.372 N 
ATOM      4  C   UNL     1      14.268   4.406  -6.234  0.00  0.00    +0.166 C 
ATOM      5  H   UNL     1      12.538   3.435  -5.814  0.00  0.00    +0.163 HD
ATOM      6  H   UNL     1      15.698   4.538  -4.763  0.00  0.00    +0.159 HD
ATOM      7  H   UNL     1      14.253   3.727  -4.289  0.00  0.00    +0.159 HD
ATOM      8  H   UNL     1      14.691   5.243  -8.068  0.00  0.00    +0.159 HD
ATOM      9  H   UNL     1      15.944   5.395  -6.899  0.00  0.00    +0.159 HD
ENDROOT
BRANCH   1  10
ATOM     10  C   UNL     1      12.374   4.167  -7.808  0.00  0.00    +0.151 C 
BRANCH  10  11
ATOM     11  C   UNL     1      11.446   3.014  -8.077  0.00  0.00    -0.028 A 
ATOM     12  C   UNL     1      10.385   3.152  -8.984  0.00  0.00    +0.005 A 
ATOM     13  C   UNL     1      11.625   1.781  -7.433  0.00  0.00    +0.005 A 
ATOM     14  C   UNL     1       9.540   2.073  -9.257  0.00  0.00    +0.000 A 
ATOM     15  C   UNL     1      10.779   0.706  -7.707  0.00  0.00    +0.000 A 
ATOM     16  C   UNL     1       9.739   0.852  -8.621  0.00  0.00    +0.000 A 
ENDBRANCH  10  11
ENDBRANCH   1  10
TORSDOF 2
ENDMDL
MODEL 4
REMARK VINA RESULT:    -5.740     12.603     13.661
REMARK INTER + INTRA:          -6.534
REMARK INTER:                  -6.410
REMARK INTRA:                  -0.123
REMARK UNBOUND:                -0.122
REMARK  Name = 1550473
REMARK  2 active torsions:
REMARK  status: ('A' for Active; 'I' for Inactive)
REMARK    1  A    between atoms: N_1  and  C_4
REMARK    2  A    between atoms: C_4  and  C_5
REMARK                            x       y       z     vdW  Elec       q    Type
REMARK                         _______ _______ _______ _____ _____    ______ ____
ROOT
ATOM      1  N   UNL     1      12.990   4.498  -7.942  0.00  0.00    -0.354 N 
ATOM      2  N   UNL     1      14.461   5.279  -6.333  0.00  0.00    -0.372 N 
ATOM      3  N   UNL     1      12.376   6.225  -6.481  0.00  0.00    -0.372 N 
ATOM      4  C   UNL     1      13.264   5.331  -6.929  0.00  0.00    +0.166 C 
ATOM      5  H   UNL     1      13.717   3.864  -8.254  0.00  0.00    +0.163 HD
ATOM      6  H   UNL     1      14.696   5.892  -5.564  0.00  0.00    +0.159 HD
ATOM      7  H   UNL     1      15.170   4.613  -6.617  0.00  0.00    +0.159 HD
ATOM      8  H   UNL     1      11.457   6.319  -6.892  0.00  0.00    +0.159 HD
ATOM      9  H   UNL     1      12.596   6.855  -5.720  0.00  0.00    +0.159 HD
ENDROOT
BRANCH   1  10
ATOM     10  C   UNL     1      11.698   4.437  -8.624  0.00  0.00    +0.151 C 
BRANCH  10  11
ATOM     11  C   UNL     1      11.124   3.057  -8.464  0.00  0.00    -0.028 A 
ATOM     12  C   UNL     1      11.709   2.140  -7.579  0.00  0.00    +0.005 A 
ATOM     13  C   UNL     1       9.991   2.661  -9.192  0.00  0.00    +0.005 A 
ATOM     14  C   UNL     1      11.158   0.867  -7.408  0.00  0.00    +0.000 A 
ATOM     15  C   UNL     1       9.444   1.389  -9.019  0.00  0.00    +0.000 A 
ATOM     16  C   UNL     1      10.027   0.494  -8.126  0.00  0.00    +0.000 A 
ENDBRANCH  10  11
ENDBRANCH   1  10
TORSDOF 2
ENDMDL
MODEL 5
REMARK VINA RESULT:    -5.608      3.506      4.197
REMARK INTER + INTRA:          -6.387
REMARK INTER:                  -6.253
REMARK INTRA:                  -0.134
REMARK UNBOUND:                -0.122
REMARK  Name = 1550473
REMARK  2 active torsions:
REMARK  status: ('A' for Active; 'I' for Inactive)
REMARK    1  A    between atoms: N_1  and  C_4
REMARK    2  A    between atoms: C_4  and  C_5
REMARK                            x       y       z     vdW  Elec       q    Type
REMARK                         _______ _______ _______ _____ _____    ______ ____
ROOT
ATOM      1  N   UNL     1       4.468  -5.430  -5.926  0.00  0.00    -0.354 N 
ATOM      2  N   UNL     1       2.460  -6.354  -6.616  0.00  0.00    -0.372 N 
ATOM      3  N   UNL     1       2.786  -5.952  -4.381  0.00  0.00    -0.372 N 
ATOM      4  C   UNL     1       3.251  -5.906  -5.634  0.00  0.00    +0.166 C 
ATOM      5  H   UNL     1       4.774  -5.451  -6.893  0.00  0.00    +0.163 HD
ATOM      6  H   UNL     1       1.535  -6.715  -6.426  0.00  0.00    +0.159 HD
ATOM      7  H   UNL     1       2.750  -6.331  -7.586  0.00  0.00    +0.159 HD
ATOM      8  H   UNL     1       3.336  -5.634  -3.594  0.00  0.00    +0.159 HD
ATOM      9  H   UNL     1       1.867  -6.321  -4.169  0.00  0.00    +0.159 HD
ENDROOT
BRANCH   1  10
ATOM     10  C   UNL     1       5.387  -4.869  -4.937  0.00  0.00    +0.151 C 
BRANCH  10  11
ATOM     11  C   UNL     1       6.795  -5.250  -5.302  0.00  0.00    -0.028 A 
ATOM     12  C   UNL     1       7.053  -6.440  -5.998  0.00  0.00    +0.005 A 
ATOM     13  C   UNL     1       7.875  -4.422  -4.960  0.00  0.00    +0.005 A 
ATOM     14  C   UNL     1       8.358  -6.779  -6.364  0.00  0.00    +0.000 A 
ATOM     15  C   UNL     1       9.177  -4.765  -5.326  0.00  0.00    +0.000 A 
ATOM     16  C   UNL     1       9.417  -5.942  -6.030  0.00  0.00    +0.000 A 
ENDBRANCH  10  11
ENDBRANCH   1  10
TORSDOF 2
ENDMDL
MODEL 6
REMARK VINA RESULT:    -4.946      3.034      3.616
REMARK INTER + INTRA:          -5.647
REMARK INTER:                  -5.535
REMARK INTRA:                  -0.112
REMARK UNBOUND:                -0.122
REMARK  Name = 1550473
REMARK  2 active torsions:
REMARK  status: ('A' for Active; 'I' for Inactive)
REMARK    1  A    between atoms: N_1  and  C_4
REMARK    2  A    between atoms: C_4  and  C_5
REMARK                            x       y       z     vdW  Elec       q    Type
REMARK                         _______ _______ _______ _____ _____    ______ ____
ROOT
ATOM      1  N   UNL     1       7.350  -7.295  -4.880  0.00  0.00    -0.354 N 
ATOM      2  N   UNL     1       7.378  -8.224  -2.759  0.00  0.00    -0.372 N 
ATOM      3  N   UNL     1       6.114  -6.345  -3.130  0.00  0.00    -0.372 N 
ATOM      4  C   UNL     1       6.945  -7.280  -3.603  0.00  0.00    +0.166 C 
ATOM      5  H   UNL     1       8.004  -8.013  -5.169  0.00  0.00    +0.163 HD
ATOM      6  H   UNL     1       7.087  -8.240  -1.790  0.00  0.00    +0.159 HD
ATOM      7  H   UNL     1       7.996  -8.967  -3.062  0.00  0.00    +0.159 HD
ATOM      8  H   UNL     1       5.756  -5.602  -3.714  0.00  0.00    +0.159 HD
ATOM      9  H   UNL     1       5.821  -6.338  -2.161  0.00  0.00    +0.159 HD
ENDROOT
BRANCH   1  10
ATOM     10  C   UNL     1       6.895  -6.344  -5.893  0.00  0.00    +0.151 C 
BRANCH  10  11
ATOM     11  C   UNL     1       6.632  -7.082  -7.177  0.00  0.00    -0.028 A 
ATOM     12  C   UNL     1       5.386  -6.981  -7.813  0.00  0.00    +0.005 A 
ATOM     13  C   UNL     1       7.626  -7.879  -7.764  0.00  0.00    +0.005 A 
ATOM     14  C   UNL     1       5.151  -7.642  -9.021  0.00  0.00    +0.000 A 
ATOM     15  C   UNL     1       7.387  -8.538  -8.970  0.00  0.00    +0.000 A 
ATOM     16  C   UNL     1       6.151  -8.417  -9.600  0.00  0.00    +0.000 A 
ENDBRANCH  10  11
ENDBRANCH   1  10
TORSDOF 2
ENDMDL
MODEL 7
REMARK VINA RESULT:    -4.641      3.259      3.860
REMARK INTER + INTRA:          -5.306
REMARK INTER:                  -5.185
REMARK INTRA:                  -0.121
REMARK UNBOUND:                -0.122
REMARK  Name = 1550473
REMARK  2 active torsions:
REMARK  status: ('A' for Active; 'I' for Inactive)
REMARK    1  A    between atoms: N_1  and  C_4
REMARK    2  A    between atoms: C_4  and  C_5
REMARK                            x       y       z     vdW  Elec       q    Type
REMARK                         _______ _______ _______ _____ _____    ______ ____
ROOT
ATOM      1  N   UNL     1       7.340  -5.854  -5.736  0.00  0.00    -0.354 N 
ATOM      2  N   UNL     1       7.632  -3.734  -4.851  0.00  0.00    -0.372 N 
ATOM      3  N   UNL     1       8.121  -5.557  -3.547  0.00  0.00    -0.372 N 
ATOM      4  C   UNL     1       7.696  -5.064  -4.715  0.00  0.00    +0.166 C 
ATOM      5  H   UNL     1       6.998  -5.419  -6.585  0.00  0.00    +0.163 HD
ATOM      6  H   UNL     1       7.898  -3.112  -4.099  0.00  0.00    +0.159 HD
ATOM      7  H   UNL     1       7.333  -3.301  -5.716  0.00  0.00    +0.159 HD
ATOM      8  H   UNL     1       8.187  -6.552  -3.378  0.00  0.00    +0.159 HD
ATOM      9  H   UNL     1       8.381  -4.952  -2.778  0.00  0.00    +0.159 HD
ENDROOT
BRANCH   1  10
ATOM     10  C   UNL     1       7.424  -7.313  -5.709  0.00  0.00    +0.151 C 
BRANCH  10  11
ATOM     11  C   UNL     1       6.817  -7.864  -6.970  0.00  0.00    -0.028 A 
ATOM     12  C   UNL     1       7.075  -9.184  -7.367  0.00  0.00    +0.005 A 
ATOM     13  C   UNL     1       5.978  -7.072  -7.769  0.00  0.00    +0.005 A 
ATOM     14  C   UNL     1       6.488  -9.706  -8.522  0.00  0.00    +0.000 A 
ATOM     15  C   UNL     1       5.394  -7.596  -8.922  0.00  0.00    +0.000 A 
ATOM     16  C   UNL     1       5.647  -8.914  -9.297  0.00  0.00    +0.000 A 
ENDBRANCH  10  11
ENDBRANCH   1  10
TORSDOF 2
ENDMDL
MODEL 8
REMARK VINA RESULT:    -4.613      8.038     10.050
REMARK INTER + INTRA:          -5.275
REMARK INTER:                  -5.175
REMARK INTRA:                  -0.100
REMARK UNBOUND:                -0.122
REMARK  Name = 1550473
REMARK  2 active torsions:
REMARK  status: ('A' for Active; 'I' for Inactive)
REMARK    1  A    between atoms: N_1  and  C_4
REMARK    2  A    between atoms: C_4  and  C_5
REMARK                            x       y       z     vdW  Elec       q    Type
REMARK                         _______ _______ _______ _____ _____    ______ ____
ROOT
ATOM      1  N   UNL     1      -2.991  -7.429  -9.212  0.00  0.00    -0.354 N 
ATOM      2  N   UNL     1      -1.250  -7.530 -10.735  0.00  0.00    -0.372 N 
ATOM      3  N   UNL     1      -2.470  -9.428 -10.318  0.00  0.00    -0.372 N 
ATOM      4  C   UNL     1      -2.249  -8.131 -10.078  0.00  0.00    +0.166 C 
ATOM      5  H   UNL     1      -2.754  -6.457  -9.052  0.00  0.00    +0.163 HD
ATOM      6  H   UNL     1      -0.675  -8.034 -11.398  0.00  0.00    +0.159 HD
ATOM      7  H   UNL     1      -1.044  -6.547 -10.608  0.00  0.00    +0.159 HD
ATOM      8  H   UNL     1      -3.205  -9.941  -9.850  0.00  0.00    +0.159 HD
ATOM      9  H   UNL     1      -1.898  -9.952 -10.968  0.00  0.00    +0.159 HD
ENDROOT
BRANCH   1  10
ATOM     10  C   UNL     1      -4.136  -7.975  -8.485  0.00  0.00    +0.151 C 
BRANCH  10  11
ATOM     11  C   UNL     1      -5.137  -6.878  -8.249  0.00  0.00    -0.028 A 
ATOM     12  C   UNL     1      -6.391  -6.911  -8.876  0.00  0.00    +0.005 A 
ATOM     13  C   UNL     1      -4.840  -5.805  -7.395  0.00  0.00    +0.005 A 
ATOM     14  C   UNL     1      -7.333  -5.908  -8.634  0.00  0.00    +0.000 A 
ATOM     15  C   UNL     1      -5.782  -4.804  -7.157  0.00  0.00    +0.000 A 
ATOM     16  C   UNL     1      -7.029  -4.858  -7.774  0.00  0.00    +0.000 A 
ENDBRANCH  10  11
ENDBRANCH   1  10
TORSDOF 2
ENDMDL
MODEL 9
REMARK VINA RESULT:    -4.578      6.965      7.706
REMARK INTER + INTRA:          -5.236
REMARK INTER:                  -5.145
REMARK INTRA:                  -0.091
REMARK UNBOUND:                -0.122
REMARK  Name = 1550473
REMARK  2 active torsions:
REMARK  status: ('A' for Active; 'I' for Inactive)
REMARK    1  A    between atoms: N_1  and  C_4
REMARK    2  A    between atoms: C_4  and  C_5
REMARK                            x       y       z     vdW  Elec       q    Type
REMARK                         _______ _______ _______ _____ _____    ______ ____
ROOT
ATOM      1  N   UNL     1      -1.004  -9.462 -11.809  0.00  0.00    -0.354 N 
ATOM      2  N   UNL     1      -1.254  -7.445 -10.697  0.00  0.00    -0.372 N 
ATOM      3  N   UNL     1      -2.849  -9.071 -10.417  0.00  0.00    -0.372 N 
ATOM      4  C   UNL     1      -1.704  -8.674 -10.981  0.00  0.00    +0.166 C 
ATOM      5  H   UNL     1      -0.159  -9.091 -12.227  0.00  0.00    +0.163 HD
ATOM      6  H   UNL     1      -1.759  -6.830 -10.073  0.00  0.00    +0.159 HD
ATOM      7  H   UNL     1      -0.386  -7.094 -11.081  0.00  0.00    +0.159 HD
ATOM      8  H   UNL     1      -3.245  -9.985 -10.595  0.00  0.00    +0.159 HD
ATOM      9  H   UNL     1      -3.374  -8.465  -9.799  0.00  0.00    +0.159 HD
ENDROOT
BRANCH   1  10
ATOM     10  C   UNL     1      -1.378 -10.836 -12.140  0.00  0.00    +0.151 C 
BRANCH  10  11
ATOM     11  C   UNL     1      -0.388 -11.390 -13.127  0.00  0.00    -0.028 A 
ATOM     12  C   UNL     1      -0.548 -11.162 -14.501  0.00  0.00    +0.005 A 
ATOM     13  C   UNL     1       0.717 -12.139 -12.693  0.00  0.00    +0.005 A 
ATOM     14  C   UNL     1       0.388 -11.651 -15.416  0.00  0.00    +0.000 A 
ATOM     15  C   UNL     1       1.649 -12.626 -13.609  0.00  0.00    +0.000 A 
ATOM     16  C   UNL     1       1.485 -12.380 -14.970  0.00  0.00    +0.000 A 
ENDBRANCH  10  11
ENDBRANCH   1  10
TORSDOF 2
ENDMDL
