MODEL 1
REMARK VINA RESULT:    -4.563      0.000      0.000
REMARK INTER + INTRA:          -5.224
REMARK INTER:                  -5.096
REMARK INTRA:                  -0.128
REMARK UNBOUND:                -0.128
REMARK  Name = 1550473
REMARK  2 active torsions:
REMARK  status: ('A' for Active; 'I' for Inactive)
REMARK    1  A    between atoms: N_1  and  C_4
REMARK    2  A    between atoms: C_4  and  C_5
REMARK                            x       y       z     vdW  Elec       q    Type
REMARK                         _______ _______ _______ _____ _____    ______ ____
ROOT
ATOM      1  N   UNL     1      14.118  12.094  38.774  0.00  0.00    -0.354 N 
ATOM      2  N   UNL     1      13.190  13.983  37.809  0.00  0.00    -0.372 N 
ATOM      3  N   UNL     1      13.611  13.983  40.065  0.00  0.00    -0.372 N 
ATOM      4  C   UNL     1      13.646  13.342  38.892  0.00  0.00    +0.166 C 
ATOM      5  H   UNL     1      14.089  11.652  37.862  0.00  0.00    +0.163 HD
ATOM      6  H   UNL     1      12.830  14.927  37.867  0.00  0.00    +0.159 HD
ATOM      7  H   UNL     1      13.204  13.557  36.891  0.00  0.00    +0.159 HD
ATOM      8  H   UNL     1      13.935  13.551  40.921  0.00  0.00    +0.159 HD
ATOM      9  H   UNL     1      13.244  14.923  40.145  0.00  0.00    +0.159 HD
ENDROOT
BRANCH   1  10
ATOM     10  C   UNL     1      14.687  11.327  39.881  0.00  0.00    +0.151 C 
BRANCH  10  11
ATOM     11  C   UNL     1      15.629  10.292  39.329  0.00  0.00    -0.028 A 
ATOM     12  C   UNL     1      16.045   9.213  40.122  0.00  0.00    +0.005 A 
ATOM     13  C   UNL     1      16.103  10.382  38.011  0.00  0.00    +0.005 A 
ATOM     14  C   UNL     1      16.896   8.236  39.601  0.00  0.00    +0.000 A 
ATOM     15  C   UNL     1      16.953   9.404  37.494  0.00  0.00    +0.000 A 
ATOM     16  C   UNL     1      17.347   8.330  38.288  0.00  0.00    +0.000 A 
ENDBRANCH  10  11
ENDBRANCH   1  10
TORSDOF 2
ENDMDL
MODEL 2
REMARK VINA RESULT:    -4.261      8.926     10.200
REMARK INTER + INTRA:          -4.887
REMARK INTER:                  -4.765
REMARK INTRA:                  -0.122
REMARK UNBOUND:                -0.128
REMARK  Name = 1550473
REMARK  2 active torsions:
REMARK  status: ('A' for Active; 'I' for Inactive)
REMARK    1  A    between atoms: N_1  and  C_4
REMARK    2  A    between atoms: C_4  and  C_5
REMARK                            x       y       z     vdW  Elec       q    Type
REMARK                         _______ _______ _______ _____ _____    ______ ____
ROOT
ATOM      1  N   UNL     1      17.798  20.937  40.039  0.00  0.00    -0.354 N 
ATOM      2  N   UNL     1      18.076  22.490  41.735  0.00  0.00    -0.372 N 
ATOM      3  N   UNL     1      18.855  20.355  42.048  0.00  0.00    -0.372 N 
ATOM      4  C   UNL     1      18.242  21.248  41.264  0.00  0.00    +0.166 C 
ATOM      5  H   UNL     1      17.315  21.652  39.506  0.00  0.00    +0.163 HD
ATOM      6  H   UNL     1      18.403  22.755  42.654  0.00  0.00    +0.159 HD
ATOM      7  H   UNL     1      17.634  23.215  41.182  0.00  0.00    +0.159 HD
ATOM      8  H   UNL     1      19.006  19.399  41.754  0.00  0.00    +0.159 HD
ATOM      9  H   UNL     1      19.179  20.598  42.976  0.00  0.00    +0.159 HD
ENDROOT
BRANCH   1  10
ATOM     10  C   UNL     1      17.978  19.629  39.412  0.00  0.00    +0.151 C 
BRANCH  10  11
ATOM     11  C   UNL     1      17.467  19.687  37.999  0.00  0.00    -0.028 A 
ATOM     12  C   UNL     1      17.197  18.508  37.290  0.00  0.00    +0.005 A 
ATOM     13  C   UNL     1      17.247  20.920  37.365  0.00  0.00    +0.005 A 
ATOM     14  C   UNL     1      16.694  18.562  35.988  0.00  0.00    +0.000 A 
ATOM     15  C   UNL     1      16.746  20.969  36.064  0.00  0.00    +0.000 A 
ATOM     16  C   UNL     1      16.467  19.790  35.377  0.00  0.00    +0.000 A 
ENDBRANCH  10  11
ENDBRANCH   1  10
TORSDOF 2
ENDMDL
MODEL 3
REMARK VINA RESULT:    -4.166      3.129      4.562
REMARK INTER + INTRA:          -4.781
REMARK INTER:                  -4.631
REMARK INTRA:                  -0.151
REMARK UNBOUND:                -0.128
REMARK  Name = 1550473
REMARK  2 active torsions:
REMARK  status: ('A' for Active; 'I' for Inactive)
REMARK    1  A    between atoms: N_1  and  C_4
REMARK    2  A    between atoms: C_4  and  C_5
REMARK                            x       y       z     vdW  Elec       q    Type
REMARK                         _______ _______ _______ _____ _____    ______ ____
ROOT
ATOM      1  N   UNL     1      14.937  11.878  38.681  0.00  0.00    -0.354 N 
ATOM      2  N   UNL     1      14.533   9.957  39.910  0.00  0.00    -0.372 N 
ATOM      3  N   UNL     1      13.649  11.946  40.637  0.00  0.00    -0.372 N 
ATOM      4  C   UNL     1      14.375  11.275  39.736  0.00  0.00    +0.166 C 
ATOM      5  H   UNL     1      15.501  11.319  38.051  0.00  0.00    +0.163 HD
ATOM      6  H   UNL     1      14.118   9.474  40.695  0.00  0.00    +0.159 HD
ATOM      7  H   UNL     1      15.059   9.393  39.254  0.00  0.00    +0.159 HD
ATOM      8  H   UNL     1      13.496  12.943  40.566  0.00  0.00    +0.159 HD
ATOM      9  H   UNL     1      13.234  11.482  41.436  0.00  0.00    +0.159 HD
ENDROOT
BRANCH   1  10
ATOM     10  C   UNL     1      14.780  13.298  38.371  0.00  0.00    +0.151 C 
BRANCH  10  11
ATOM     11  C   UNL     1      16.129  13.962  38.415  0.00  0.00    -0.028 A 
ATOM     12  C   UNL     1      17.301  13.203  38.288  0.00  0.00    +0.005 A 
ATOM     13  C   UNL     1      16.241  15.352  38.577  0.00  0.00    +0.005 A 
ATOM     14  C   UNL     1      18.553  13.823  38.298  0.00  0.00    +0.000 A 
ATOM     15  C   UNL     1      17.493  15.967  38.588  0.00  0.00    +0.000 A 
ATOM     16  C   UNL     1      18.648  15.202  38.446  0.00  0.00    +0.000 A 
ENDBRANCH  10  11
ENDBRANCH   1  10
TORSDOF 2
ENDMDL
MODEL 4
REMARK VINA RESULT:    -4.064      3.032      3.987
REMARK INTER + INTRA:          -4.667
REMARK INTER:                  -4.557
REMARK INTRA:                  -0.110
REMARK UNBOUND:                -0.128
REMARK  Name = 1550473
REMARK  2 active torsions:
REMARK  status: ('A' for Active; 'I' for Inactive)
REMARK    1  A    between atoms: N_1  and  C_4
REMARK    2  A    between atoms: C_4  and  C_5
REMARK                            x       y       z     vdW  Elec       q    Type
REMARK                         _______ _______ _______ _____ _____    ______ ____
ROOT
ATOM      1  N   UNL     1      16.556  15.234  38.422  0.00  0.00    -0.354 N 
ATOM      2  N   UNL     1      18.096  16.961  38.339  0.00  0.00    -0.372 N 
ATOM      3  N   UNL     1      16.372  16.939  36.825  0.00  0.00    -0.372 N 
ATOM      4  C   UNL     1      16.996  16.367  37.860  0.00  0.00    +0.166 C 
ATOM      5  H   UNL     1      17.091  14.835  39.185  0.00  0.00    +0.163 HD
ATOM      6  H   UNL     1      18.450  17.819  37.938  0.00  0.00    +0.159 HD
ATOM      7  H   UNL     1      18.603  16.585  39.131  0.00  0.00    +0.159 HD
ATOM      8  H   UNL     1      15.540  16.537  36.413  0.00  0.00    +0.159 HD
ATOM      9  H   UNL     1      16.718  17.791  36.402  0.00  0.00    +0.159 HD
ENDROOT
BRANCH   1  10
ATOM     10  C   UNL     1      15.338  14.537  38.011  0.00  0.00    +0.151 C 
BRANCH  10  11
ATOM     11  C   UNL     1      15.332  13.160  38.616  0.00  0.00    -0.028 A 
ATOM     12  C   UNL     1      14.197  12.683  39.288  0.00  0.00    +0.005 A 
ATOM     13  C   UNL     1      16.456  12.326  38.517  0.00  0.00    +0.005 A 
ATOM     14  C   UNL     1      14.180  11.393  39.824  0.00  0.00    +0.000 A 
ATOM     15  C   UNL     1      16.435  11.039  39.055  0.00  0.00    +0.000 A 
ATOM     16  C   UNL     1      15.296  10.572  39.706  0.00  0.00    +0.000 A 
ENDBRANCH  10  11
ENDBRANCH   1  10
TORSDOF 2
ENDMDL
MODEL 5
REMARK VINA RESULT:    -4.061      7.680      9.054
REMARK INTER + INTRA:          -4.664
REMARK INTER:                  -4.538
REMARK INTRA:                  -0.126
REMARK UNBOUND:                -0.128
REMARK  Name = 1550473
REMARK  2 active torsions:
REMARK  status: ('A' for Active; 'I' for Inactive)
REMARK    1  A    between atoms: N_1  and  C_4
REMARK    2  A    between atoms: C_4  and  C_5
REMARK                            x       y       z     vdW  Elec       q    Type
REMARK                         _______ _______ _______ _____ _____    ______ ____
ROOT
ATOM      1  N   UNL     1      16.528  18.404  36.101  0.00  0.00    -0.354 N 
ATOM      2  N   UNL     1      17.070  20.058  37.630  0.00  0.00    -0.372 N 
ATOM      3  N   UNL     1      17.963  20.164  35.519  0.00  0.00    -0.372 N 
ATOM      4  C   UNL     1      17.185  19.532  36.405  0.00  0.00    +0.166 C 
ATOM      5  H   UNL     1      15.979  17.958  36.827  0.00  0.00    +0.163 HD
ATOM      6  H   UNL     1      17.551  20.910  37.887  0.00  0.00    +0.159 HD
ATOM      7  H   UNL     1      16.483  19.635  38.339  0.00  0.00    +0.159 HD
ATOM      8  H   UNL     1      18.097  19.815  34.579  0.00  0.00    +0.159 HD
ATOM      9  H   UNL     1      18.461  21.011  35.761  0.00  0.00    +0.159 HD
ENDROOT
BRANCH   1  10
ATOM     10  C   UNL     1      16.544  17.779  34.780  0.00  0.00    +0.151 C 
BRANCH  10  11
ATOM     11  C   UNL     1      15.128  17.547  34.330  0.00  0.00    -0.028 A 
ATOM     12  C   UNL     1      14.401  16.447  34.806  0.00  0.00    +0.005 A 
ATOM     13  C   UNL     1      14.506  18.428  33.431  0.00  0.00    +0.005 A 
ATOM     14  C   UNL     1      13.076  16.248  34.411  0.00  0.00    +0.000 A 
ATOM     15  C   UNL     1      13.183  18.225  33.039  0.00  0.00    +0.000 A 
ATOM     16  C   UNL     1      12.468  17.136  33.531  0.00  0.00    +0.000 A 
ENDBRANCH  10  11
ENDBRANCH   1  10
TORSDOF 2
ENDMDL
MODEL 6
REMARK VINA RESULT:    -3.902     96.028     96.609
REMARK INTER + INTRA:          -4.486
REMARK INTER:                  -4.356
REMARK INTRA:                  -0.130
REMARK UNBOUND:                -0.128
REMARK  Name = 1550473
REMARK  2 active torsions:
REMARK  status: ('A' for Active; 'I' for Inactive)
REMARK    1  A    between atoms: N_1  and  C_4
REMARK    2  A    between atoms: C_4  and  C_5
REMARK                            x       y       z     vdW  Elec       q    Type
REMARK                         _______ _______ _______ _____ _____    ______ ____
ROOT
ATOM      1  N   UNL     1     -18.841 -23.858 -44.969  0.00  0.00    -0.354 N 
ATOM      2  N   UNL     1     -17.027 -25.235 -44.549  0.00  0.00    -0.372 N 
ATOM      3  N   UNL     1     -19.055 -25.754 -43.608  0.00  0.00    -0.372 N 
ATOM      4  C   UNL     1     -18.321 -24.941 -44.376  0.00  0.00    +0.166 C 
ATOM      5  H   UNL     1     -18.225 -23.266 -45.515  0.00  0.00    +0.163 HD
ATOM      6  H   UNL     1     -16.608 -26.048 -44.117  0.00  0.00    +0.159 HD
ATOM      7  H   UNL     1     -16.424 -24.667 -45.131  0.00  0.00    +0.159 HD
ATOM      8  H   UNL     1     -20.036 -25.584 -43.434  0.00  0.00    +0.159 HD
ATOM      9  H   UNL     1     -18.650 -26.565 -43.158  0.00  0.00    +0.159 HD
ENDROOT
BRANCH   1  10
ATOM     10  C   UNL     1     -20.250 -23.479 -44.889  0.00  0.00    +0.151 C 
BRANCH  10  11
ATOM     11  C   UNL     1     -20.350 -21.986 -44.742  0.00  0.00    -0.028 A 
ATOM     12  C   UNL     1     -19.305 -21.157 -45.174  0.00  0.00    +0.005 A 
ATOM     13  C   UNL     1     -21.490 -21.394 -44.177  0.00  0.00    +0.005 A 
ATOM     14  C   UNL     1     -19.410 -19.768 -45.065  0.00  0.00    +0.000 A 
ATOM     15  C   UNL     1     -21.590 -20.007 -44.069  0.00  0.00    +0.000 A 
ATOM     16  C   UNL     1     -20.551 -19.194 -44.515  0.00  0.00    +0.000 A 
ENDBRANCH  10  11
ENDBRANCH   1  10
TORSDOF 2
ENDMDL
MODEL 7
REMARK VINA RESULT:    -3.794     96.744     97.790
REMARK INTER + INTRA:          -4.365
REMARK INTER:                  -4.222
REMARK INTRA:                  -0.143
REMARK UNBOUND:                -0.128
REMARK  Name = 1550473
REMARK  2 active torsions:
REMARK  status: ('A' for Active; 'I' for Inactive)
REMARK    1  A    between atoms: N_1  and  C_4
REMARK    2  A    between atoms: C_4  and  C_5
REMARK                            x       y       z     vdW  Elec       q    Type
REMARK                         _______ _______ _______ _____ _____    ______ ____
ROOT
ATOM      1  N   UNL     1     -21.485 -22.004 -46.386  0.00  0.00    -0.354 N 
ATOM      2  N   UNL     1     -22.666 -21.701 -48.355  0.00  0.00    -0.372 N 
ATOM      3  N   UNL     1     -22.054 -23.826 -47.745  0.00  0.00    -0.372 N 
ATOM      4  C   UNL     1     -22.060 -22.515 -47.483  0.00  0.00    +0.166 C 
ATOM      5  H   UNL     1     -21.498 -20.998 -46.260  0.00  0.00    +0.163 HD
ATOM      6  H   UNL     1     -23.112 -22.058 -49.190  0.00  0.00    +0.159 HD
ATOM      7  H   UNL     1     -22.718 -20.701 -48.203  0.00  0.00    +0.159 HD
ATOM      8  H   UNL     1     -21.608 -24.494 -47.129  0.00  0.00    +0.159 HD
ATOM      9  H   UNL     1     -22.484 -24.202 -48.581  0.00  0.00    +0.159 HD
ENDROOT
BRANCH   1  10
ATOM     10  C   UNL     1     -20.846 -22.809 -45.346  0.00  0.00    +0.151 C 
BRANCH  10  11
ATOM     11  C   UNL     1     -19.391 -22.440 -45.264  0.00  0.00    -0.028 A 
ATOM     12  C   UNL     1     -18.998 -21.094 -45.250  0.00  0.00    +0.005 A 
ATOM     13  C   UNL     1     -18.400 -23.431 -45.193  0.00  0.00    +0.005 A 
ATOM     14  C   UNL     1     -17.648 -20.750 -45.143  0.00  0.00    +0.000 A 
ATOM     15  C   UNL     1     -17.054 -23.084 -45.087  0.00  0.00    +0.000 A 
ATOM     16  C   UNL     1     -16.678 -21.743 -45.060  0.00  0.00    +0.000 A 
ENDBRANCH  10  11
ENDBRANCH   1  10
TORSDOF 2
ENDMDL
MODEL 8
REMARK VINA RESULT:    -3.716     43.340     44.312
REMARK INTER + INTRA:          -4.279
REMARK INTER:                  -4.097
REMARK INTRA:                  -0.182
REMARK UNBOUND:                -0.128
REMARK  Name = 1550473
REMARK  2 active torsions:
REMARK  status: ('A' for Active; 'I' for Inactive)
REMARK    1  A    between atoms: N_1  and  C_4
REMARK    2  A    between atoms: C_4  and  C_5
REMARK                            x       y       z     vdW  Elec       q    Type
REMARK                         _______ _______ _______ _____ _____    ______ ____
ROOT
ATOM      1  N   UNL     1      -5.349   4.138  -0.018  0.00  0.00    -0.354 N 
ATOM      2  N   UNL     1      -6.208   5.503   1.644  0.00  0.00    -0.372 N 
ATOM      3  N   UNL     1      -4.620   3.943   2.200  0.00  0.00    -0.372 N 
ATOM      4  C   UNL     1      -5.385   4.518   1.266  0.00  0.00    +0.166 C 
ATOM      5  H   UNL     1      -5.976   4.593  -0.672  0.00  0.00    +0.163 HD
ATOM      6  H   UNL     1      -6.255   5.813   2.605  0.00  0.00    +0.159 HD
ATOM      7  H   UNL     1      -6.800   5.987   0.980  0.00  0.00    +0.159 HD
ATOM      8  H   UNL     1      -3.982   3.190   1.981  0.00  0.00    +0.159 HD
ATOM      9  H   UNL     1      -4.661   4.232   3.170  0.00  0.00    +0.159 HD
ENDROOT
BRANCH   1  10
ATOM     10  C   UNL     1      -4.449   3.112  -0.543  0.00  0.00    +0.151 C 
BRANCH  10  11
ATOM     11  C   UNL     1      -3.246   3.778  -1.151  0.00  0.00    -0.028 A 
ATOM     12  C   UNL     1      -3.327   4.378  -2.416  0.00  0.00    +0.005 A 
ATOM     13  C   UNL     1      -2.023   3.818  -0.464  0.00  0.00    +0.005 A 
ATOM     14  C   UNL     1      -2.218   5.023  -2.968  0.00  0.00    +0.000 A 
ATOM     15  C   UNL     1      -0.917   4.462  -1.019  0.00  0.00    +0.000 A 
ATOM     16  C   UNL     1      -1.016   5.067  -2.270  0.00  0.00    +0.000 A 
ENDBRANCH  10  11
ENDBRANCH   1  10
TORSDOF 2
ENDMDL
MODEL 9
REMARK VINA RESULT:    -3.702     43.057     44.043
REMARK INTER + INTRA:          -4.263
REMARK INTER:                  -4.138
REMARK INTRA:                  -0.125
REMARK UNBOUND:                -0.128
REMARK  Name = 1550473
REMARK  2 active torsions:
REMARK  status: ('A' for Active; 'I' for Inactive)
REMARK    1  A    between atoms: N_1  and  C_4
REMARK    2  A    between atoms: C_4  and  C_5
REMARK                            x       y       z     vdW  Elec       q    Type
REMARK                         _______ _______ _______ _____ _____    ______ ____
ROOT
ATOM      1  N   UNL     1      -1.015   4.882   0.114  0.00  0.00    -0.354 N 
ATOM      2  N   UNL     1      -0.152   6.384   1.651  0.00  0.00    -0.372 N 
ATOM      3  N   UNL     1       0.058   6.844  -0.587  0.00  0.00    -0.372 N 
ATOM      4  C   UNL     1      -0.374   6.028   0.380  0.00  0.00    +0.166 C 
ATOM      5  H   UNL     1      -1.290   4.293   0.891  0.00  0.00    +0.163 HD
ATOM      6  H   UNL     1       0.325   7.245   1.883  0.00  0.00    +0.159 HD
ATOM      7  H   UNL     1      -0.470   5.816   2.427  0.00  0.00    +0.159 HD
ATOM      8  H   UNL     1      -0.072   6.630  -1.566  0.00  0.00    +0.159 HD
ATOM      9  H   UNL     1       0.549   7.704  -0.375  0.00  0.00    +0.159 HD
ENDROOT
BRANCH   1  10
ATOM     10  C   UNL     1      -1.354   4.430  -1.234  0.00  0.00    +0.151 C 
BRANCH  10  11
ATOM     11  C   UNL     1      -2.790   3.983  -1.256  0.00  0.00    -0.028 A 
ATOM     12  C   UNL     1      -3.309   3.203  -0.213  0.00  0.00    +0.005 A 
ATOM     13  C   UNL     1      -3.638   4.342  -2.315  0.00  0.00    +0.005 A 
ATOM     14  C   UNL     1      -4.650   2.814  -0.217  0.00  0.00    +0.000 A 
ATOM     15  C   UNL     1      -4.977   3.951  -2.316  0.00  0.00    +0.000 A 
ATOM     16  C   UNL     1      -5.483   3.189  -1.266  0.00  0.00    +0.000 A 
ENDBRANCH  10  11
ENDBRANCH   1  10
TORSDOF 2
ENDMDL
