MODEL 1
REMARK VINA RESULT:    -5.334      0.000      0.000
REMARK INTER + INTRA:          -6.101
REMARK INTER:                  -5.958
REMARK INTRA:                  -0.143
REMARK UNBOUND:                -0.143
REMARK  Name = 1550473
REMARK  2 active torsions:
REMARK  status: ('A' for Active; 'I' for Inactive)
REMARK    1  A    between atoms: N_1  and  C_4
REMARK    2  A    between atoms: C_4  and  C_5
REMARK                            x       y       z     vdW  Elec       q    Type
REMARK                         _______ _______ _______ _____ _____    ______ ____
ROOT
ATOM      1  N   UNL     1      13.378  -9.567   5.823  0.00  0.00    -0.354 N 
ATOM      2  N   UNL     1      11.897  -8.384   4.492  0.00  0.00    -0.372 N 
ATOM      3  N   UNL     1      11.373  -8.729   6.699  0.00  0.00    -0.372 N 
ATOM      4  C   UNL     1      12.224  -8.901   5.682  0.00  0.00    +0.166 C 
ATOM      5  H   UNL     1      13.965  -9.690   5.006  0.00  0.00    +0.163 HD
ATOM      6  H   UNL     1      11.034  -7.874   4.357  0.00  0.00    +0.159 HD
ATOM      7  H   UNL     1      12.507  -8.468   3.688  0.00  0.00    +0.159 HD
ATOM      8  H   UNL     1      11.559  -9.100   7.622  0.00  0.00    +0.159 HD
ATOM      9  H   UNL     1      10.499  -8.231   6.581  0.00  0.00    +0.159 HD
ENDROOT
BRANCH   1  10
ATOM     10  C   UNL     1      13.853 -10.123   7.089  0.00  0.00    +0.151 C 
BRANCH  10  11
ATOM     11  C   UNL     1      14.254 -11.556   6.876  0.00  0.00    -0.028 A 
ATOM     12  C   UNL     1      13.338 -12.483   6.358  0.00  0.00    +0.005 A 
ATOM     13  C   UNL     1      15.551 -11.993   7.186  0.00  0.00    +0.005 A 
ATOM     14  C   UNL     1      13.719 -13.808   6.132  0.00  0.00    +0.000 A 
ATOM     15  C   UNL     1      15.928 -13.317   6.960  0.00  0.00    +0.000 A 
ATOM     16  C   UNL     1      15.012 -14.224   6.431  0.00  0.00    +0.000 A 
ENDBRANCH  10  11
ENDBRANCH   1  10
TORSDOF 2
ENDMDL
MODEL 2
REMARK VINA RESULT:    -5.268      9.807     12.267
REMARK INTER + INTRA:          -6.027
REMARK INTER:                  -5.893
REMARK INTRA:                  -0.134
REMARK UNBOUND:                -0.143
REMARK  Name = 1550473
REMARK  2 active torsions:
REMARK  status: ('A' for Active; 'I' for Inactive)
REMARK    1  A    between atoms: N_1  and  C_4
REMARK    2  A    between atoms: C_4  and  C_5
REMARK                            x       y       z     vdW  Elec       q    Type
REMARK                         _______ _______ _______ _____ _____    ______ ____
ROOT
ATOM      1  N   UNL     1      17.277  -2.824   1.692  0.00  0.00    -0.354 N 
ATOM      2  N   UNL     1      17.189  -4.836   2.836  0.00  0.00    -0.372 N 
ATOM      3  N   UNL     1      18.809  -3.311   3.397  0.00  0.00    -0.372 N 
ATOM      4  C   UNL     1      17.761  -3.643   2.636  0.00  0.00    +0.166 C 
ATOM      5  H   UNL     1      16.500  -3.147   1.127  0.00  0.00    +0.163 HD
ATOM      6  H   UNL     1      17.530  -5.473   3.543  0.00  0.00    +0.159 HD
ATOM      7  H   UNL     1      16.383  -5.137   2.302  0.00  0.00    +0.159 HD
ATOM      8  H   UNL     1      19.289  -2.427   3.292  0.00  0.00    +0.159 HD
ATOM      9  H   UNL     1      19.172  -3.940   4.102  0.00  0.00    +0.159 HD
ENDROOT
BRANCH   1  10
ATOM     10  C   UNL     1      17.794  -1.482   1.430  0.00  0.00    +0.151 C 
BRANCH  10  11
ATOM     11  C   UNL     1      16.669  -0.491   1.547  0.00  0.00    -0.028 A 
ATOM     12  C   UNL     1      15.420  -0.888   2.047  0.00  0.00    +0.005 A 
ATOM     13  C   UNL     1      16.848   0.847   1.166  0.00  0.00    +0.005 A 
ATOM     14  C   UNL     1      14.384   0.039   2.184  0.00  0.00    +0.000 A 
ATOM     15  C   UNL     1      15.811   1.770   1.304  0.00  0.00    +0.000 A 
ATOM     16  C   UNL     1      14.580   1.366   1.815  0.00  0.00    +0.000 A 
ENDBRANCH  10  11
ENDBRANCH   1  10
TORSDOF 2
ENDMDL
MODEL 3
REMARK VINA RESULT:    -5.177     39.158     40.073
REMARK INTER + INTRA:          -5.925
REMARK INTER:                  -5.751
REMARK INTRA:                  -0.174
REMARK UNBOUND:                -0.143
REMARK  Name = 1550473
REMARK  2 active torsions:
REMARK  status: ('A' for Active; 'I' for Inactive)
REMARK    1  A    between atoms: N_1  and  C_4
REMARK    2  A    between atoms: C_4  and  C_5
REMARK                            x       y       z     vdW  Elec       q    Type
REMARK                         _______ _______ _______ _____ _____    ______ ____
ROOT
ATOM      1  N   UNL     1      -9.923  -3.502 -24.672  0.00  0.00    -0.354 N 
ATOM      2  N   UNL     1     -10.454  -1.661 -25.975  0.00  0.00    -0.372 N 
ATOM      3  N   UNL     1     -11.951  -2.363 -24.383  0.00  0.00    -0.372 N 
ATOM      4  C   UNL     1     -10.775  -2.521 -25.000  0.00  0.00    +0.166 C 
ATOM      5  H   UNL     1      -9.061  -3.586 -25.198  0.00  0.00    +0.163 HD
ATOM      6  H   UNL     1     -11.075  -0.910 -26.242  0.00  0.00    +0.159 HD
ATOM      7  H   UNL     1      -9.572  -1.720 -26.468  0.00  0.00    +0.159 HD
ATOM      8  H   UNL     1     -12.255  -2.982 -23.644  0.00  0.00    +0.159 HD
ATOM      9  H   UNL     1     -12.591  -1.624 -24.644  0.00  0.00    +0.159 HD
ENDROOT
BRANCH   1  10
ATOM     10  C   UNL     1     -10.153  -4.457 -23.590  0.00  0.00    +0.151 C 
BRANCH  10  11
ATOM     11  C   UNL     1     -10.577  -5.774 -24.179  0.00  0.00    -0.028 A 
ATOM     12  C   UNL     1     -11.786  -6.371 -23.794  0.00  0.00    +0.005 A 
ATOM     13  C   UNL     1      -9.775  -6.428 -25.128  0.00  0.00    +0.005 A 
ATOM     14  C   UNL     1     -12.194  -7.579 -24.364  0.00  0.00    +0.000 A 
ATOM     15  C   UNL     1     -10.185  -7.635 -25.693  0.00  0.00    +0.000 A 
ATOM     16  C   UNL     1     -11.396  -8.209 -25.313  0.00  0.00    +0.000 A 
ENDBRANCH  10  11
ENDBRANCH   1  10
TORSDOF 2
ENDMDL
MODEL 4
REMARK VINA RESULT:    -5.101      8.149      9.316
REMARK INTER + INTRA:          -5.840
REMARK INTER:                  -5.782
REMARK INTRA:                  -0.058
REMARK UNBOUND:                -0.143
REMARK  Name = 1550473
REMARK  2 active torsions:
REMARK  status: ('A' for Active; 'I' for Inactive)
REMARK    1  A    between atoms: N_1  and  C_4
REMARK    2  A    between atoms: C_4  and  C_5
REMARK                            x       y       z     vdW  Elec       q    Type
REMARK                         _______ _______ _______ _____ _____    ______ ____
ROOT
ATOM      1  N   UNL     1      13.861 -18.090  -0.107  0.00  0.00    -0.354 N 
ATOM      2  N   UNL     1      13.993 -19.270   1.882  0.00  0.00    -0.372 N 
ATOM      3  N   UNL     1      15.667 -17.792   1.356  0.00  0.00    -0.372 N 
ATOM      4  C   UNL     1      14.509 -18.375   1.031  0.00  0.00    +0.166 C 
ATOM      5  H   UNL     1      13.002 -18.589  -0.310  0.00  0.00    +0.163 HD
ATOM      6  H   UNL     1      14.457 -19.503   2.749  0.00  0.00    +0.159 HD
ATOM      7  H   UNL     1      13.111 -19.733   1.698  0.00  0.00    +0.159 HD
ATOM      8  H   UNL     1      16.112 -17.112   0.754  0.00  0.00    +0.159 HD
ATOM      9  H   UNL     1      16.153 -18.020   2.215  0.00  0.00    +0.159 HD
ENDROOT
BRANCH   1  10
ATOM     10  C   UNL     1      14.310 -17.091  -1.075  0.00  0.00    +0.151 C 
BRANCH  10  11
ATOM     11  C   UNL     1      13.814 -15.737  -0.649  0.00  0.00    -0.028 A 
ATOM     12  C   UNL     1      14.571 -14.586  -0.914  0.00  0.00    +0.005 A 
ATOM     13  C   UNL     1      12.586 -15.597   0.015  0.00  0.00    +0.005 A 
ATOM     14  C   UNL     1      14.098 -13.325  -0.546  0.00  0.00    +0.000 A 
ATOM     15  C   UNL     1      12.117 -14.335   0.382  0.00  0.00    +0.000 A 
ATOM     16  C   UNL     1      12.872 -13.200   0.099  0.00  0.00    +0.000 A 
ENDBRANCH  10  11
ENDBRANCH   1  10
TORSDOF 2
ENDMDL
MODEL 5
REMARK VINA RESULT:    -5.089     24.617     27.272
REMARK INTER + INTRA:          -5.826
REMARK INTER:                  -5.702
REMARK INTRA:                  -0.124
REMARK UNBOUND:                -0.143
REMARK  Name = 1550473
REMARK  2 active torsions:
REMARK  status: ('A' for Active; 'I' for Inactive)
REMARK    1  A    between atoms: N_1  and  C_4
REMARK    2  A    between atoms: C_4  and  C_5
REMARK                            x       y       z     vdW  Elec       q    Type
REMARK                         _______ _______ _______ _____ _____    ______ ____
ROOT
ATOM      1  N   UNL     1      -8.291  -0.988  -2.351  0.00  0.00    -0.354 N 
ATOM      2  N   UNL     1      -6.351  -0.482  -3.511  0.00  0.00    -0.372 N 
ATOM      3  N   UNL     1      -6.243  -0.758  -1.235  0.00  0.00    -0.372 N 
ATOM      4  C   UNL     1      -6.973  -0.746  -2.355  0.00  0.00    +0.166 C 
ATOM      5  H   UNL     1      -8.793  -0.935  -3.230  0.00  0.00    +0.163 HD
ATOM      6  H   UNL     1      -5.357  -0.299  -3.545  0.00  0.00    +0.159 HD
ATOM      7  H   UNL     1      -6.847  -0.474  -4.394  0.00  0.00    +0.159 HD
ATOM      8  H   UNL     1      -6.654  -0.944  -0.330  0.00  0.00    +0.159 HD
ATOM      9  H   UNL     1      -5.249  -0.565  -1.248  0.00  0.00    +0.159 HD
ENDROOT
BRANCH   1  10
ATOM     10  C   UNL     1      -9.054  -1.339  -1.155  0.00  0.00    +0.151 C 
BRANCH  10  11
ATOM     11  C   UNL     1     -10.523  -1.241  -1.463  0.00  0.00    -0.028 A 
ATOM     12  C   UNL     1     -11.477  -1.647  -0.518  0.00  0.00    +0.005 A 
ATOM     13  C   UNL     1     -10.967  -0.737  -2.695  0.00  0.00    +0.005 A 
ATOM     14  C   UNL     1     -12.841  -1.528  -0.792  0.00  0.00    +0.000 A 
ATOM     15  C   UNL     1     -12.330  -0.620  -2.964  0.00  0.00    +0.000 A 
ATOM     16  C   UNL     1     -13.267  -1.014  -2.012  0.00  0.00    +0.000 A 
ENDBRANCH  10  11
ENDBRANCH   1  10
TORSDOF 2
ENDMDL
MODEL 6
REMARK VINA RESULT:    -5.038     11.378     13.482
REMARK INTER + INTRA:          -5.770
REMARK INTER:                  -5.624
REMARK INTRA:                  -0.146
REMARK UNBOUND:                -0.143
REMARK  Name = 1550473
REMARK  2 active torsions:
REMARK  status: ('A' for Active; 'I' for Inactive)
REMARK    1  A    between atoms: N_1  and  C_4
REMARK    2  A    between atoms: C_4  and  C_5
REMARK                            x       y       z     vdW  Elec       q    Type
REMARK                         _______ _______ _______ _____ _____    ______ ____
ROOT
ATOM      1  N   UNL     1      15.936  -0.072   1.980  0.00  0.00    -0.354 N 
ATOM      2  N   UNL     1      18.068  -0.744   2.584  0.00  0.00    -0.372 N 
ATOM      3  N   UNL     1      16.425  -2.331   2.368  0.00  0.00    -0.372 N 
ATOM      4  C   UNL     1      16.794  -1.047   2.307  0.00  0.00    +0.166 C 
ATOM      5  H   UNL     1      16.271   0.885   1.981  0.00  0.00    +0.163 HD
ATOM      6  H   UNL     1      18.740  -1.459   2.830  0.00  0.00    +0.159 HD
ATOM      7  H   UNL     1      18.412   0.207   2.539  0.00  0.00    +0.159 HD
ATOM      8  H   UNL     1      15.476  -2.625   2.177  0.00  0.00    +0.159 HD
ATOM      9  H   UNL     1      17.079  -3.059   2.625  0.00  0.00    +0.159 HD
ENDROOT
BRANCH   1  10
ATOM     10  C   UNL     1      14.541  -0.301   1.609  0.00  0.00    +0.151 C 
BRANCH  10  11
ATOM     11  C   UNL     1      14.320   0.186   0.203  0.00  0.00    -0.028 A 
ATOM     12  C   UNL     1      13.378  -0.438  -0.627  0.00  0.00    +0.005 A 
ATOM     13  C   UNL     1      15.046   1.276  -0.302  0.00  0.00    +0.005 A 
ATOM     14  C   UNL     1      13.151   0.033  -1.923  0.00  0.00    +0.000 A 
ATOM     15  C   UNL     1      14.817   1.743  -1.596  0.00  0.00    +0.000 A 
ATOM     16  C   UNL     1      13.868   1.123  -2.405  0.00  0.00    +0.000 A 
ENDBRANCH  10  11
ENDBRANCH   1  10
TORSDOF 2
ENDMDL
MODEL 7
REMARK VINA RESULT:    -4.979     14.119     15.230
REMARK INTER + INTRA:          -5.704
REMARK INTER:                  -5.583
REMARK INTRA:                  -0.121
REMARK UNBOUND:                -0.143
REMARK  Name = 1550473
REMARK  2 active torsions:
REMARK  status: ('A' for Active; 'I' for Inactive)
REMARK    1  A    between atoms: N_1  and  C_4
REMARK    2  A    between atoms: C_4  and  C_5
REMARK                            x       y       z     vdW  Elec       q    Type
REMARK                         _______ _______ _______ _____ _____    ______ ____
ROOT
ATOM      1  N   UNL     1       3.584 -15.573  -2.267  0.00  0.00    -0.354 N 
ATOM      2  N   UNL     1       5.085 -14.076  -1.332  0.00  0.00    -0.372 N 
ATOM      3  N   UNL     1       3.081 -13.289  -2.127  0.00  0.00    -0.372 N 
ATOM      4  C   UNL     1       3.905 -14.321  -1.916  0.00  0.00    +0.166 C 
ATOM      5  H   UNL     1       4.265 -16.307  -2.107  0.00  0.00    +0.163 HD
ATOM      6  H   UNL     1       5.353 -13.142  -1.053  0.00  0.00    +0.159 HD
ATOM      7  H   UNL     1       5.744 -14.819  -1.132  0.00  0.00    +0.159 HD
ATOM      8  H   UNL     1       2.179 -13.405  -2.568  0.00  0.00    +0.159 HD
ATOM      9  H   UNL     1       3.336 -12.345  -1.865  0.00  0.00    +0.159 HD
ENDROOT
BRANCH   1  10
ATOM     10  C   UNL     1       2.303 -15.954  -2.859  0.00  0.00    +0.151 C 
BRANCH  10  11
ATOM     11  C   UNL     1       1.392 -16.459  -1.775  0.00  0.00    -0.028 A 
ATOM     12  C   UNL     1       1.921 -16.981  -0.585  0.00  0.00    +0.005 A 
ATOM     13  C   UNL     1      -0.002 -16.414  -1.928  0.00  0.00    +0.005 A 
ATOM     14  C   UNL     1       1.075 -17.423   0.434  0.00  0.00    +0.000 A 
ATOM     15  C   UNL     1      -0.844 -16.857  -0.908  0.00  0.00    +0.000 A 
ATOM     16  C   UNL     1      -0.305 -17.359   0.274  0.00  0.00    +0.000 A 
ENDBRANCH  10  11
ENDBRANCH   1  10
TORSDOF 2
ENDMDL
MODEL 8
REMARK VINA RESULT:    -4.747     20.922     22.231
REMARK INTER + INTRA:          -5.444
REMARK INTER:                  -5.305
REMARK INTRA:                  -0.140
REMARK UNBOUND:                -0.143
REMARK  Name = 1550473
REMARK  2 active torsions:
REMARK  status: ('A' for Active; 'I' for Inactive)
REMARK    1  A    between atoms: N_1  and  C_4
REMARK    2  A    between atoms: C_4  and  C_5
REMARK                            x       y       z     vdW  Elec       q    Type
REMARK                         _______ _______ _______ _____ _____    ______ ____
ROOT
ATOM      1  N   UNL     1      -6.548 -12.170  -2.512  0.00  0.00    -0.354 N 
ATOM      2  N   UNL     1      -4.890 -11.230  -3.828  0.00  0.00    -0.372 N 
ATOM      3  N   UNL     1      -6.951 -10.223  -3.753  0.00  0.00    -0.372 N 
ATOM      4  C   UNL     1      -6.143 -11.212  -3.356  0.00  0.00    +0.166 C 
ATOM      5  H   UNL     1      -5.896 -12.909  -2.273  0.00  0.00    +0.163 HD
ATOM      6  H   UNL     1      -4.555 -10.519  -4.463  0.00  0.00    +0.159 HD
ATOM      7  H   UNL     1      -4.227 -11.944  -3.551  0.00  0.00    +0.159 HD
ATOM      8  H   UNL     1      -7.909 -10.156  -3.438  0.00  0.00    +0.159 HD
ATOM      9  H   UNL     1      -6.637  -9.509  -4.398  0.00  0.00    +0.159 HD
ENDROOT
BRANCH   1  10
ATOM     10  C   UNL     1      -7.875 -12.212  -1.899  0.00  0.00    +0.151 C 
BRANCH  10  11
ATOM     11  C   UNL     1      -7.729 -12.514  -0.433  0.00  0.00    -0.028 A 
ATOM     12  C   UNL     1      -8.849 -12.497   0.412  0.00  0.00    +0.005 A 
ATOM     13  C   UNL     1      -6.476 -12.822   0.117  0.00  0.00    +0.005 A 
ATOM     14  C   UNL     1      -8.719 -12.807   1.768  0.00  0.00    +0.000 A 
ATOM     15  C   UNL     1      -6.350 -13.130   1.471  0.00  0.00    +0.000 A 
ATOM     16  C   UNL     1      -7.473 -13.124   2.296  0.00  0.00    +0.000 A 
ENDBRANCH  10  11
ENDBRANCH   1  10
TORSDOF 2
ENDMDL
MODEL 9
REMARK VINA RESULT:    -4.669      8.808     10.196
REMARK INTER + INTRA:          -5.358
REMARK INTER:                  -5.186
REMARK INTRA:                  -0.172
REMARK UNBOUND:                -0.143
REMARK  Name = 1550473
REMARK  2 active torsions:
REMARK  status: ('A' for Active; 'I' for Inactive)
REMARK    1  A    between atoms: N_1  and  C_4
REMARK    2  A    between atoms: C_4  and  C_5
REMARK                            x       y       z     vdW  Elec       q    Type
REMARK                         _______ _______ _______ _____ _____    ______ ____
ROOT
ATOM      1  N   UNL     1      14.291 -16.927   1.288  0.00  0.00    -0.354 N 
ATOM      2  N   UNL     1      15.788 -18.176   2.536  0.00  0.00    -0.372 N 
ATOM      3  N   UNL     1      13.780 -19.117   1.948  0.00  0.00    -0.372 N 
ATOM      4  C   UNL     1      14.607 -18.067   1.916  0.00  0.00    +0.166 C 
ATOM      5  H   UNL     1      14.949 -16.157   1.326  0.00  0.00    +0.163 HD
ATOM      6  H   UNL     1      16.057 -19.026   3.016  0.00  0.00    +0.159 HD
ATOM      7  H   UNL     1      16.464 -17.422   2.534  0.00  0.00    +0.159 HD
ATOM      8  H   UNL     1      12.871 -19.096   1.504  0.00  0.00    +0.159 HD
ATOM      9  H   UNL     1      14.025 -19.971   2.432  0.00  0.00    +0.159 HD
ENDROOT
BRANCH   1  10
ATOM     10  C   UNL     1      13.053 -16.724   0.537  0.00  0.00    +0.151 C 
BRANCH  10  11
ATOM     11  C   UNL     1      13.325 -16.941  -0.926  0.00  0.00    -0.028 A 
ATOM     12  C   UNL     1      14.468 -16.392  -1.527  0.00  0.00    +0.005 A 
ATOM     13  C   UNL     1      12.448 -17.700  -1.716  0.00  0.00    +0.005 A 
ATOM     14  C   UNL     1      14.737 -16.619  -2.879  0.00  0.00    +0.000 A 
ATOM     15  C   UNL     1      12.719 -17.923  -3.066  0.00  0.00    +0.000 A 
ATOM     16  C   UNL     1      13.865 -17.385  -3.646  0.00  0.00    +0.000 A 
ENDBRANCH  10  11
ENDBRANCH   1  10
TORSDOF 2
ENDMDL
