MODEL 1
REMARK VINA RESULT:    -6.292      0.000      0.000
REMARK INTER + INTRA:          -7.165
REMARK INTER:                  -7.028
REMARK INTRA:                  -0.137
REMARK UNBOUND:                -0.137
REMARK  Name = 1550473
REMARK  2 active torsions:
REMARK  status: ('A' for Active; 'I' for Inactive)
REMARK    1  A    between atoms: N_1  and  C_4
REMARK    2  A    between atoms: C_4  and  C_5
REMARK                            x       y       z     vdW  Elec       q    Type
REMARK                         _______ _______ _______ _____ _____    ______ ____
ROOT
ATOM      1  N   UNL     1       1.634  -1.550  -2.618  0.00  0.00    -0.354 N 
ATOM      2  N   UNL     1       0.326   0.189  -1.826  0.00  0.00    -0.372 N 
ATOM      3  N   UNL     1       1.093   0.274  -3.987  0.00  0.00    -0.372 N 
ATOM      4  C   UNL     1       1.027  -0.373  -2.818  0.00  0.00    +0.166 C 
ATOM      5  H   UNL     1       1.571  -1.974  -1.700  0.00  0.00    +0.163 HD
ATOM      6  H   UNL     1      -0.146   1.075  -1.949  0.00  0.00    +0.159 HD
ATOM      7  H   UNL     1       0.226  -0.259  -0.924  0.00  0.00    +0.159 HD
ATOM      8  H   UNL     1       1.611  -0.094  -4.774  0.00  0.00    +0.159 HD
ATOM      9  H   UNL     1       0.637   1.167  -4.126  0.00  0.00    +0.159 HD
ENDROOT
BRANCH   1  10
ATOM     10  C   UNL     1       2.377  -2.272  -3.649  0.00  0.00    +0.151 C 
BRANCH  10  11
ATOM     11  C   UNL     1       1.509  -3.368  -4.203  0.00  0.00    -0.028 A 
ATOM     12  C   UNL     1       0.534  -3.084  -5.171  0.00  0.00    +0.005 A 
ATOM     13  C   UNL     1       1.661  -4.694  -3.769  0.00  0.00    +0.005 A 
ATOM     14  C   UNL     1      -0.252  -4.107  -5.708  0.00  0.00    +0.000 A 
ATOM     15  C   UNL     1       0.874  -5.712  -4.307  0.00  0.00    +0.000 A 
ATOM     16  C   UNL     1      -0.081  -5.419  -5.278  0.00  0.00    +0.000 A 
ENDBRANCH  10  11
ENDBRANCH   1  10
TORSDOF 2
ENDMDL
MODEL 2
REMARK VINA RESULT:    -5.765      4.348      5.948
REMARK INTER + INTRA:          -6.576
REMARK INTER:                  -6.452
REMARK INTRA:                  -0.124
REMARK UNBOUND:                -0.137
REMARK  Name = 1550473
REMARK  2 active torsions:
REMARK  status: ('A' for Active; 'I' for Inactive)
REMARK    1  A    between atoms: N_1  and  C_4
REMARK    2  A    between atoms: C_4  and  C_5
REMARK                            x       y       z     vdW  Elec       q    Type
REMARK                         _______ _______ _______ _____ _____    ______ ____
ROOT
ATOM      1  N   UNL     1       2.296  -8.019  -3.910  0.00  0.00    -0.354 N 
ATOM      2  N   UNL     1       4.194  -9.214  -3.331  0.00  0.00    -0.372 N 
ATOM      3  N   UNL     1       2.377  -9.271  -1.931  0.00  0.00    -0.372 N 
ATOM      4  C   UNL     1       2.942  -8.828  -3.059  0.00  0.00    +0.166 C 
ATOM      5  H   UNL     1       2.791  -7.693  -4.733  0.00  0.00    +0.163 HD
ATOM      6  H   UNL     1       4.705  -9.827  -2.709  0.00  0.00    +0.159 HD
ATOM      7  H   UNL     1       4.669  -8.924  -4.177  0.00  0.00    +0.159 HD
ATOM      8  H   UNL     1       1.437  -9.011  -1.664  0.00  0.00    +0.159 HD
ATOM      9  H   UNL     1       2.876  -9.875  -1.290  0.00  0.00    +0.159 HD
ENDROOT
BRANCH   1  10
ATOM     10  C   UNL     1       0.912  -7.583  -3.733  0.00  0.00    +0.151 C 
BRANCH  10  11
ATOM     11  C   UNL     1       0.785  -6.156  -4.191  0.00  0.00    -0.028 A 
ATOM     12  C   UNL     1       1.549  -5.145  -3.590  0.00  0.00    +0.005 A 
ATOM     13  C   UNL     1      -0.094  -5.809  -5.228  0.00  0.00    +0.005 A 
ATOM     14  C   UNL     1       1.453  -3.824  -4.035  0.00  0.00    +0.000 A 
ATOM     15  C   UNL     1      -0.188  -4.489  -5.669  0.00  0.00    +0.000 A 
ATOM     16  C   UNL     1       0.588  -3.497  -5.074  0.00  0.00    +0.000 A 
ENDBRANCH  10  11
ENDBRANCH   1  10
TORSDOF 2
ENDMDL
MODEL 3
REMARK VINA RESULT:    -5.683      6.997      8.407
REMARK INTER + INTRA:          -6.484
REMARK INTER:                  -6.383
REMARK INTRA:                  -0.101
REMARK UNBOUND:                -0.137
REMARK  Name = 1550473
REMARK  2 active torsions:
REMARK  status: ('A' for Active; 'I' for Inactive)
REMARK    1  A    between atoms: N_1  and  C_4
REMARK    2  A    between atoms: C_4  and  C_5
REMARK                            x       y       z     vdW  Elec       q    Type
REMARK                         _______ _______ _______ _____ _____    ______ ____
ROOT
ATOM      1  N   UNL     1       4.936 -10.484  -2.823  0.00  0.00    -0.354 N 
ATOM      2  N   UNL     1       6.518 -12.079  -3.387  0.00  0.00    -0.372 N 
ATOM      3  N   UNL     1       6.857 -10.794  -1.516  0.00  0.00    -0.372 N 
ATOM      4  C   UNL     1       6.094 -11.107  -2.569  0.00  0.00    +0.166 C 
ATOM      5  H   UNL     1       4.419 -10.748  -3.654  0.00  0.00    +0.163 HD
ATOM      6  H   UNL     1       7.386 -12.569  -3.219  0.00  0.00    +0.159 HD
ATOM      7  H   UNL     1       5.977 -12.372  -4.191  0.00  0.00    +0.159 HD
ATOM      8  H   UNL     1       6.596 -10.065  -0.865  0.00  0.00    +0.159 HD
ATOM      9  H   UNL     1       7.735 -11.265  -1.338  0.00  0.00    +0.159 HD
ENDROOT
BRANCH   1  10
ATOM     10  C   UNL     1       4.359  -9.450  -1.966  0.00  0.00    +0.151 C 
BRANCH  10  11
ATOM     11  C   UNL     1       3.112  -8.915  -2.613  0.00  0.00    -0.028 A 
ATOM     12  C   UNL     1       3.172  -8.293  -3.869  0.00  0.00    +0.005 A 
ATOM     13  C   UNL     1       1.866  -9.032  -1.978  0.00  0.00    +0.005 A 
ATOM     14  C   UNL     1       2.009  -7.822  -4.484  0.00  0.00    +0.000 A 
ATOM     15  C   UNL     1       0.707  -8.560  -2.595  0.00  0.00    +0.000 A 
ATOM     16  C   UNL     1       0.779  -7.958  -3.849  0.00  0.00    +0.000 A 
ENDBRANCH  10  11
ENDBRANCH   1  10
TORSDOF 2
ENDMDL
MODEL 4
REMARK VINA RESULT:    -5.652      8.226      9.493
REMARK INTER + INTRA:          -6.450
REMARK INTER:                  -6.307
REMARK INTRA:                  -0.143
REMARK UNBOUND:                -0.137
REMARK  Name = 1550473
REMARK  2 active torsions:
REMARK  status: ('A' for Active; 'I' for Inactive)
REMARK    1  A    between atoms: N_1  and  C_4
REMARK    2  A    between atoms: C_4  and  C_5
REMARK                            x       y       z     vdW  Elec       q    Type
REMARK                         _______ _______ _______ _____ _____    ______ ____
ROOT
ATOM      1  N   UNL     1       6.352  -9.322  -2.085  0.00  0.00    -0.354 N 
ATOM      2  N   UNL     1       5.444 -11.433  -1.802  0.00  0.00    -0.372 N 
ATOM      3  N   UNL     1       4.201  -9.826  -2.867  0.00  0.00    -0.372 N 
ATOM      4  C   UNL     1       5.336 -10.178  -2.254  0.00  0.00    +0.166 C 
ATOM      5  H   UNL     1       7.174  -9.642  -1.586  0.00  0.00    +0.163 HD
ATOM      6  H   UNL     1       4.695 -12.103  -1.918  0.00  0.00    +0.159 HD
ATOM      7  H   UNL     1       6.284 -11.764  -1.343  0.00  0.00    +0.159 HD
ATOM      8  H   UNL     1       4.054  -8.892  -3.226  0.00  0.00    +0.159 HD
ATOM      9  H   UNL     1       3.436 -10.478  -2.983  0.00  0.00    +0.159 HD
ENDROOT
BRANCH   1  10
ATOM     10  C   UNL     1       6.357  -7.949  -2.588  0.00  0.00    +0.151 C 
BRANCH  10  11
ATOM     11  C   UNL     1       7.606  -7.726  -3.395  0.00  0.00    -0.028 A 
ATOM     12  C   UNL     1       7.865  -6.475  -3.975  0.00  0.00    +0.005 A 
ATOM     13  C   UNL     1       8.538  -8.759  -3.578  0.00  0.00    +0.005 A 
ATOM     14  C   UNL     1       9.040  -6.258  -4.699  0.00  0.00    +0.000 A 
ATOM     15  C   UNL     1       9.709  -8.539  -4.302  0.00  0.00    +0.000 A 
ATOM     16  C   UNL     1       9.961  -7.288  -4.860  0.00  0.00    +0.000 A 
ENDBRANCH  10  11
ENDBRANCH   1  10
TORSDOF 2
ENDMDL
MODEL 5
REMARK VINA RESULT:    -5.571      8.450      9.694
REMARK INTER + INTRA:          -6.359
REMARK INTER:                  -6.178
REMARK INTRA:                  -0.181
REMARK UNBOUND:                -0.137
REMARK  Name = 1550473
REMARK  2 active torsions:
REMARK  status: ('A' for Active; 'I' for Inactive)
REMARK    1  A    between atoms: N_1  and  C_4
REMARK    2  A    between atoms: C_4  and  C_5
REMARK                            x       y       z     vdW  Elec       q    Type
REMARK                         _______ _______ _______ _____ _____    ______ ____
ROOT
ATOM      1  N   UNL     1       6.890  -7.596  -3.428  0.00  0.00    -0.354 N 
ATOM      2  N   UNL     1       5.463  -9.421  -3.428  0.00  0.00    -0.372 N 
ATOM      3  N   UNL     1       7.562  -9.654  -2.531  0.00  0.00    -0.372 N 
ATOM      4  C   UNL     1       6.650  -8.880  -3.128  0.00  0.00    +0.166 C 
ATOM      5  H   UNL     1       6.168  -7.071  -3.908  0.00  0.00    +0.163 HD
ATOM      6  H   UNL     1       5.252 -10.385  -3.210  0.00  0.00    +0.159 HD
ATOM      7  H   UNL     1       4.727  -8.881  -3.866  0.00  0.00    +0.159 HD
ATOM      8  H   UNL     1       8.479  -9.308  -2.284  0.00  0.00    +0.159 HD
ATOM      9  H   UNL     1       7.374 -10.625  -2.316  0.00  0.00    +0.159 HD
ENDROOT
BRANCH   1  10
ATOM     10  C   UNL     1       8.130  -6.897  -3.096  0.00  0.00    +0.151 C 
BRANCH  10  11
ATOM     11  C   UNL     1       8.994  -6.818  -4.325  0.00  0.00    -0.028 A 
ATOM     12  C   UNL     1       8.676  -5.931  -5.363  0.00  0.00    +0.005 A 
ATOM     13  C   UNL     1      10.135  -7.625  -4.453  0.00  0.00    +0.005 A 
ATOM     14  C   UNL     1       9.495  -5.837  -6.491  0.00  0.00    +0.000 A 
ATOM     15  C   UNL     1      10.950  -7.528  -5.581  0.00  0.00    +0.000 A 
ATOM     16  C   UNL     1      10.630  -6.632  -6.599  0.00  0.00    +0.000 A 
ENDBRANCH  10  11
ENDBRANCH   1  10
TORSDOF 2
ENDMDL
MODEL 6
REMARK VINA RESULT:    -5.546      8.405      9.922
REMARK INTER + INTRA:          -6.332
REMARK INTER:                  -6.195
REMARK INTRA:                  -0.137
REMARK UNBOUND:                -0.137
REMARK  Name = 1550473
REMARK  2 active torsions:
REMARK  status: ('A' for Active; 'I' for Inactive)
REMARK    1  A    between atoms: N_1  and  C_4
REMARK    2  A    between atoms: C_4  and  C_5
REMARK                            x       y       z     vdW  Elec       q    Type
REMARK                         _______ _______ _______ _____ _____    ______ ____
ROOT
ATOM      1  N   UNL     1       6.132  -9.158  -3.384  0.00  0.00    -0.354 N 
ATOM      2  N   UNL     1       5.560 -11.391  -3.159  0.00  0.00    -0.372 N 
ATOM      3  N   UNL     1       6.779 -10.385  -1.496  0.00  0.00    -0.372 N 
ATOM      4  C   UNL     1       6.162 -10.296  -2.679  0.00  0.00    +0.166 C 
ATOM      5  H   UNL     1       5.673  -9.164  -4.288  0.00  0.00    +0.163 HD
ATOM      6  H   UNL     1       5.564 -12.263  -2.648  0.00  0.00    +0.159 HD
ATOM      7  H   UNL     1       5.063 -11.382  -4.042  0.00  0.00    +0.159 HD
ATOM      8  H   UNL     1       7.258  -9.596  -1.081  0.00  0.00    +0.159 HD
ATOM      9  H   UNL     1       6.804 -11.252  -0.974  0.00  0.00    +0.159 HD
ENDROOT
BRANCH   1  10
ATOM     10  C   UNL     1       6.710  -7.896  -2.926  0.00  0.00    +0.151 C 
BRANCH  10  11
ATOM     11  C   UNL     1       7.942  -7.598  -3.735  0.00  0.00    -0.028 A 
ATOM     12  C   UNL     1       9.079  -8.412  -3.627  0.00  0.00    +0.005 A 
ATOM     13  C   UNL     1       7.978  -6.506  -4.615  0.00  0.00    +0.005 A 
ATOM     14  C   UNL     1      10.213  -8.154  -4.400  0.00  0.00    +0.000 A 
ATOM     15  C   UNL     1       9.112  -6.250  -5.385  0.00  0.00    +0.000 A 
ATOM     16  C   UNL     1      10.229  -7.076  -5.279  0.00  0.00    +0.000 A 
ENDBRANCH  10  11
ENDBRANCH   1  10
TORSDOF 2
ENDMDL
MODEL 7
REMARK VINA RESULT:    -5.469      9.084     10.205
REMARK INTER + INTRA:          -6.245
REMARK INTER:                  -6.141
REMARK INTRA:                  -0.104
REMARK UNBOUND:                -0.137
REMARK  Name = 1550473
REMARK  2 active torsions:
REMARK  status: ('A' for Active; 'I' for Inactive)
REMARK    1  A    between atoms: N_1  and  C_4
REMARK    2  A    between atoms: C_4  and  C_5
REMARK                            x       y       z     vdW  Elec       q    Type
REMARK                         _______ _______ _______ _____ _____    ______ ____
ROOT
ATOM      1  N   UNL     1       9.438  -8.465  -4.234  0.00  0.00    -0.354 N 
ATOM      2  N   UNL     1       7.834  -9.093  -2.686  0.00  0.00    -0.372 N 
ATOM      3  N   UNL     1       9.358  -7.477  -2.110  0.00  0.00    -0.372 N 
ATOM      4  C   UNL     1       8.889  -8.339  -3.019  0.00  0.00    +0.166 C 
ATOM      5  H   UNL     1       9.055  -9.158  -4.866  0.00  0.00    +0.163 HD
ATOM      6  H   UNL     1       7.396  -9.017  -1.778  0.00  0.00    +0.159 HD
ATOM      7  H   UNL     1       7.423  -9.752  -3.337  0.00  0.00    +0.159 HD
ATOM      8  H   UNL     1      10.156  -6.884  -2.297  0.00  0.00    +0.159 HD
ATOM      9  H   UNL     1       8.941  -7.396  -1.192  0.00  0.00    +0.159 HD
ENDROOT
BRANCH   1  10
ATOM     10  C   UNL     1      10.556  -7.654  -4.714  0.00  0.00    +0.151 C 
BRANCH  10  11
ATOM     11  C   UNL     1      10.061  -6.720  -5.783  0.00  0.00    -0.028 A 
ATOM     12  C   UNL     1      10.711  -6.649  -7.024  0.00  0.00    +0.005 A 
ATOM     13  C   UNL     1       8.939  -5.906  -5.564  0.00  0.00    +0.005 A 
ATOM     14  C   UNL     1      10.234  -5.804  -8.028  0.00  0.00    +0.000 A 
ATOM     15  C   UNL     1       8.466  -5.063  -6.569  0.00  0.00    +0.000 A 
ATOM     16  C   UNL     1       9.112  -5.013  -7.802  0.00  0.00    +0.000 A 
ENDBRANCH  10  11
ENDBRANCH   1  10
TORSDOF 2
ENDMDL
MODEL 8
REMARK VINA RESULT:    -5.311      1.415      2.401
REMARK INTER + INTRA:          -6.069
REMARK INTER:                  -5.924
REMARK INTRA:                  -0.146
REMARK UNBOUND:                -0.137
REMARK  Name = 1550473
REMARK  2 active torsions:
REMARK  status: ('A' for Active; 'I' for Inactive)
REMARK    1  A    between atoms: N_1  and  C_4
REMARK    2  A    between atoms: C_4  and  C_5
REMARK                            x       y       z     vdW  Elec       q    Type
REMARK                         _______ _______ _______ _____ _____    ______ ____
ROOT
ATOM      1  N   UNL     1       2.512  -1.330  -4.948  0.00  0.00    -0.354 N 
ATOM      2  N   UNL     1       2.882   0.586  -6.196  0.00  0.00    -0.372 N 
ATOM      3  N   UNL     1       1.459   0.690  -4.399  0.00  0.00    -0.372 N 
ATOM      4  C   UNL     1       2.280  -0.030  -5.171  0.00  0.00    +0.166 C 
ATOM      5  H   UNL     1       3.122  -1.827  -5.588  0.00  0.00    +0.163 HD
ATOM      6  H   UNL     1       2.729   1.567  -6.387  0.00  0.00    +0.159 HD
ATOM      7  H   UNL     1       3.526   0.098  -6.807  0.00  0.00    +0.159 HD
ATOM      8  H   UNL     1       0.970   0.283  -3.613  0.00  0.00    +0.159 HD
ATOM      9  H   UNL     1       1.284   1.670  -4.581  0.00  0.00    +0.159 HD
ENDROOT
BRANCH   1  10
ATOM     10  C   UNL     1       1.949  -2.081  -3.828  0.00  0.00    +0.151 C 
BRANCH  10  11
ATOM     11  C   UNL     1       1.280  -3.321  -4.354  0.00  0.00    -0.028 A 
ATOM     12  C   UNL     1       1.622  -4.583  -3.848  0.00  0.00    +0.005 A 
ATOM     13  C   UNL     1       0.299  -3.239  -5.354  0.00  0.00    +0.005 A 
ATOM     14  C   UNL     1       0.980  -5.733  -4.315  0.00  0.00    +0.000 A 
ATOM     15  C   UNL     1      -0.339  -4.389  -5.819  0.00  0.00    +0.000 A 
ATOM     16  C   UNL     1      -0.000  -5.635  -5.297  0.00  0.00    +0.000 A 
ENDBRANCH  10  11
ENDBRANCH   1  10
TORSDOF 2
ENDMDL
MODEL 9
REMARK VINA RESULT:    -5.245      4.968      6.571
REMARK INTER + INTRA:          -5.995
REMARK INTER:                  -5.876
REMARK INTRA:                  -0.119
REMARK UNBOUND:                -0.137
REMARK  Name = 1550473
REMARK  2 active torsions:
REMARK  status: ('A' for Active; 'I' for Inactive)
REMARK    1  A    between atoms: N_1  and  C_4
REMARK    2  A    between atoms: C_4  and  C_5
REMARK                            x       y       z     vdW  Elec       q    Type
REMARK                         _______ _______ _______ _____ _____    ______ ____
ROOT
ATOM      1  N   UNL     1       3.331  -8.811  -3.396  0.00  0.00    -0.354 N 
ATOM      2  N   UNL     1       5.380  -9.869  -3.182  0.00  0.00    -0.372 N 
ATOM      3  N   UNL     1       3.943  -9.863  -1.393  0.00  0.00    -0.372 N 
ATOM      4  C   UNL     1       4.203  -9.508  -2.656  0.00  0.00    +0.166 C 
ATOM      5  H   UNL     1       3.601  -8.546  -4.336  0.00  0.00    +0.163 HD
ATOM      6  H   UNL     1       6.057 -10.398  -2.649  0.00  0.00    +0.159 HD
ATOM      7  H   UNL     1       5.628  -9.643  -4.137  0.00  0.00    +0.159 HD
ATOM      8  H   UNL     1       3.075  -9.616  -0.936  0.00  0.00    +0.159 HD
ATOM      9  H   UNL     1       4.612 -10.383  -0.840  0.00  0.00    +0.159 HD
ENDROOT
BRANCH   1  10
ATOM     10  C   UNL     1       2.001  -8.415  -2.935  0.00  0.00    +0.151 C 
BRANCH  10  11
ATOM     11  C   UNL     1       1.667  -7.063  -3.502  0.00  0.00    -0.028 A 
ATOM     12  C   UNL     1       0.612  -6.914  -4.414  0.00  0.00    +0.005 A 
ATOM     13  C   UNL     1       2.399  -5.925  -3.127  0.00  0.00    +0.005 A 
ATOM     14  C   UNL     1       0.283  -5.653  -4.918  0.00  0.00    +0.000 A 
ATOM     15  C   UNL     1       2.067  -4.669  -3.633  0.00  0.00    +0.000 A 
ATOM     16  C   UNL     1       1.008  -4.533  -4.527  0.00  0.00    +0.000 A 
ENDBRANCH  10  11
ENDBRANCH   1  10
TORSDOF 2
ENDMDL
