MODEL 1
REMARK VINA RESULT:    -5.013      0.000      0.000
REMARK INTER + INTRA:          -5.708
REMARK INTER:                  -5.599
REMARK INTRA:                  -0.109
REMARK UNBOUND:                -0.109
REMARK  Name = 1550473
REMARK  2 active torsions:
REMARK  status: ('A' for Active; 'I' for Inactive)
REMARK    1  A    between atoms: N_1  and  C_4
REMARK    2  A    between atoms: C_4  and  C_5
REMARK                            x       y       z     vdW  Elec       q    Type
REMARK                         _______ _______ _______ _____ _____    ______ ____
ROOT
ATOM      1  N   UNL     1      22.136   2.414   4.687  0.00  0.00    -0.354 N 
ATOM      2  N   UNL     1      22.043   3.861   6.493  0.00  0.00    -0.372 N 
ATOM      3  N   UNL     1      23.929   2.591   6.185  0.00  0.00    -0.372 N 
ATOM      4  C   UNL     1      22.706   2.945   5.777  0.00  0.00    +0.166 C 
ATOM      5  H   UNL     1      21.194   2.703   4.448  0.00  0.00    +0.163 HD
ATOM      6  H   UNL     1      22.449   4.282   7.318  0.00  0.00    +0.159 HD
ATOM      7  H   UNL     1      21.121   4.181   6.226  0.00  0.00    +0.159 HD
ATOM      8  H   UNL     1      24.479   1.900   5.692  0.00  0.00    +0.159 HD
ATOM      9  H   UNL     1      24.348   2.991   7.016  0.00  0.00    +0.159 HD
ENDROOT
BRANCH   1  10
ATOM     10  C   UNL     1      22.793   1.449   3.808  0.00  0.00    +0.151 C 
BRANCH  10  11
ATOM     11  C   UNL     1      21.745   0.648   3.086  0.00  0.00    -0.028 A 
ATOM     12  C   UNL     1      21.861  -0.745   2.980  0.00  0.00    +0.005 A 
ATOM     13  C   UNL     1      20.630   1.277   2.511  0.00  0.00    +0.005 A 
ATOM     14  C   UNL     1      20.872  -1.492   2.335  0.00  0.00    +0.000 A 
ATOM     15  C   UNL     1      19.645   0.528   1.867  0.00  0.00    +0.000 A 
ATOM     16  C   UNL     1      19.765  -0.857   1.782  0.00  0.00    +0.000 A 
ENDBRANCH  10  11
ENDBRANCH   1  10
TORSDOF 2
ENDMDL
MODEL 2
REMARK VINA RESULT:    -4.828     34.074     35.966
REMARK INTER + INTRA:          -5.502
REMARK INTER:                  -5.425
REMARK INTRA:                  -0.077
REMARK UNBOUND:                -0.109
REMARK  Name = 1550473
REMARK  2 active torsions:
REMARK  status: ('A' for Active; 'I' for Inactive)
REMARK    1  A    between atoms: N_1  and  C_4
REMARK    2  A    between atoms: C_4  and  C_5
REMARK                            x       y       z     vdW  Elec       q    Type
REMARK                         _______ _______ _______ _____ _____    ______ ____
ROOT
ATOM      1  N   UNL     1      -7.609  -6.830 -13.466  0.00  0.00    -0.354 N 
ATOM      2  N   UNL     1      -5.511  -6.262 -12.665  0.00  0.00    -0.372 N 
ATOM      3  N   UNL     1      -5.882  -8.411 -13.380  0.00  0.00    -0.372 N 
ATOM      4  C   UNL     1      -6.348  -7.174 -13.176  0.00  0.00    +0.166 C 
ATOM      5  H   UNL     1      -7.909  -5.884 -13.259  0.00  0.00    +0.163 HD
ATOM      6  H   UNL     1      -4.553  -6.492 -12.440  0.00  0.00    +0.159 HD
ATOM      7  H   UNL     1      -5.801  -5.306 -12.503  0.00  0.00    +0.159 HD
ATOM      8  H   UNL     1      -6.464  -9.147 -13.758  0.00  0.00    +0.159 HD
ATOM      9  H   UNL     1      -4.929  -8.663 -13.150  0.00  0.00    +0.159 HD
ENDROOT
BRANCH   1  10
ATOM     10  C   UNL     1      -8.584  -7.732 -14.075  0.00  0.00    +0.151 C 
BRANCH  10  11
ATOM     11  C   UNL     1      -9.641  -8.071 -13.060  0.00  0.00    -0.028 A 
ATOM     12  C   UNL     1     -10.923  -8.464 -13.472  0.00  0.00    +0.005 A 
ATOM     13  C   UNL     1      -9.366  -8.005 -11.686  0.00  0.00    +0.005 A 
ATOM     14  C   UNL     1     -11.897  -8.807 -12.530  0.00  0.00    +0.000 A 
ATOM     15  C   UNL     1     -10.341  -8.348 -10.749  0.00  0.00    +0.000 A 
ATOM     16  C   UNL     1     -11.605  -8.751 -11.172  0.00  0.00    +0.000 A 
ENDBRANCH  10  11
ENDBRANCH   1  10
TORSDOF 2
ENDMDL
MODEL 3
REMARK VINA RESULT:    -4.768     31.626     32.835
REMARK INTER + INTRA:          -5.435
REMARK INTER:                  -5.322
REMARK INTRA:                  -0.113
REMARK UNBOUND:                -0.109
REMARK  Name = 1550473
REMARK  2 active torsions:
REMARK  status: ('A' for Active; 'I' for Inactive)
REMARK    1  A    between atoms: N_1  and  C_4
REMARK    2  A    between atoms: C_4  and  C_5
REMARK                            x       y       z     vdW  Elec       q    Type
REMARK                         _______ _______ _______ _____ _____    ______ ____
ROOT
ATOM      1  N   UNL     1     -10.319   4.294   7.853  0.00  0.00    -0.354 N 
ATOM      2  N   UNL     1      -9.397   5.250   5.955  0.00  0.00    -0.372 N 
ATOM      3  N   UNL     1     -11.156   6.303   6.986  0.00  0.00    -0.372 N 
ATOM      4  C   UNL     1     -10.299   5.278   6.944  0.00  0.00    +0.166 C 
ATOM      5  H   UNL     1      -9.662   3.529   7.749  0.00  0.00    +0.163 HD
ATOM      6  H   UNL     1      -9.356   5.980   5.257  0.00  0.00    +0.159 HD
ATOM      7  H   UNL     1      -8.712   4.508   5.880  0.00  0.00    +0.159 HD
ATOM      8  H   UNL     1     -11.865   6.380   7.703  0.00  0.00    +0.159 HD
ATOM      9  H   UNL     1     -11.138   7.037   6.289  0.00  0.00    +0.159 HD
ENDROOT
BRANCH   1  10
ATOM     10  C   UNL     1     -11.225   4.258   9.000  0.00  0.00    +0.151 C 
BRANCH  10  11
ATOM     11  C   UNL     1     -10.739   3.224   9.977  0.00  0.00    -0.028 A 
ATOM     12  C   UNL     1     -11.633   2.304  10.544  0.00  0.00    +0.005 A 
ATOM     13  C   UNL     1      -9.384   3.155  10.337  0.00  0.00    +0.005 A 
ATOM     14  C   UNL     1     -11.177   1.324  11.430  0.00  0.00    +0.000 A 
ATOM     15  C   UNL     1      -8.933   2.175  11.222  0.00  0.00    +0.000 A 
ATOM     16  C   UNL     1      -9.829   1.259  11.766  0.00  0.00    +0.000 A 
ENDBRANCH  10  11
ENDBRANCH   1  10
TORSDOF 2
ENDMDL
MODEL 4
REMARK VINA RESULT:    -4.758     35.498     37.094
REMARK INTER + INTRA:          -5.424
REMARK INTER:                  -5.289
REMARK INTRA:                  -0.135
REMARK UNBOUND:                -0.109
REMARK  Name = 1550473
REMARK  2 active torsions:
REMARK  status: ('A' for Active; 'I' for Inactive)
REMARK    1  A    between atoms: N_1  and  C_4
REMARK    2  A    between atoms: C_4  and  C_5
REMARK                            x       y       z     vdW  Elec       q    Type
REMARK                         _______ _______ _______ _____ _____    ______ ____
ROOT
ATOM      1  N   UNL     1     -14.006   2.045 -10.271  0.00  0.00    -0.354 N 
ATOM      2  N   UNL     1     -16.120   1.132 -10.028  0.00  0.00    -0.372 N 
ATOM      3  N   UNL     1     -14.406  -0.215 -10.743  0.00  0.00    -0.372 N 
ATOM      4  C   UNL     1     -14.829   0.991 -10.350  0.00  0.00    +0.166 C 
ATOM      5  H   UNL     1     -14.394   2.940  -9.996  0.00  0.00    +0.163 HD
ATOM      6  H   UNL     1     -16.765   0.354 -10.075  0.00  0.00    +0.159 HD
ATOM      7  H   UNL     1     -16.496   2.017  -9.709  0.00  0.00    +0.159 HD
ATOM      8  H   UNL     1     -13.445  -0.387 -11.005  0.00  0.00    +0.159 HD
ATOM      9  H   UNL     1     -15.038  -1.004 -10.807  0.00  0.00    +0.159 HD
ENDROOT
BRANCH   1  10
ATOM     10  C   UNL     1     -12.572   1.985 -10.547  0.00  0.00    +0.151 C 
BRANCH  10  11
ATOM     11  C   UNL     1     -11.847   2.877  -9.578  0.00  0.00    -0.028 A 
ATOM     12  C   UNL     1     -10.529   3.284  -9.833  0.00  0.00    +0.005 A 
ATOM     13  C   UNL     1     -12.474   3.324  -8.405  0.00  0.00    +0.005 A 
ATOM     14  C   UNL     1      -9.866   4.137  -8.948  0.00  0.00    +0.000 A 
ATOM     15  C   UNL     1     -11.808   4.175  -7.523  0.00  0.00    +0.000 A 
ATOM     16  C   UNL     1     -10.505   4.583  -7.796  0.00  0.00    +0.000 A 
ENDBRANCH  10  11
ENDBRANCH   1  10
TORSDOF 2
ENDMDL
MODEL 5
REMARK VINA RESULT:    -4.617     35.535     37.396
REMARK INTER + INTRA:          -5.266
REMARK INTER:                  -5.144
REMARK INTRA:                  -0.122
REMARK UNBOUND:                -0.109
REMARK  Name = 1550473
REMARK  2 active torsions:
REMARK  status: ('A' for Active; 'I' for Inactive)
REMARK    1  A    between atoms: N_1  and  C_4
REMARK    2  A    between atoms: C_4  and  C_5
REMARK                            x       y       z     vdW  Elec       q    Type
REMARK                         _______ _______ _______ _____ _____    ______ ____
ROOT
ATOM      1  N   UNL     1      -9.410  -7.560 -12.002  0.00  0.00    -0.354 N 
ATOM      2  N   UNL     1      -7.193  -7.074 -12.464  0.00  0.00    -0.372 N 
ATOM      3  N   UNL     1      -8.093  -9.023 -13.273  0.00  0.00    -0.372 N 
ATOM      4  C   UNL     1      -8.247  -7.891 -12.578  0.00  0.00    +0.166 C 
ATOM      5  H   UNL     1      -9.453  -6.703 -11.463  0.00  0.00    +0.163 HD
ATOM      6  H   UNL     1      -6.304  -7.296 -12.891  0.00  0.00    +0.159 HD
ATOM      7  H   UNL     1      -7.252  -6.195 -11.963  0.00  0.00    +0.159 HD
ATOM      8  H   UNL     1      -8.848  -9.685 -13.392  0.00  0.00    +0.159 HD
ATOM      9  H   UNL     1      -7.208  -9.268 -13.698  0.00  0.00    +0.159 HD
ENDROOT
BRANCH   1  10
ATOM     10  C   UNL     1     -10.632  -8.354 -12.111  0.00  0.00    +0.151 C 
BRANCH  10  11
ATOM     11  C   UNL     1     -11.817  -7.475 -11.820  0.00  0.00    -0.028 A 
ATOM     12  C   UNL     1     -11.655  -6.271 -11.119  0.00  0.00    +0.005 A 
ATOM     13  C   UNL     1     -13.104  -7.838 -12.247  0.00  0.00    +0.005 A 
ATOM     14  C   UNL     1     -12.751  -5.440 -10.874  0.00  0.00    +0.000 A 
ATOM     15  C   UNL     1     -14.195  -7.005 -12.000  0.00  0.00    +0.000 A 
ATOM     16  C   UNL     1     -14.018  -5.805 -11.316  0.00  0.00    +0.000 A 
ENDBRANCH  10  11
ENDBRANCH   1  10
TORSDOF 2
ENDMDL
MODEL 6
REMARK VINA RESULT:    -4.391     17.339     18.877
REMARK INTER + INTRA:          -5.014
REMARK INTER:                  -4.905
REMARK INTRA:                  -0.108
REMARK UNBOUND:                -0.109
REMARK  Name = 1550473
REMARK  2 active torsions:
REMARK  status: ('A' for Active; 'I' for Inactive)
REMARK    1  A    between atoms: N_1  and  C_4
REMARK    2  A    between atoms: C_4  and  C_5
REMARK                            x       y       z     vdW  Elec       q    Type
REMARK                         _______ _______ _______ _____ _____    ______ ____
ROOT
ATOM      1  N   UNL     1      11.047  12.721  11.838  0.00  0.00    -0.354 N 
ATOM      2  N   UNL     1      13.013  11.581  12.285  0.00  0.00    -0.372 N 
ATOM      3  N   UNL     1      11.076  10.894  13.306  0.00  0.00    -0.372 N 
ATOM      4  C   UNL     1      11.698  11.738  12.476  0.00  0.00    +0.166 C 
ATOM      5  H   UNL     1      11.581  13.346  11.245  0.00  0.00    +0.163 HD
ATOM      6  H   UNL     1      13.530  10.846  12.750  0.00  0.00    +0.159 HD
ATOM      7  H   UNL     1      13.536  12.179  11.656  0.00  0.00    +0.159 HD
ATOM      8  H   UNL     1      10.086  10.963  13.497  0.00  0.00    +0.159 HD
ATOM      9  H   UNL     1      11.579  10.160  13.790  0.00  0.00    +0.159 HD
ENDROOT
BRANCH   1  10
ATOM     10  C   UNL     1       9.606  12.944  11.935  0.00  0.00    +0.151 C 
BRANCH  10  11
ATOM     11  C   UNL     1       9.197  13.965  10.909  0.00  0.00    -0.028 A 
ATOM     12  C   UNL     1       9.585  13.823   9.569  0.00  0.00    +0.005 A 
ATOM     13  C   UNL     1       8.416  15.074  11.270  0.00  0.00    +0.005 A 
ATOM     14  C   UNL     1       9.180  14.755   8.610  0.00  0.00    +0.000 A 
ATOM     15  C   UNL     1       8.015  16.003  10.310  0.00  0.00    +0.000 A 
ATOM     16  C   UNL     1       8.395  15.842   8.980  0.00  0.00    +0.000 A 
ENDBRANCH  10  11
ENDBRANCH   1  10
TORSDOF 2
ENDMDL
MODEL 7
REMARK VINA RESULT:    -4.375     26.082     27.441
REMARK INTER + INTRA:          -4.996
REMARK INTER:                  -4.852
REMARK INTRA:                  -0.144
REMARK UNBOUND:                -0.109
REMARK  Name = 1550473
REMARK  2 active torsions:
REMARK  status: ('A' for Active; 'I' for Inactive)
REMARK    1  A    between atoms: N_1  and  C_4
REMARK    2  A    between atoms: C_4  and  C_5
REMARK                            x       y       z     vdW  Elec       q    Type
REMARK                         _______ _______ _______ _____ _____    ______ ____
ROOT
ATOM      1  N   UNL     1      -2.324 -13.107   9.819  0.00  0.00    -0.354 N 
ATOM      2  N   UNL     1      -2.470 -11.866  11.770  0.00  0.00    -0.372 N 
ATOM      3  N   UNL     1      -3.609 -11.149   9.911  0.00  0.00    -0.372 N 
ATOM      4  C   UNL     1      -2.802 -12.047  10.486  0.00  0.00    +0.166 C 
ATOM      5  H   UNL     1      -1.692 -13.734  10.303  0.00  0.00    +0.163 HD
ATOM      6  H   UNL     1      -2.818 -11.078  12.299  0.00  0.00    +0.159 HD
ATOM      7  H   UNL     1      -1.875 -12.520  12.264  0.00  0.00    +0.159 HD
ATOM      8  H   UNL     1      -3.892 -11.225   8.943  0.00  0.00    +0.159 HD
ATOM      9  H   UNL     1      -3.958 -10.347  10.421  0.00  0.00    +0.159 HD
ENDROOT
BRANCH   1  10
ATOM     10  C   UNL     1      -2.666 -13.424   8.434  0.00  0.00    +0.151 C 
BRANCH  10  11
ATOM     11  C   UNL     1      -1.507 -13.066   7.547  0.00  0.00    -0.028 A 
ATOM     12  C   UNL     1      -1.250 -11.727   7.216  0.00  0.00    +0.005 A 
ATOM     13  C   UNL     1      -0.657 -14.060   7.038  0.00  0.00    +0.005 A 
ATOM     14  C   UNL     1      -0.155 -11.391   6.416  0.00  0.00    +0.000 A 
ATOM     15  C   UNL     1       0.435 -13.720   6.239  0.00  0.00    +0.000 A 
ATOM     16  C   UNL     1       0.687 -12.385   5.930  0.00  0.00    +0.000 A 
ENDBRANCH  10  11
ENDBRANCH   1  10
TORSDOF 2
ENDMDL
MODEL 8
REMARK VINA RESULT:    -4.351     33.703     34.868
REMARK INTER + INTRA:          -4.969
REMARK INTER:                  -4.848
REMARK INTRA:                  -0.121
REMARK UNBOUND:                -0.109
REMARK  Name = 1550473
REMARK  2 active torsions:
REMARK  status: ('A' for Active; 'I' for Inactive)
REMARK    1  A    between atoms: N_1  and  C_4
REMARK    2  A    between atoms: C_4  and  C_5
REMARK                            x       y       z     vdW  Elec       q    Type
REMARK                         _______ _______ _______ _____ _____    ______ ____
ROOT
ATOM      1  N   UNL     1     -13.629   0.721  10.919  0.00  0.00    -0.354 N 
ATOM      2  N   UNL     1     -15.818   0.261  10.318  0.00  0.00    -0.372 N 
ATOM      3  N   UNL     1     -14.918  -0.813  12.135  0.00  0.00    -0.372 N 
ATOM      4  C   UNL     1     -14.774   0.057  11.130  0.00  0.00    +0.166 C 
ATOM      5  H   UNL     1     -13.574   1.345  10.122  0.00  0.00    +0.163 HD
ATOM      6  H   UNL     1     -16.696  -0.222  10.454  0.00  0.00    +0.159 HD
ATOM      7  H   UNL     1     -15.775   0.920   9.550  0.00  0.00    +0.159 HD
ATOM      8  H   UNL     1     -14.166  -1.016  12.779  0.00  0.00    +0.159 HD
ATOM      9  H   UNL     1     -15.785  -1.316  12.280  0.00  0.00    +0.159 HD
ENDROOT
BRANCH   1  10
ATOM     10  C   UNL     1     -12.451   0.611  11.777  0.00  0.00    +0.151 C 
BRANCH  10  11
ATOM     11  C   UNL     1     -11.380   1.533  11.261  0.00  0.00    -0.028 A 
ATOM     12  C   UNL     1     -10.050   1.385  11.682  0.00  0.00    +0.005 A 
ATOM     13  C   UNL     1     -11.688   2.552  10.348  0.00  0.00    +0.005 A 
ATOM     14  C   UNL     1      -9.050   2.222  11.180  0.00  0.00    +0.000 A 
ATOM     15  C   UNL     1     -10.687   3.386   9.850  0.00  0.00    +0.000 A 
ATOM     16  C   UNL     1      -9.368   3.219  10.264  0.00  0.00    +0.000 A 
ENDBRANCH  10  11
ENDBRANCH   1  10
TORSDOF 2
ENDMDL
MODEL 9
REMARK VINA RESULT:    -4.173     35.220     36.940
REMARK INTER + INTRA:          -4.770
REMARK INTER:                  -4.680
REMARK INTRA:                  -0.090
REMARK UNBOUND:                -0.109
REMARK  Name = 1550473
REMARK  2 active torsions:
REMARK  status: ('A' for Active; 'I' for Inactive)
REMARK    1  A    between atoms: N_1  and  C_4
REMARK    2  A    between atoms: C_4  and  C_5
REMARK                            x       y       z     vdW  Elec       q    Type
REMARK                         _______ _______ _______ _____ _____    ______ ____
ROOT
ATOM      1  N   UNL     1     -13.178   2.958 -11.241  0.00  0.00    -0.354 N 
ATOM      2  N   UNL     1     -14.611   3.247 -13.038  0.00  0.00    -0.372 N 
ATOM      3  N   UNL     1     -14.092   1.116 -12.364  0.00  0.00    -0.372 N 
ATOM      4  C   UNL     1     -13.951   2.436 -12.203  0.00  0.00    +0.166 C 
ATOM      5  H   UNL     1     -13.088   3.966 -11.190  0.00  0.00    +0.163 HD
ATOM      6  H   UNL     1     -15.204   2.882 -13.771  0.00  0.00    +0.159 HD
ATOM      7  H   UNL     1     -14.556   4.255 -12.955  0.00  0.00    +0.159 HD
ATOM      8  H   UNL     1     -13.616   0.449 -11.771  0.00  0.00    +0.159 HD
ATOM      9  H   UNL     1     -14.672   0.731 -13.100  0.00  0.00    +0.159 HD
ENDROOT
BRANCH   1  10
ATOM     10  C   UNL     1     -12.460   2.162 -10.247  0.00  0.00    +0.151 C 
BRANCH  10  11
ATOM     11  C   UNL     1     -11.685   3.085  -9.346  0.00  0.00    -0.028 A 
ATOM     12  C   UNL     1     -12.268   3.591  -8.175  0.00  0.00    +0.005 A 
ATOM     13  C   UNL     1     -10.367   3.452  -9.655  0.00  0.00    +0.005 A 
ATOM     14  C   UNL     1     -11.539   4.423  -7.322  0.00  0.00    +0.000 A 
ATOM     15  C   UNL     1      -9.642   4.284  -8.802  0.00  0.00    +0.000 A 
ATOM     16  C   UNL     1     -10.228   4.768  -7.634  0.00  0.00    +0.000 A 
ENDBRANCH  10  11
ENDBRANCH   1  10
TORSDOF 2
ENDMDL
