MODEL 1
REMARK VINA RESULT:    -5.900      0.000      0.000
REMARK INTER + INTRA:          -6.704
REMARK INTER:                  -6.590
REMARK INTRA:                  -0.114
REMARK UNBOUND:                -0.114
REMARK  Name = 1550473
REMARK  2 active torsions:
REMARK  status: ('A' for Active; 'I' for Inactive)
REMARK    1  A    between atoms: N_1  and  C_4
REMARK    2  A    between atoms: C_4  and  C_5
REMARK                            x       y       z     vdW  Elec       q    Type
REMARK                         _______ _______ _______ _____ _____    ______ ____
ROOT
ATOM      1  N   UNL     1       0.787  -4.387   3.976  0.00  0.00    -0.354 N 
ATOM      2  N   UNL     1       3.050  -4.678   4.374  0.00  0.00    -0.372 N 
ATOM      3  N   UNL     1       2.120  -2.609   4.719  0.00  0.00    -0.372 N 
ATOM      4  C   UNL     1       1.971  -3.887   4.354  0.00  0.00    +0.166 C 
ATOM      5  H   UNL     1       0.746  -5.357   3.682  0.00  0.00    +0.163 HD
ATOM      6  H   UNL     1       3.956  -4.329   4.658  0.00  0.00    +0.159 HD
ATOM      7  H   UNL     1       2.997  -5.658   4.123  0.00  0.00    +0.159 HD
ATOM      8  H   UNL     1       1.346  -1.958   4.720  0.00  0.00    +0.159 HD
ATOM      9  H   UNL     1       3.021  -2.238   4.995  0.00  0.00    +0.159 HD
ENDROOT
BRANCH   1  10
ATOM     10  C   UNL     1      -0.460  -3.624   3.971  0.00  0.00    +0.151 C 
BRANCH  10  11
ATOM     11  C   UNL     1      -1.299  -4.061   2.802  0.00  0.00    -0.028 A 
ATOM     12  C   UNL     1      -0.980  -3.644   1.502  0.00  0.00    +0.005 A 
ATOM     13  C   UNL     1      -2.410  -4.897   2.988  0.00  0.00    +0.005 A 
ATOM     14  C   UNL     1      -1.742  -4.074   0.412  0.00  0.00    +0.000 A 
ATOM     15  C   UNL     1      -3.168  -5.324   1.898  0.00  0.00    +0.000 A 
ATOM     16  C   UNL     1      -2.832  -4.914   0.610  0.00  0.00    +0.000 A 
ENDBRANCH  10  11
ENDBRANCH   1  10
TORSDOF 2
ENDMDL
MODEL 2
REMARK VINA RESULT:    -5.702     11.527     12.297
REMARK INTER + INTRA:          -6.483
REMARK INTER:                  -6.351
REMARK INTRA:                  -0.132
REMARK UNBOUND:                -0.114
REMARK  Name = 1550473
REMARK  2 active torsions:
REMARK  status: ('A' for Active; 'I' for Inactive)
REMARK    1  A    between atoms: N_1  and  C_4
REMARK    2  A    between atoms: C_4  and  C_5
REMARK                            x       y       z     vdW  Elec       q    Type
REMARK                         _______ _______ _______ _____ _____    ______ ____
ROOT
ATOM      1  N   UNL     1       4.828 -13.230  -3.069  0.00  0.00    -0.354 N 
ATOM      2  N   UNL     1       6.651 -13.164  -1.642  0.00  0.00    -0.372 N 
ATOM      3  N   UNL     1       5.049 -11.530  -1.471  0.00  0.00    -0.372 N 
ATOM      4  C   UNL     1       5.496 -12.639  -2.069  0.00  0.00    +0.166 C 
ATOM      5  H   UNL     1       5.235 -14.052  -3.501  0.00  0.00    +0.163 HD
ATOM      6  H   UNL     1       7.175 -12.742  -0.887  0.00  0.00    +0.159 HD
ATOM      7  H   UNL     1       7.033 -14.011  -2.045  0.00  0.00    +0.159 HD
ATOM      8  H   UNL     1       4.187 -11.081  -1.751  0.00  0.00    +0.159 HD
ATOM      9  H   UNL     1       5.566 -11.087  -0.722  0.00  0.00    +0.159 HD
ENDROOT
BRANCH   1  10
ATOM     10  C   UNL     1       3.535 -12.770  -3.573  0.00  0.00    +0.151 C 
BRANCH  10  11
ATOM     11  C   UNL     1       3.647 -12.513  -5.050  0.00  0.00    -0.028 A 
ATOM     12  C   UNL     1       2.521 -12.623  -5.879  0.00  0.00    +0.005 A 
ATOM     13  C   UNL     1       4.875 -12.153  -5.626  0.00  0.00    +0.005 A 
ATOM     14  C   UNL     1       2.618 -12.355  -7.247  0.00  0.00    +0.000 A 
ATOM     15  C   UNL     1       4.968 -11.888  -6.993  0.00  0.00    +0.000 A 
ATOM     16  C   UNL     1       3.839 -11.986  -7.802  0.00  0.00    +0.000 A 
ENDBRANCH  10  11
ENDBRANCH   1  10
TORSDOF 2
ENDMDL
MODEL 3
REMARK VINA RESULT:    -5.696      2.450      3.580
REMARK INTER + INTRA:          -6.475
REMARK INTER:                  -6.310
REMARK INTRA:                  -0.165
REMARK UNBOUND:                -0.114
REMARK  Name = 1550473
REMARK  2 active torsions:
REMARK  status: ('A' for Active; 'I' for Inactive)
REMARK    1  A    between atoms: N_1  and  C_4
REMARK    2  A    between atoms: C_4  and  C_5
REMARK                            x       y       z     vdW  Elec       q    Type
REMARK                         _______ _______ _______ _____ _____    ______ ____
ROOT
ATOM      1  N   UNL     1      -1.709  -3.863   4.384  0.00  0.00    -0.354 N 
ATOM      2  N   UNL     1      -3.598  -4.650   5.469  0.00  0.00    -0.372 N 
ATOM      3  N   UNL     1      -2.384  -6.096   4.165  0.00  0.00    -0.372 N 
ATOM      4  C   UNL     1      -2.550  -4.867   4.664  0.00  0.00    +0.166 C 
ATOM      5  H   UNL     1      -1.908  -2.946   4.770  0.00  0.00    +0.163 HD
ATOM      6  H   UNL     1      -4.247  -5.389   5.701  0.00  0.00    +0.159 HD
ATOM      7  H   UNL     1      -3.768  -3.745   5.890  0.00  0.00    +0.159 HD
ATOM      8  H   UNL     1      -1.617  -6.324   3.547  0.00  0.00    +0.159 HD
ATOM      9  H   UNL     1      -3.030  -6.846   4.377  0.00  0.00    +0.159 HD
ENDROOT
BRANCH   1  10
ATOM     10  C   UNL     1      -0.509  -4.007   3.562  0.00  0.00    +0.151 C 
BRANCH  10  11
ATOM     11  C   UNL     1      -0.782  -3.450   2.192  0.00  0.00    -0.028 A 
ATOM     12  C   UNL     1      -0.444  -2.125   1.882  0.00  0.00    +0.005 A 
ATOM     13  C   UNL     1      -1.373  -4.245   1.198  0.00  0.00    +0.005 A 
ATOM     14  C   UNL     1      -0.670  -1.616   0.601  0.00  0.00    +0.000 A 
ATOM     15  C   UNL     1      -1.598  -3.733  -0.080  0.00  0.00    +0.000 A 
ATOM     16  C   UNL     1      -1.244  -2.420  -0.379  0.00  0.00    +0.000 A 
ENDBRANCH  10  11
ENDBRANCH   1  10
TORSDOF 2
ENDMDL
MODEL 4
REMARK VINA RESULT:    -5.617     10.756     11.405
REMARK INTER + INTRA:          -6.388
REMARK INTER:                  -6.250
REMARK INTRA:                  -0.138
REMARK UNBOUND:                -0.114
REMARK  Name = 1550473
REMARK  2 active torsions:
REMARK  status: ('A' for Active; 'I' for Inactive)
REMARK    1  A    between atoms: N_1  and  C_4
REMARK    2  A    between atoms: C_4  and  C_5
REMARK                            x       y       z     vdW  Elec       q    Type
REMARK                         _______ _______ _______ _____ _____    ______ ____
ROOT
ATOM      1  N   UNL     1       4.601 -11.641  -1.969  0.00  0.00    -0.354 N 
ATOM      2  N   UNL     1       5.007  -9.820  -0.596  0.00  0.00    -0.372 N 
ATOM      3  N   UNL     1       6.790 -10.992  -1.441  0.00  0.00    -0.372 N 
ATOM      4  C   UNL     1       5.466 -10.830  -1.345  0.00  0.00    +0.166 C 
ATOM      5  H   UNL     1       3.609 -11.484  -1.831  0.00  0.00    +0.163 HD
ATOM      6  H   UNL     1       5.635  -9.190  -0.116  0.00  0.00    +0.159 HD
ATOM      7  H   UNL     1       4.015  -9.637  -0.498  0.00  0.00    +0.159 HD
ATOM      8  H   UNL     1       7.200 -11.739  -1.985  0.00  0.00    +0.159 HD
ATOM      9  H   UNL     1       7.435 -10.379  -0.958  0.00  0.00    +0.159 HD
ENDROOT
BRANCH   1  10
ATOM     10  C   UNL     1       4.998 -12.737  -2.850  0.00  0.00    +0.151 C 
BRANCH  10  11
ATOM     11  C   UNL     1       4.389 -12.521  -4.208  0.00  0.00    -0.028 A 
ATOM     12  C   UNL     1       5.145 -11.958  -5.246  0.00  0.00    +0.005 A 
ATOM     13  C   UNL     1       3.057 -12.883  -4.464  0.00  0.00    +0.005 A 
ATOM     14  C   UNL     1       4.589 -11.785  -6.516  0.00  0.00    +0.000 A 
ATOM     15  C   UNL     1       2.505 -12.708  -5.733  0.00  0.00    +0.000 A 
ATOM     16  C   UNL     1       3.272 -12.161  -6.759  0.00  0.00    +0.000 A 
ENDBRANCH  10  11
ENDBRANCH   1  10
TORSDOF 2
ENDMDL
MODEL 5
REMARK VINA RESULT:    -5.424      2.320      2.964
REMARK INTER + INTRA:          -6.172
REMARK INTER:                  -6.063
REMARK INTRA:                  -0.108
REMARK UNBOUND:                -0.114
REMARK  Name = 1550473
REMARK  2 active torsions:
REMARK  status: ('A' for Active; 'I' for Inactive)
REMARK    1  A    between atoms: N_1  and  C_4
REMARK    2  A    between atoms: C_4  and  C_5
REMARK                            x       y       z     vdW  Elec       q    Type
REMARK                         _______ _______ _______ _____ _____    ______ ____
ROOT
ATOM      1  N   UNL     1      -0.640  -0.999   2.951  0.00  0.00    -0.354 N 
ATOM      2  N   UNL     1      -0.697   0.952   4.198  0.00  0.00    -0.372 N 
ATOM      3  N   UNL     1       1.233  -0.289   4.166  0.00  0.00    -0.372 N 
ATOM      4  C   UNL     1      -0.032  -0.126   3.764  0.00  0.00    +0.166 C 
ATOM      5  H   UNL     1      -1.610  -0.834   2.707  0.00  0.00    +0.163 HD
ATOM      6  H   UNL     1      -0.263   1.630   4.810  0.00  0.00    +0.159 HD
ATOM      7  H   UNL     1      -1.651   1.138   3.916  0.00  0.00    +0.159 HD
ATOM      8  H   UNL     1       1.788  -1.084   3.879  0.00  0.00    +0.159 HD
ATOM      9  H   UNL     1       1.681   0.373   4.788  0.00  0.00    +0.159 HD
ENDROOT
BRANCH   1  10
ATOM     10  C   UNL     1       0.012  -2.176   2.379  0.00  0.00    +0.151 C 
BRANCH  10  11
ATOM     11  C   UNL     1      -1.028  -3.222   2.089  0.00  0.00    -0.028 A 
ATOM     12  C   UNL     1      -1.319  -3.590   0.768  0.00  0.00    +0.005 A 
ATOM     13  C   UNL     1      -1.722  -3.854   3.133  0.00  0.00    +0.005 A 
ATOM     14  C   UNL     1      -2.264  -4.583   0.499  0.00  0.00    +0.000 A 
ATOM     15  C   UNL     1      -2.665  -4.845   2.861  0.00  0.00    +0.000 A 
ATOM     16  C   UNL     1      -2.934  -5.211   1.544  0.00  0.00    +0.000 A 
ENDBRANCH  10  11
ENDBRANCH   1  10
TORSDOF 2
ENDMDL
MODEL 6
REMARK VINA RESULT:    -5.379      3.496      4.702
REMARK INTER + INTRA:          -6.121
REMARK INTER:                  -5.968
REMARK INTRA:                  -0.154
REMARK UNBOUND:                -0.114
REMARK  Name = 1550473
REMARK  2 active torsions:
REMARK  status: ('A' for Active; 'I' for Inactive)
REMARK    1  A    between atoms: N_1  and  C_4
REMARK    2  A    between atoms: C_4  and  C_5
REMARK                            x       y       z     vdW  Elec       q    Type
REMARK                         _______ _______ _______ _____ _____    ______ ____
ROOT
ATOM      1  N   UNL     1      -0.215  -2.134  -0.448  0.00  0.00    -0.354 N 
ATOM      2  N   UNL     1      -0.265   0.172  -0.660  0.00  0.00    -0.372 N 
ATOM      3  N   UNL     1      -1.828  -1.079  -1.781  0.00  0.00    -0.372 N 
ATOM      4  C   UNL     1      -0.771  -1.029  -0.964  0.00  0.00    +0.166 C 
ATOM      5  H   UNL     1       0.603  -2.031   0.141  0.00  0.00    +0.163 HD
ATOM      6  H   UNL     1      -0.665   1.023  -1.031  0.00  0.00    +0.159 HD
ATOM      7  H   UNL     1       0.525   0.275  -0.034  0.00  0.00    +0.159 HD
ATOM      8  H   UNL     1      -2.253  -1.955  -2.054  0.00  0.00    +0.159 HD
ATOM      9  H   UNL     1      -2.235  -0.239  -2.173  0.00  0.00    +0.159 HD
ENDROOT
BRANCH   1  10
ATOM     10  C   UNL     1      -0.723  -3.486  -0.673  0.00  0.00    +0.151 C 
BRANCH  10  11
ATOM     11  C   UNL     1      -1.299  -4.014   0.612  0.00  0.00    -0.028 A 
ATOM     12  C   UNL     1      -2.511  -4.720   0.611  0.00  0.00    +0.005 A 
ATOM     13  C   UNL     1      -0.636  -3.816   1.833  0.00  0.00    +0.005 A 
ATOM     14  C   UNL     1      -3.032  -5.237   1.800  0.00  0.00    +0.000 A 
ATOM     15  C   UNL     1      -1.160  -4.332   3.018  0.00  0.00    +0.000 A 
ATOM     16  C   UNL     1      -2.357  -5.045   3.001  0.00  0.00    +0.000 A 
ENDBRANCH  10  11
ENDBRANCH   1  10
TORSDOF 2
ENDMDL
MODEL 7
REMARK VINA RESULT:    -5.234      1.891      2.517
REMARK INTER + INTRA:          -5.960
REMARK INTER:                  -5.833
REMARK INTRA:                  -0.127
REMARK UNBOUND:                -0.114
REMARK  Name = 1550473
REMARK  2 active torsions:
REMARK  status: ('A' for Active; 'I' for Inactive)
REMARK    1  A    between atoms: N_1  and  C_4
REMARK    2  A    between atoms: C_4  and  C_5
REMARK                            x       y       z     vdW  Elec       q    Type
REMARK                         _______ _______ _______ _____ _____    ______ ____
ROOT
ATOM      1  N   UNL     1       0.778  -2.098   1.980  0.00  0.00    -0.354 N 
ATOM      2  N   UNL     1       2.182  -0.766   3.251  0.00  0.00    -0.372 N 
ATOM      3  N   UNL     1       3.106  -2.232   1.746  0.00  0.00    -0.372 N 
ATOM      4  C   UNL     1       2.015  -1.709   2.316  0.00  0.00    +0.166 C 
ATOM      5  H   UNL     1      -0.007  -1.684   2.470  0.00  0.00    +0.163 HD
ATOM      6  H   UNL     1       3.104  -0.450   3.523  0.00  0.00    +0.159 HD
ATOM      7  H   UNL     1       1.395  -0.321   3.707  0.00  0.00    +0.159 HD
ATOM      8  H   UNL     1       3.047  -2.951   1.038  0.00  0.00    +0.159 HD
ATOM      9  H   UNL     1       4.036  -1.937   2.014  0.00  0.00    +0.159 HD
ENDROOT
BRANCH   1  10
ATOM     10  C   UNL     1       0.484  -3.079   0.936  0.00  0.00    +0.151 C 
BRANCH  10  11
ATOM     11  C   UNL     1      -0.754  -3.843   1.314  0.00  0.00    -0.028 A 
ATOM     12  C   UNL     1      -1.690  -4.211   0.337  0.00  0.00    +0.005 A 
ATOM     13  C   UNL     1      -0.995  -4.207   2.648  0.00  0.00    +0.005 A 
ATOM     14  C   UNL     1      -2.826  -4.947   0.683  0.00  0.00    +0.000 A 
ATOM     15  C   UNL     1      -2.131  -4.941   2.990  0.00  0.00    +0.000 A 
ATOM     16  C   UNL     1      -3.045  -5.313   2.007  0.00  0.00    +0.000 A 
ENDBRANCH  10  11
ENDBRANCH   1  10
TORSDOF 2
ENDMDL
MODEL 8
REMARK VINA RESULT:    -5.166     18.360     19.447
REMARK INTER + INTRA:          -5.884
REMARK INTER:                  -5.733
REMARK INTRA:                  -0.151
REMARK UNBOUND:                -0.114
REMARK  Name = 1550473
REMARK  2 active torsions:
REMARK  status: ('A' for Active; 'I' for Inactive)
REMARK    1  A    between atoms: N_1  and  C_4
REMARK    2  A    between atoms: C_4  and  C_5
REMARK                            x       y       z     vdW  Elec       q    Type
REMARK                         _______ _______ _______ _____ _____    ______ ____
ROOT
ATOM      1  N   UNL     1       7.050   7.924 -10.130  0.00  0.00    -0.354 N 
ATOM      2  N   UNL     1       5.308   8.433  -8.690  0.00  0.00    -0.372 N 
ATOM      3  N   UNL     1       4.821   7.555 -10.753  0.00  0.00    -0.372 N 
ATOM      4  C   UNL     1       5.736   7.966  -9.870  0.00  0.00    +0.166 C 
ATOM      5  H   UNL     1       7.691   8.279  -9.430  0.00  0.00    +0.163 HD
ATOM      6  H   UNL     1       4.324   8.473  -8.464  0.00  0.00    +0.159 HD
ATOM      7  H   UNL     1       5.954   8.744  -7.975  0.00  0.00    +0.159 HD
ATOM      8  H   UNL     1       5.078   7.198 -11.664  0.00  0.00    +0.159 HD
ATOM      9  H   UNL     1       3.830   7.599 -10.550  0.00  0.00    +0.159 HD
ENDROOT
BRANCH   1  10
ATOM     10  C   UNL     1       7.622   7.384 -11.362  0.00  0.00    +0.151 C 
BRANCH  10  11
ATOM     11  C   UNL     1       8.555   6.257 -11.018  0.00  0.00    -0.028 A 
ATOM     12  C   UNL     1       9.945   6.444 -11.063  0.00  0.00    +0.005 A 
ATOM     13  C   UNL     1       8.057   5.000 -10.640  0.00  0.00    +0.005 A 
ATOM     14  C   UNL     1      10.812   5.406 -10.714  0.00  0.00    +0.000 A 
ATOM     15  C   UNL     1       8.926   3.966 -10.294  0.00  0.00    +0.000 A 
ATOM     16  C   UNL     1      10.303   4.170 -10.328  0.00  0.00    +0.000 A 
ENDBRANCH  10  11
ENDBRANCH   1  10
TORSDOF 2
ENDMDL
MODEL 9
REMARK VINA RESULT:    -5.156      1.539      2.298
REMARK INTER + INTRA:          -5.873
REMARK INTER:                  -5.736
REMARK INTRA:                  -0.137
REMARK UNBOUND:                -0.114
REMARK  Name = 1550473
REMARK  2 active torsions:
REMARK  status: ('A' for Active; 'I' for Inactive)
REMARK    1  A    between atoms: N_1  and  C_4
REMARK    2  A    between atoms: C_4  and  C_5
REMARK                            x       y       z     vdW  Elec       q    Type
REMARK                         _______ _______ _______ _____ _____    ______ ____
ROOT
ATOM      1  N   UNL     1       0.923  -2.620   3.230  0.00  0.00    -0.354 N 
ATOM      2  N   UNL     1       2.685  -1.167   2.847  0.00  0.00    -0.372 N 
ATOM      3  N   UNL     1       0.762  -0.352   3.795  0.00  0.00    -0.372 N 
ATOM      4  C   UNL     1       1.443  -1.388   3.294  0.00  0.00    +0.166 C 
ATOM      5  H   UNL     1       1.480  -3.357   2.811  0.00  0.00    +0.163 HD
ATOM      6  H   UNL     1       3.106  -0.248   2.886  0.00  0.00    +0.159 HD
ATOM      7  H   UNL     1       3.257  -1.914   2.471  0.00  0.00    +0.159 HD
ATOM      8  H   UNL     1      -0.183  -0.450   4.144  0.00  0.00    +0.159 HD
ATOM      9  H   UNL     1       1.161   0.578   3.832  0.00  0.00    +0.159 HD
ENDROOT
BRANCH   1  10
ATOM     10  C   UNL     1      -0.400  -2.977   3.739  0.00  0.00    +0.151 C 
BRANCH  10  11
ATOM     11  C   UNL     1      -1.174  -3.671   2.652  0.00  0.00    -0.028 A 
ATOM     12  C   UNL     1      -2.171  -4.604   2.972  0.00  0.00    +0.005 A 
ATOM     13  C   UNL     1      -0.918  -3.397   1.300  0.00  0.00    +0.005 A 
ATOM     14  C   UNL     1      -2.910  -5.227   1.964  0.00  0.00    +0.000 A 
ATOM     15  C   UNL     1      -1.657  -4.021   0.296  0.00  0.00    +0.000 A 
ATOM     16  C   UNL     1      -2.655  -4.935   0.628  0.00  0.00    +0.000 A 
ENDBRANCH  10  11
ENDBRANCH   1  10
TORSDOF 2
ENDMDL
