MODEL 1
REMARK VINA RESULT:    -5.257      0.000      0.000
REMARK INTER + INTRA:          -5.964
REMARK INTER:                  -5.872
REMARK INTRA:                  -0.092
REMARK UNBOUND:                -0.092
REMARK  Name = 1550473
REMARK  2 active torsions:
REMARK  status: ('A' for Active; 'I' for Inactive)
REMARK    1  A    between atoms: N_1  and  C_4
REMARK    2  A    between atoms: C_4  and  C_5
REMARK                            x       y       z     vdW  Elec       q    Type
REMARK                         _______ _______ _______ _____ _____    ______ ____
ROOT
ATOM      1  N   UNL     1      -8.272   6.788   6.788  0.00  0.00    -0.354 N 
ATOM      2  N   UNL     1      -6.150   6.263   7.551  0.00  0.00    -0.372 N 
ATOM      3  N   UNL     1      -6.367   7.363   5.550  0.00  0.00    -0.372 N 
ATOM      4  C   UNL     1      -6.943   6.809   6.622  0.00  0.00    +0.166 C 
ATOM      5  H   UNL     1      -8.648   6.325   7.608  0.00  0.00    +0.163 HD
ATOM      6  H   UNL     1      -5.143   6.267   7.456  0.00  0.00    +0.159 HD
ATOM      7  H   UNL     1      -6.525   5.842   8.393  0.00  0.00    +0.159 HD
ATOM      8  H   UNL     1      -6.910   7.787   4.810  0.00  0.00    +0.159 HD
ATOM      9  H   UNL     1      -5.362   7.367   5.430  0.00  0.00    +0.159 HD
ENDROOT
BRANCH   1  10
ATOM     10  C   UNL     1      -9.221   7.402   5.861  0.00  0.00    +0.151 C 
BRANCH  10  11
ATOM     11  C   UNL     1     -10.574   7.468   6.516  0.00  0.00    -0.028 A 
ATOM     12  C   UNL     1     -11.071   8.686   7.002  0.00  0.00    +0.005 A 
ATOM     13  C   UNL     1     -11.365   6.316   6.648  0.00  0.00    +0.005 A 
ATOM     14  C   UNL     1     -12.340   8.753   7.583  0.00  0.00    +0.000 A 
ATOM     15  C   UNL     1     -12.631   6.387   7.229  0.00  0.00    +0.000 A 
ATOM     16  C   UNL     1     -13.119   7.606   7.694  0.00  0.00    +0.000 A 
ENDBRANCH  10  11
ENDBRANCH   1  10
TORSDOF 2
ENDMDL
MODEL 2
REMARK VINA RESULT:    -4.955     28.244     29.630
REMARK INTER + INTRA:          -5.626
REMARK INTER:                  -5.463
REMARK INTRA:                  -0.163
REMARK UNBOUND:                -0.092
REMARK  Name = 1550473
REMARK  2 active torsions:
REMARK  status: ('A' for Active; 'I' for Inactive)
REMARK    1  A    between atoms: N_1  and  C_4
REMARK    2  A    between atoms: C_4  and  C_5
REMARK                            x       y       z     vdW  Elec       q    Type
REMARK                         _______ _______ _______ _____ _____    ______ ____
ROOT
ATOM      1  N   UNL     1       2.654 -11.904 -13.974  0.00  0.00    -0.354 N 
ATOM      2  N   UNL     1       3.330 -14.057 -14.495  0.00  0.00    -0.372 N 
ATOM      3  N   UNL     1       1.636 -13.764 -12.975  0.00  0.00    -0.372 N 
ATOM      4  C   UNL     1       2.533 -13.228 -13.809  0.00  0.00    +0.166 C 
ATOM      5  H   UNL     1       3.374 -11.560 -14.599  0.00  0.00    +0.163 HD
ATOM      6  H   UNL     1       3.260 -15.061 -14.394  0.00  0.00    +0.159 HD
ATOM      7  H   UNL     1       4.018 -13.712 -15.153  0.00  0.00    +0.159 HD
ATOM      8  H   UNL     1       1.009 -13.192 -12.424  0.00  0.00    +0.159 HD
ATOM      9  H   UNL     1       1.559 -14.766 -12.852  0.00  0.00    +0.159 HD
ENDROOT
BRANCH   1  10
ATOM     10  C   UNL     1       1.800 -10.917 -13.316  0.00  0.00    +0.151 C 
BRANCH  10  11
ATOM     11  C   UNL     1       2.605 -10.184 -12.280  0.00  0.00    -0.028 A 
ATOM     12  C   UNL     1       3.701  -9.394 -12.657  0.00  0.00    +0.005 A 
ATOM     13  C   UNL     1       2.275 -10.270 -10.918  0.00  0.00    +0.005 A 
ATOM     14  C   UNL     1       4.431  -8.688 -11.698  0.00  0.00    +0.000 A 
ATOM     15  C   UNL     1       3.007  -9.565  -9.964  0.00  0.00    +0.000 A 
ATOM     16  C   UNL     1       4.083  -8.772 -10.354  0.00  0.00    +0.000 A 
ENDBRANCH  10  11
ENDBRANCH   1  10
TORSDOF 2
ENDMDL
MODEL 3
REMARK VINA RESULT:    -4.921      0.616      1.568
REMARK INTER + INTRA:          -5.588
REMARK INTER:                  -5.492
REMARK INTRA:                  -0.097
REMARK UNBOUND:                -0.092
REMARK  Name = 1550473
REMARK  2 active torsions:
REMARK  status: ('A' for Active; 'I' for Inactive)
REMARK    1  A    between atoms: N_1  and  C_4
REMARK    2  A    between atoms: C_4  and  C_5
REMARK                            x       y       z     vdW  Elec       q    Type
REMARK                         _______ _______ _______ _____ _____    ______ ____
ROOT
ATOM      1  N   UNL     1      -8.295   6.759   7.024  0.00  0.00    -0.354 N 
ATOM      2  N   UNL     1      -6.257   6.396   8.062  0.00  0.00    -0.372 N 
ATOM      3  N   UNL     1      -6.287   6.912   5.826  0.00  0.00    -0.372 N 
ATOM      4  C   UNL     1      -6.959   6.692   6.961  0.00  0.00    +0.166 C 
ATOM      5  H   UNL     1      -8.747   6.552   7.907  0.00  0.00    +0.163 HD
ATOM      6  H   UNL     1      -5.248   6.341   8.046  0.00  0.00    +0.159 HD
ATOM      7  H   UNL     1      -6.708   6.235   8.954  0.00  0.00    +0.159 HD
ATOM      8  H   UNL     1      -6.758   7.133   4.959  0.00  0.00    +0.159 HD
ATOM      9  H   UNL     1      -5.277   6.850   5.787  0.00  0.00    +0.159 HD
ENDROOT
BRANCH   1  10
ATOM     10  C   UNL     1      -9.149   7.126   5.895  0.00  0.00    +0.151 C 
BRANCH  10  11
ATOM     11  C   UNL     1     -10.436   7.702   6.420  0.00  0.00    -0.028 A 
ATOM     12  C   UNL     1     -11.404   6.869   7.000  0.00  0.00    +0.005 A 
ATOM     13  C   UNL     1     -10.690   9.080   6.345  0.00  0.00    +0.005 A 
ATOM     14  C   UNL     1     -12.586   7.407   7.514  0.00  0.00    +0.000 A 
ATOM     15  C   UNL     1     -11.872   9.613   6.859  0.00  0.00    +0.000 A 
ATOM     16  C   UNL     1     -12.819   8.777   7.446  0.00  0.00    +0.000 A 
ENDBRANCH  10  11
ENDBRANCH   1  10
TORSDOF 2
ENDMDL
MODEL 4
REMARK VINA RESULT:    -4.491     26.668     27.718
REMARK INTER + INTRA:          -5.108
REMARK INTER:                  -4.976
REMARK INTRA:                  -0.133
REMARK UNBOUND:                -0.092
REMARK  Name = 1550473
REMARK  2 active torsions:
REMARK  status: ('A' for Active; 'I' for Inactive)
REMARK    1  A    between atoms: N_1  and  C_4
REMARK    2  A    between atoms: C_4  and  C_5
REMARK                            x       y       z     vdW  Elec       q    Type
REMARK                         _______ _______ _______ _____ _____    ______ ____
ROOT
ATOM      1  N   UNL     1       6.337  -6.871 -10.456  0.00  0.00    -0.354 N 
ATOM      2  N   UNL     1       6.841  -4.727  -9.740  0.00  0.00    -0.372 N 
ATOM      3  N   UNL     1       7.006  -5.216 -11.975  0.00  0.00    -0.372 N 
ATOM      4  C   UNL     1       6.725  -5.619 -10.731  0.00  0.00    +0.166 C 
ATOM      5  H   UNL     1       6.168  -7.121  -9.489  0.00  0.00    +0.163 HD
ATOM      6  H   UNL     1       7.129  -3.774  -9.917  0.00  0.00    +0.159 HD
ATOM      7  H   UNL     1       6.627  -4.968  -8.779  0.00  0.00    +0.159 HD
ATOM      8  H   UNL     1       6.944  -5.842 -12.767  0.00  0.00    +0.159 HD
ATOM      9  H   UNL     1       7.307  -4.270 -12.171  0.00  0.00    +0.159 HD
ENDROOT
BRANCH   1  10
ATOM     10  C   UNL     1       6.128  -7.903 -11.470  0.00  0.00    +0.151 C 
BRANCH  10  11
ATOM     11  C   UNL     1       4.834  -8.615 -11.187  0.00  0.00    -0.028 A 
ATOM     12  C   UNL     1       4.133  -9.254 -12.220  0.00  0.00    +0.005 A 
ATOM     13  C   UNL     1       4.308  -8.660  -9.887  0.00  0.00    +0.005 A 
ATOM     14  C   UNL     1       2.946  -9.941 -11.952  0.00  0.00    +0.000 A 
ATOM     15  C   UNL     1       3.122  -9.346  -9.624  0.00  0.00    +0.000 A 
ATOM     16  C   UNL     1       2.443  -9.988 -10.656  0.00  0.00    +0.000 A 
ENDBRANCH  10  11
ENDBRANCH   1  10
TORSDOF 2
ENDMDL
MODEL 5
REMARK VINA RESULT:    -4.275     27.897     29.282
REMARK INTER + INTRA:          -4.867
REMARK INTER:                  -4.720
REMARK INTRA:                  -0.147
REMARK UNBOUND:                -0.092
REMARK  Name = 1550473
REMARK  2 active torsions:
REMARK  status: ('A' for Active; 'I' for Inactive)
REMARK    1  A    between atoms: N_1  and  C_4
REMARK    2  A    between atoms: C_4  and  C_5
REMARK                            x       y       z     vdW  Elec       q    Type
REMARK                         _______ _______ _______ _____ _____    ______ ____
ROOT
ATOM      1  N   UNL     1       5.055  -8.159 -14.376  0.00  0.00    -0.354 N 
ATOM      2  N   UNL     1       6.198  -6.354 -15.271  0.00  0.00    -0.372 N 
ATOM      3  N   UNL     1       7.379  -8.228 -14.673  0.00  0.00    -0.372 N 
ATOM      4  C   UNL     1       6.205  -7.594 -14.767  0.00  0.00    +0.166 C 
ATOM      5  H   UNL     1       4.203  -7.614 -14.445  0.00  0.00    +0.163 HD
ATOM      6  H   UNL     1       7.049  -5.903 -15.578  0.00  0.00    +0.159 HD
ATOM      7  H   UNL     1       5.339  -5.829 -15.382  0.00  0.00    +0.159 HD
ATOM      8  H   UNL     1       7.454  -9.163 -14.296  0.00  0.00    +0.159 HD
ATOM      9  H   UNL     1       8.244  -7.788 -14.964  0.00  0.00    +0.159 HD
ENDROOT
BRANCH   1  10
ATOM     10  C   UNL     1       4.948  -9.524 -13.864  0.00  0.00    +0.151 C 
BRANCH  10  11
ATOM     11  C   UNL     1       4.221  -9.498 -12.548  0.00  0.00    -0.028 A 
ATOM     12  C   UNL     1       4.687  -8.701 -11.492  0.00  0.00    +0.005 A 
ATOM     13  C   UNL     1       3.062 -10.265 -12.352  0.00  0.00    +0.005 A 
ATOM     14  C   UNL     1       3.995  -8.654 -10.279  0.00  0.00    +0.000 A 
ATOM     15  C   UNL     1       2.375 -10.216 -11.139  0.00  0.00    +0.000 A 
ATOM     16  C   UNL     1       2.840  -9.409 -10.104  0.00  0.00    +0.000 A 
ENDBRANCH  10  11
ENDBRANCH   1  10
TORSDOF 2
ENDMDL
MODEL 6
REMARK VINA RESULT:    -4.240     28.095     29.238
REMARK INTER + INTRA:          -4.828
REMARK INTER:                  -4.749
REMARK INTRA:                  -0.079
REMARK UNBOUND:                -0.092
REMARK  Name = 1550473
REMARK  2 active torsions:
REMARK  status: ('A' for Active; 'I' for Inactive)
REMARK    1  A    between atoms: N_1  and  C_4
REMARK    2  A    between atoms: C_4  and  C_5
REMARK                            x       y       z     vdW  Elec       q    Type
REMARK                         _______ _______ _______ _____ _____    ______ ____
ROOT
ATOM      1  N   UNL     1       5.990  -8.930 -13.049  0.00  0.00    -0.354 N 
ATOM      2  N   UNL     1       6.994  -9.241 -15.113  0.00  0.00    -0.372 N 
ATOM      3  N   UNL     1       5.418  -7.589 -14.884  0.00  0.00    -0.372 N 
ATOM      4  C   UNL     1       6.126  -8.583 -14.336  0.00  0.00    +0.166 C 
ATOM      5  H   UNL     1       6.534  -9.712 -12.702  0.00  0.00    +0.163 HD
ATOM      6  H   UNL     1       7.120  -8.999 -16.087  0.00  0.00    +0.159 HD
ATOM      7  H   UNL     1       7.570  -9.992 -14.751  0.00  0.00    +0.159 HD
ATOM      8  H   UNL     1       4.741  -7.057 -14.352  0.00  0.00    +0.159 HD
ATOM      9  H   UNL     1       5.521  -7.340 -15.859  0.00  0.00    +0.159 HD
ENDROOT
BRANCH   1  10
ATOM     10  C   UNL     1       5.112  -8.242 -12.104  0.00  0.00    +0.151 C 
BRANCH  10  11
ATOM     11  C   UNL     1       3.939  -9.130 -11.789  0.00  0.00    -0.028 A 
ATOM     12  C   UNL     1       3.248  -9.788 -12.816  0.00  0.00    +0.005 A 
ATOM     13  C   UNL     1       3.519  -9.321 -10.464  0.00  0.00    +0.005 A 
ATOM     14  C   UNL     1       2.177 -10.636 -12.521  0.00  0.00    +0.000 A 
ATOM     15  C   UNL     1       2.449 -10.167 -10.173  0.00  0.00    +0.000 A 
ATOM     16  C   UNL     1       1.780 -10.826 -11.202  0.00  0.00    +0.000 A 
ENDBRANCH  10  11
ENDBRANCH   1  10
TORSDOF 2
ENDMDL
MODEL 7
REMARK VINA RESULT:    -4.200      1.729      2.254
REMARK INTER + INTRA:          -4.783
REMARK INTER:                  -4.662
REMARK INTRA:                  -0.121
REMARK UNBOUND:                -0.092
REMARK  Name = 1550473
REMARK  2 active torsions:
REMARK  status: ('A' for Active; 'I' for Inactive)
REMARK    1  A    between atoms: N_1  and  C_4
REMARK    2  A    between atoms: C_4  and  C_5
REMARK                            x       y       z     vdW  Elec       q    Type
REMARK                         _______ _______ _______ _____ _____    ______ ____
ROOT
ATOM      1  N   UNL     1      -8.382   8.675   5.109  0.00  0.00    -0.354 N 
ATOM      2  N   UNL     1      -7.286   8.790   3.072  0.00  0.00    -0.372 N 
ATOM      3  N   UNL     1      -6.043   8.614   4.992  0.00  0.00    -0.372 N 
ATOM      4  C   UNL     1      -7.242   8.693   4.406  0.00  0.00    +0.166 C 
ATOM      5  H   UNL     1      -9.258   8.769   4.607  0.00  0.00    +0.163 HD
ATOM      6  H   UNL     1      -6.443   8.802   2.514  0.00  0.00    +0.159 HD
ATOM      7  H   UNL     1      -8.165   8.837   2.570  0.00  0.00    +0.159 HD
ATOM      8  H   UNL     1      -5.941   8.544   5.995  0.00  0.00    +0.159 HD
ATOM      9  H   UNL     1      -5.187   8.636   4.452  0.00  0.00    +0.159 HD
ENDROOT
BRANCH   1  10
ATOM     10  C   UNL     1      -8.446   8.518   6.561  0.00  0.00    +0.151 C 
BRANCH  10  11
ATOM     11  C   UNL     1      -9.772   7.915   6.932  0.00  0.00    -0.028 A 
ATOM     12  C   UNL     1     -10.493   8.402   8.033  0.00  0.00    +0.005 A 
ATOM     13  C   UNL     1     -10.317   6.860   6.184  0.00  0.00    +0.005 A 
ATOM     14  C   UNL     1     -11.739   7.863   8.360  0.00  0.00    +0.000 A 
ATOM     15  C   UNL     1     -11.562   6.324   6.515  0.00  0.00    +0.000 A 
ATOM     16  C   UNL     1     -12.273   6.827   7.601  0.00  0.00    +0.000 A 
ENDBRANCH  10  11
ENDBRANCH   1  10
TORSDOF 2
ENDMDL
MODEL 8
REMARK VINA RESULT:    -4.162      3.661      4.477
REMARK INTER + INTRA:          -4.741
REMARK INTER:                  -4.618
REMARK INTRA:                  -0.123
REMARK UNBOUND:                -0.092
REMARK  Name = 1550473
REMARK  2 active torsions:
REMARK  status: ('A' for Active; 'I' for Inactive)
REMARK    1  A    between atoms: N_1  and  C_4
REMARK    2  A    between atoms: C_4  and  C_5
REMARK                            x       y       z     vdW  Elec       q    Type
REMARK                         _______ _______ _______ _____ _____    ______ ____
ROOT
ATOM      1  N   UNL     1      -7.128   8.150   7.719  0.00  0.00    -0.354 N 
ATOM      2  N   UNL     1      -6.040   6.261   6.939  0.00  0.00    -0.372 N 
ATOM      3  N   UNL     1      -8.145   6.730   6.157  0.00  0.00    -0.372 N 
ATOM      4  C   UNL     1      -7.114   7.059   6.942  0.00  0.00    +0.166 C 
ATOM      5  H   UNL     1      -6.327   8.328   8.314  0.00  0.00    +0.163 HD
ATOM      6  H   UNL     1      -5.999   5.432   6.361  0.00  0.00    +0.159 HD
ATOM      7  H   UNL     1      -5.222   6.465   7.501  0.00  0.00    +0.159 HD
ATOM      8  H   UNL     1      -8.988   7.288   6.117  0.00  0.00    +0.159 HD
ATOM      9  H   UNL     1      -8.128   5.899   5.579  0.00  0.00    +0.159 HD
ENDROOT
BRANCH   1  10
ATOM     10  C   UNL     1      -8.227   9.114   7.755  0.00  0.00    +0.151 C 
BRANCH  10  11
ATOM     11  C   UNL     1      -8.292   9.734   9.123  0.00  0.00    -0.028 A 
ATOM     12  C   UNL     1      -7.147   9.798   9.931  0.00  0.00    +0.005 A 
ATOM     13  C   UNL     1      -9.494  10.265   9.616  0.00  0.00    +0.005 A 
ATOM     14  C   UNL     1      -7.200  10.401  11.190  0.00  0.00    +0.000 A 
ATOM     15  C   UNL     1      -9.543  10.865  10.874  0.00  0.00    +0.000 A 
ATOM     16  C   UNL     1      -8.395  10.935  11.660  0.00  0.00    +0.000 A 
ENDBRANCH  10  11
ENDBRANCH   1  10
TORSDOF 2
ENDMDL
MODEL 9
REMARK VINA RESULT:    -4.066      3.585      5.167
REMARK INTER + INTRA:          -4.634
REMARK INTER:                  -4.529
REMARK INTRA:                  -0.104
REMARK UNBOUND:                -0.092
REMARK  Name = 1550473
REMARK  2 active torsions:
REMARK  status: ('A' for Active; 'I' for Inactive)
REMARK    1  A    between atoms: N_1  and  C_4
REMARK    2  A    between atoms: C_4  and  C_5
REMARK                            x       y       z     vdW  Elec       q    Type
REMARK                         _______ _______ _______ _____ _____    ______ ____
ROOT
ATOM      1  N   UNL     1      -7.822   8.758   2.196  0.00  0.00    -0.354 N 
ATOM      2  N   UNL     1      -8.127   8.570  -0.092  0.00  0.00    -0.372 N 
ATOM      3  N   UNL     1      -7.294  10.531   0.758  0.00  0.00    -0.372 N 
ATOM      4  C   UNL     1      -7.745   9.291   0.969  0.00  0.00    +0.166 C 
ATOM      5  H   UNL     1      -8.202   7.823   2.292  0.00  0.00    +0.163 HD
ATOM      6  H   UNL     1      -8.077   8.944  -1.030  0.00  0.00    +0.159 HD
ATOM      7  H   UNL     1      -8.463   7.619   0.003  0.00  0.00    +0.159 HD
ATOM      8  H   UNL     1      -6.995  11.129   1.517  0.00  0.00    +0.159 HD
ATOM      9  H   UNL     1      -7.247  10.927  -0.173  0.00  0.00    +0.159 HD
ENDROOT
BRANCH   1  10
ATOM     10  C   UNL     1      -7.381   9.439   3.412  0.00  0.00    +0.151 C 
BRANCH  10  11
ATOM     11  C   UNL     1      -7.710   8.581   4.602  0.00  0.00    -0.028 A 
ATOM     12  C   UNL     1      -6.718   8.252   5.538  0.00  0.00    +0.005 A 
ATOM     13  C   UNL     1      -9.013   8.100   4.804  0.00  0.00    +0.005 A 
ATOM     14  C   UNL     1      -7.030   7.480   6.660  0.00  0.00    +0.000 A 
ATOM     15  C   UNL     1      -9.320   7.329   5.925  0.00  0.00    +0.000 A 
ATOM     16  C   UNL     1      -8.329   7.021   6.854  0.00  0.00    +0.000 A 
ENDBRANCH  10  11
ENDBRANCH   1  10
TORSDOF 2
ENDMDL
