MODEL 1
REMARK VINA RESULT:    -5.864      0.000      0.000
REMARK INTER + INTRA:          -6.554
REMARK INTER:                  -6.550
REMARK INTRA:                  -0.004
REMARK UNBOUND:                -0.004
REMARK  Name = 1550473
REMARK  2 active torsions:
REMARK  status: ('A' for Active; 'I' for Inactive)
REMARK    1  A    between atoms: N_1  and  C_4
REMARK    2  A    between atoms: C_4  and  C_5
REMARK                            x       y       z     vdW  Elec       q    Type
REMARK                         _______ _______ _______ _____ _____    ______ ____
ROOT
ATOM      1  N   UNL     1      -0.869   8.414 -17.565  0.00  0.00    -0.354 N 
ATOM      2  N   UNL     1       1.322   8.858 -18.171  0.00  0.00    -0.372 N 
ATOM      3  N   UNL     1       0.529   6.713 -18.368  0.00  0.00    -0.372 N 
ATOM      4  C   UNL     1       0.313   7.989 -18.031  0.00  0.00    +0.166 C 
ATOM      5  H   UNL     1      -0.959   9.388 -17.299  0.00  0.00    +0.163 HD
ATOM      6  H   UNL     1       2.224   8.567 -18.524  0.00  0.00    +0.159 HD
ATOM      7  H   UNL     1       1.215   9.840 -17.948  0.00  0.00    +0.159 HD
ATOM      8  H   UNL     1      -0.189   6.007 -18.280  0.00  0.00    +0.159 HD
ATOM      9  H   UNL     1       1.429   6.401 -18.711  0.00  0.00    +0.159 HD
ENDROOT
BRANCH   1  10
ATOM     10  C   UNL     1      -2.047   7.561 -17.426  0.00  0.00    +0.151 C 
BRANCH  10  11
ATOM     11  C   UNL     1      -2.122   7.053 -16.012  0.00  0.00    -0.028 A 
ATOM     12  C   UNL     1      -1.183   7.468 -15.056  0.00  0.00    +0.005 A 
ATOM     13  C   UNL     1      -3.133   6.163 -15.620  0.00  0.00    +0.005 A 
ATOM     14  C   UNL     1      -1.269   7.021 -13.736  0.00  0.00    +0.000 A 
ATOM     15  C   UNL     1      -3.216   5.718 -14.301  0.00  0.00    +0.000 A 
ATOM     16  C   UNL     1      -2.285   6.149 -13.359  0.00  0.00    +0.000 A 
ENDBRANCH  10  11
ENDBRANCH   1  10
TORSDOF 2
ENDMDL
MODEL 2
REMARK VINA RESULT:    -5.707      0.896      1.391
REMARK INTER + INTRA:          -6.379
REMARK INTER:                  -6.442
REMARK INTRA:                   0.063
REMARK UNBOUND:                -0.004
REMARK  Name = 1550473
REMARK  2 active torsions:
REMARK  status: ('A' for Active; 'I' for Inactive)
REMARK    1  A    between atoms: N_1  and  C_4
REMARK    2  A    between atoms: C_4  and  C_5
REMARK                            x       y       z     vdW  Elec       q    Type
REMARK                         _______ _______ _______ _____ _____    ______ ____
ROOT
ATOM      1  N   UNL     1      -0.727   8.424 -17.519  0.00  0.00    -0.354 N 
ATOM      2  N   UNL     1      -0.776   7.747 -19.733  0.00  0.00    -0.372 N 
ATOM      3  N   UNL     1       0.617   6.658 -18.271  0.00  0.00    -0.372 N 
ATOM      4  C   UNL     1      -0.293   7.613 -18.492  0.00  0.00    +0.166 C 
ATOM      5  H   UNL     1      -1.396   9.147 -17.757  0.00  0.00    +0.163 HD
ATOM      6  H   UNL     1      -0.470   7.148 -20.488  0.00  0.00    +0.159 HD
ATOM      7  H   UNL     1      -1.479   8.441 -19.959  0.00  0.00    +0.159 HD
ATOM      8  H   UNL     1       1.025   6.509 -17.358  0.00  0.00    +0.159 HD
ATOM      9  H   UNL     1       0.945   6.056 -19.016  0.00  0.00    +0.159 HD
ENDROOT
BRANCH   1  10
ATOM     10  C   UNL     1      -0.305   8.325 -16.123  0.00  0.00    +0.151 C 
BRANCH  10  11
ATOM     11  C   UNL     1      -1.262   7.434 -15.381  0.00  0.00    -0.028 A 
ATOM     12  C   UNL     1      -1.090   7.187 -14.012  0.00  0.00    +0.005 A 
ATOM     13  C   UNL     1      -2.348   6.838 -16.042  0.00  0.00    +0.005 A 
ATOM     14  C   UNL     1      -1.996   6.383 -13.316  0.00  0.00    +0.000 A 
ATOM     15  C   UNL     1      -3.250   6.036 -15.344  0.00  0.00    +0.000 A 
ATOM     16  C   UNL     1      -3.076   5.810 -13.981  0.00  0.00    +0.000 A 
ENDBRANCH  10  11
ENDBRANCH   1  10
TORSDOF 2
ENDMDL
MODEL 3
REMARK VINA RESULT:    -5.566      1.266      2.032
REMARK INTER + INTRA:          -6.221
REMARK INTER:                  -6.100
REMARK INTRA:                  -0.121
REMARK UNBOUND:                -0.004
REMARK  Name = 1550473
REMARK  2 active torsions:
REMARK  status: ('A' for Active; 'I' for Inactive)
REMARK    1  A    between atoms: N_1  and  C_4
REMARK    2  A    between atoms: C_4  and  C_5
REMARK                            x       y       z     vdW  Elec       q    Type
REMARK                         _______ _______ _______ _____ _____    ______ ____
ROOT
ATOM      1  N   UNL     1       0.011   9.052 -16.417  0.00  0.00    -0.354 N 
ATOM      2  N   UNL     1       1.547  10.775 -16.607  0.00  0.00    -0.372 N 
ATOM      3  N   UNL     1       1.485   9.161 -18.236  0.00  0.00    -0.372 N 
ATOM      4  C   UNL     1       1.005   9.650 -17.088  0.00  0.00    +0.166 C 
ATOM      5  H   UNL     1      -0.287   9.457 -15.537  0.00  0.00    +0.163 HD
ATOM      6  H   UNL     1       2.296  11.250 -17.093  0.00  0.00    +0.159 HD
ATOM      7  H   UNL     1       1.216  11.202 -15.751  0.00  0.00    +0.159 HD
ATOM      8  H   UNL     1       1.123   8.311 -18.649  0.00  0.00    +0.159 HD
ATOM      9  H   UNL     1       2.242   9.615 -18.731  0.00  0.00    +0.159 HD
ENDROOT
BRANCH   1  10
ATOM     10  C   UNL     1      -0.683   7.853 -16.882  0.00  0.00    +0.151 C 
BRANCH  10  11
ATOM     11  C   UNL     1      -1.398   7.218 -15.721  0.00  0.00    -0.028 A 
ATOM     12  C   UNL     1      -2.591   6.507 -15.922  0.00  0.00    +0.005 A 
ATOM     13  C   UNL     1      -0.885   7.319 -14.419  0.00  0.00    +0.005 A 
ATOM     14  C   UNL     1      -3.239   5.892 -14.848  0.00  0.00    +0.000 A 
ATOM     15  C   UNL     1      -1.536   6.704 -13.350  0.00  0.00    +0.000 A 
ATOM     16  C   UNL     1      -2.712   5.989 -13.565  0.00  0.00    +0.000 A 
ENDBRANCH  10  11
ENDBRANCH   1  10
TORSDOF 2
ENDMDL
MODEL 4
REMARK VINA RESULT:    -5.518     24.298     25.713
REMARK INTER + INTRA:          -6.168
REMARK INTER:                  -6.037
REMARK INTRA:                  -0.131
REMARK UNBOUND:                -0.004
REMARK  Name = 1550473
REMARK  2 active torsions:
REMARK  status: ('A' for Active; 'I' for Inactive)
REMARK    1  A    between atoms: N_1  and  C_4
REMARK    2  A    between atoms: C_4  and  C_5
REMARK                            x       y       z     vdW  Elec       q    Type
REMARK                         _______ _______ _______ _____ _____    ______ ____
ROOT
ATOM      1  N   UNL     1      -5.631 -16.874  -9.906  0.00  0.00    -0.354 N 
ATOM      2  N   UNL     1      -5.479 -16.778 -12.215  0.00  0.00    -0.372 N 
ATOM      3  N   UNL     1      -4.284 -15.273 -10.962  0.00  0.00    -0.372 N 
ATOM      4  C   UNL     1      -5.131 -16.307 -11.012  0.00  0.00    +0.166 C 
ATOM      5  H   UNL     1      -6.291 -17.636 -10.012  0.00  0.00    +0.163 HD
ATOM      6  H   UNL     1      -5.115 -16.373 -13.067  0.00  0.00    +0.159 HD
ATOM      7  H   UNL     1      -6.103 -17.569 -12.317  0.00  0.00    +0.159 HD
ATOM      8  H   UNL     1      -3.987 -14.866 -10.085  0.00  0.00    +0.159 HD
ATOM      9  H   UNL     1      -3.919 -14.846 -11.804  0.00  0.00    +0.159 HD
ENDROOT
BRANCH   1  10
ATOM     10  C   UNL     1      -5.273 -16.471  -8.547  0.00  0.00    +0.151 C 
BRANCH  10  11
ATOM     11  C   UNL     1      -4.025 -17.199  -8.131  0.00  0.00    -0.028 A 
ATOM     12  C   UNL     1      -4.025 -18.595  -8.000  0.00  0.00    +0.005 A 
ATOM     13  C   UNL     1      -2.837 -16.498  -7.872  0.00  0.00    +0.005 A 
ATOM     14  C   UNL     1      -2.858 -19.275  -7.642  0.00  0.00    +0.000 A 
ATOM     15  C   UNL     1      -1.674 -17.180  -7.514  0.00  0.00    +0.000 A 
ATOM     16  C   UNL     1      -1.684 -18.568  -7.402  0.00  0.00    +0.000 A 
ENDBRANCH  10  11
ENDBRANCH   1  10
TORSDOF 2
ENDMDL
MODEL 5
REMARK VINA RESULT:    -5.517      3.208      4.292
REMARK INTER + INTRA:          -6.166
REMARK INTER:                  -6.028
REMARK INTRA:                  -0.138
REMARK UNBOUND:                -0.004
REMARK  Name = 1550473
REMARK  2 active torsions:
REMARK  status: ('A' for Active; 'I' for Inactive)
REMARK    1  A    between atoms: N_1  and  C_4
REMARK    2  A    between atoms: C_4  and  C_5
REMARK                            x       y       z     vdW  Elec       q    Type
REMARK                         _______ _______ _______ _____ _____    ______ ____
ROOT
ATOM      1  N   UNL     1      -0.680   9.306 -12.761  0.00  0.00    -0.354 N 
ATOM      2  N   UNL     1      -1.251  11.161 -11.497  0.00  0.00    -0.372 N 
ATOM      3  N   UNL     1      -0.650  11.456 -13.692  0.00  0.00    -0.372 N 
ATOM      4  C   UNL     1      -0.856  10.630 -12.661  0.00  0.00    +0.166 C 
ATOM      5  H   UNL     1      -0.824   8.738 -11.934  0.00  0.00    +0.163 HD
ATOM      6  H   UNL     1      -1.395  12.157 -11.393  0.00  0.00    +0.159 HD
ATOM      7  H   UNL     1      -1.438  10.586 -10.685  0.00  0.00    +0.159 HD
ATOM      8  H   UNL     1      -0.345  11.119 -14.595  0.00  0.00    +0.159 HD
ATOM      9  H   UNL     1      -0.777  12.457 -13.604  0.00  0.00    +0.159 HD
ENDROOT
BRANCH   1  10
ATOM     10  C   UNL     1      -0.304   8.622 -13.997  0.00  0.00    +0.151 C 
BRANCH  10  11
ATOM     11  C   UNL     1      -1.361   7.609 -14.339  0.00  0.00    -0.028 A 
ATOM     12  C   UNL     1      -1.782   7.440 -15.666  0.00  0.00    +0.005 A 
ATOM     13  C   UNL     1      -1.940   6.809 -13.342  0.00  0.00    +0.005 A 
ATOM     14  C   UNL     1      -2.743   6.478 -15.989  0.00  0.00    +0.000 A 
ATOM     15  C   UNL     1      -2.899   5.851 -13.668  0.00  0.00    +0.000 A 
ATOM     16  C   UNL     1      -3.298   5.684 -14.992  0.00  0.00    +0.000 A 
ENDBRANCH  10  11
ENDBRANCH   1  10
TORSDOF 2
ENDMDL
MODEL 6
REMARK VINA RESULT:    -5.263      2.980      4.919
REMARK INTER + INTRA:          -5.883
REMARK INTER:                  -5.743
REMARK INTRA:                  -0.140
REMARK UNBOUND:                -0.004
REMARK  Name = 1550473
REMARK  2 active torsions:
REMARK  status: ('A' for Active; 'I' for Inactive)
REMARK    1  A    between atoms: N_1  and  C_4
REMARK    2  A    between atoms: C_4  and  C_5
REMARK                            x       y       z     vdW  Elec       q    Type
REMARK                         _______ _______ _______ _____ _____    ______ ____
ROOT
ATOM      1  N   UNL     1      -2.827   7.516 -14.005  0.00  0.00    -0.354 N 
ATOM      2  N   UNL     1      -4.872   6.776 -13.209  0.00  0.00    -0.372 N 
ATOM      3  N   UNL     1      -3.127   5.292 -13.333  0.00  0.00    -0.372 N 
ATOM      4  C   UNL     1      -3.594   6.530 -13.521  0.00  0.00    +0.166 C 
ATOM      5  H   UNL     1      -3.249   8.426 -14.153  0.00  0.00    +0.163 HD
ATOM      6  H   UNL     1      -5.474   6.053 -12.839  0.00  0.00    +0.159 HD
ATOM      7  H   UNL     1      -5.279   7.698 -13.315  0.00  0.00    +0.159 HD
ATOM      8  H   UNL     1      -2.173   5.039 -13.554  0.00  0.00    +0.159 HD
ATOM      9  H   UNL     1      -3.718   4.551 -12.974  0.00  0.00    +0.159 HD
ENDROOT
BRANCH   1  10
ATOM     10  C   UNL     1      -1.409   7.367 -14.325  0.00  0.00    +0.151 C 
BRANCH  10  11
ATOM     11  C   UNL     1      -1.232   7.432 -15.817  0.00  0.00    -0.028 A 
ATOM     12  C   UNL     1      -2.276   7.883 -16.639  0.00  0.00    +0.005 A 
ATOM     13  C   UNL     1      -0.022   7.049 -16.416  0.00  0.00    +0.005 A 
ATOM     14  C   UNL     1      -2.103   7.972 -18.022  0.00  0.00    +0.000 A 
ATOM     15  C   UNL     1       0.147   7.138 -17.797  0.00  0.00    +0.000 A 
ATOM     16  C   UNL     1      -0.893   7.602 -18.600  0.00  0.00    +0.000 A 
ENDBRANCH  10  11
ENDBRANCH   1  10
TORSDOF 2
ENDMDL
MODEL 7
REMARK VINA RESULT:    -4.870     26.856     28.268
REMARK INTER + INTRA:          -5.444
REMARK INTER:                  -5.309
REMARK INTRA:                  -0.135
REMARK UNBOUND:                -0.004
REMARK  Name = 1550473
REMARK  2 active torsions:
REMARK  status: ('A' for Active; 'I' for Inactive)
REMARK    1  A    between atoms: N_1  and  C_4
REMARK    2  A    between atoms: C_4  and  C_5
REMARK                            x       y       z     vdW  Elec       q    Type
REMARK                         _______ _______ _______ _____ _____    ______ ____
ROOT
ATOM      1  N   UNL     1      -3.925 -20.984  -9.082  0.00  0.00    -0.354 N 
ATOM      2  N   UNL     1      -3.482 -23.232  -9.418  0.00  0.00    -0.372 N 
ATOM      3  N   UNL     1      -5.098 -22.634  -7.902  0.00  0.00    -0.372 N 
ATOM      4  C   UNL     1      -4.173 -22.269  -8.796  0.00  0.00    +0.166 C 
ATOM      5  H   UNL     1      -3.190 -20.771  -9.747  0.00  0.00    +0.163 HD
ATOM      6  H   UNL     1      -3.650 -24.210  -9.226  0.00  0.00    +0.159 HD
ATOM      7  H   UNL     1      -2.781 -23.018 -10.116  0.00  0.00    +0.159 HD
ATOM      8  H   UNL     1      -5.649 -21.956  -7.394  0.00  0.00    +0.159 HD
ATOM      9  H   UNL     1      -5.272 -23.608  -7.687  0.00  0.00    +0.159 HD
ENDROOT
BRANCH   1  10
ATOM     10  C   UNL     1      -4.658 -19.860  -8.500  0.00  0.00    +0.151 C 
BRANCH  10  11
ATOM     11  C   UNL     1      -3.688 -18.761  -8.167  0.00  0.00    -0.028 A 
ATOM     12  C   UNL     1      -2.441 -19.059  -7.597  0.00  0.00    +0.005 A 
ATOM     13  C   UNL     1      -4.007 -17.418  -8.423  0.00  0.00    +0.005 A 
ATOM     14  C   UNL     1      -1.528 -18.040  -7.315  0.00  0.00    +0.000 A 
ATOM     15  C   UNL     1      -3.093 -16.404  -8.140  0.00  0.00    +0.000 A 
ATOM     16  C   UNL     1      -1.853 -16.715  -7.588  0.00  0.00    +0.000 A 
ENDBRANCH  10  11
ENDBRANCH   1  10
TORSDOF 2
ENDMDL
MODEL 8
REMARK VINA RESULT:    -4.670     26.453     27.353
REMARK INTER + INTRA:          -5.221
REMARK INTER:                  -5.082
REMARK INTRA:                  -0.138
REMARK UNBOUND:                -0.004
REMARK  Name = 1550473
REMARK  2 active torsions:
REMARK  status: ('A' for Active; 'I' for Inactive)
REMARK    1  A    between atoms: N_1  and  C_4
REMARK    2  A    between atoms: C_4  and  C_5
REMARK                            x       y       z     vdW  Elec       q    Type
REMARK                         _______ _______ _______ _____ _____    ______ ____
ROOT
ATOM      1  N   UNL     1     -18.139  -3.441   1.315  0.00  0.00    -0.354 N 
ATOM      2  N   UNL     1     -18.484  -1.202   0.833  0.00  0.00    -0.372 N 
ATOM      3  N   UNL     1     -19.965  -2.280   2.216  0.00  0.00    -0.372 N 
ATOM      4  C   UNL     1     -18.863  -2.323   1.460  0.00  0.00    +0.166 C 
ATOM      5  H   UNL     1     -17.331  -3.416   0.704  0.00  0.00    +0.163 HD
ATOM      6  H   UNL     1     -19.008  -0.342   0.926  0.00  0.00    +0.159 HD
ATOM      7  H   UNL     1     -17.650  -1.168   0.260  0.00  0.00    +0.159 HD
ATOM      8  H   UNL     1     -20.307  -3.093   2.710  0.00  0.00    +0.159 HD
ATOM      9  H   UNL     1     -20.509  -1.432   2.311  0.00  0.00    +0.159 HD
ENDROOT
BRANCH   1  10
ATOM     10  C   UNL     1     -18.436  -4.700   1.997  0.00  0.00    +0.151 C 
BRANCH  10  11
ATOM     11  C   UNL     1     -17.183  -5.208   2.656  0.00  0.00    -0.028 A 
ATOM     12  C   UNL     1     -16.940  -6.586   2.756  0.00  0.00    +0.005 A 
ATOM     13  C   UNL     1     -16.233  -4.317   3.178  0.00  0.00    +0.005 A 
ATOM     14  C   UNL     1     -15.763  -7.058   3.342  0.00  0.00    +0.000 A 
ATOM     15  C   UNL     1     -15.060  -4.792   3.763  0.00  0.00    +0.000 A 
ATOM     16  C   UNL     1     -14.823  -6.162   3.842  0.00  0.00    +0.000 A 
ENDBRANCH  10  11
ENDBRANCH   1  10
TORSDOF 2
ENDMDL
MODEL 9
REMARK VINA RESULT:    -4.584     24.867     25.876
REMARK INTER + INTRA:          -5.124
REMARK INTER:                  -4.999
REMARK INTRA:                  -0.126
REMARK UNBOUND:                -0.004
REMARK  Name = 1550473
REMARK  2 active torsions:
REMARK  status: ('A' for Active; 'I' for Inactive)
REMARK    1  A    between atoms: N_1  and  C_4
REMARK    2  A    between atoms: C_4  and  C_5
REMARK                            x       y       z     vdW  Elec       q    Type
REMARK                         _______ _______ _______ _____ _____    ______ ____
ROOT
ATOM      1  N   UNL     1     -20.281  -0.907  -0.207  0.00  0.00    -0.354 N 
ATOM      2  N   UNL     1     -18.488  -1.058   1.251  0.00  0.00    -0.372 N 
ATOM      3  N   UNL     1     -19.046  -2.890  -0.014  0.00  0.00    -0.372 N 
ATOM      4  C   UNL     1     -19.284  -1.620   0.333  0.00  0.00    +0.166 C 
ATOM      5  H   UNL     1     -20.428   0.041   0.121  0.00  0.00    +0.163 HD
ATOM      6  H   UNL     1     -17.724  -1.570   1.673  0.00  0.00    +0.159 HD
ATOM      7  H   UNL     1     -18.607  -0.096   1.543  0.00  0.00    +0.159 HD
ATOM      8  H   UNL     1     -19.614  -3.373  -0.697  0.00  0.00    +0.159 HD
ATOM      9  H   UNL     1     -18.295  -3.422   0.405  0.00  0.00    +0.159 HD
ENDROOT
BRANCH   1  10
ATOM     10  C   UNL     1     -21.171  -1.408  -1.253  0.00  0.00    +0.151 C 
BRANCH  10  11
ATOM     11  C   UNL     1     -21.602  -0.259  -2.123  0.00  0.00    -0.028 A 
ATOM     12  C   UNL     1     -20.691   0.748  -2.474  0.00  0.00    +0.005 A 
ATOM     13  C   UNL     1     -22.918  -0.175  -2.603  0.00  0.00    +0.005 A 
ATOM     14  C   UNL     1     -21.083   1.799  -3.307  0.00  0.00    +0.000 A 
ATOM     15  C   UNL     1     -23.305   0.876  -3.433  0.00  0.00    +0.000 A 
ATOM     16  C   UNL     1     -22.387   1.862  -3.787  0.00  0.00    +0.000 A 
ENDBRANCH  10  11
ENDBRANCH   1  10
TORSDOF 2
ENDMDL
