MODEL 1
REMARK VINA RESULT:    -5.226      0.000      0.000
REMARK INTER + INTRA:          -5.971
REMARK INTER:                  -5.837
REMARK INTRA:                  -0.134
REMARK UNBOUND:                -0.134
REMARK  Name = 1550473
REMARK  2 active torsions:
REMARK  status: ('A' for Active; 'I' for Inactive)
REMARK    1  A    between atoms: N_1  and  C_4
REMARK    2  A    between atoms: C_4  and  C_5
REMARK                            x       y       z     vdW  Elec       q    Type
REMARK                         _______ _______ _______ _____ _____    ______ ____
ROOT
ATOM      1  N   UNL     1       6.409 -11.574   5.057  0.00  0.00    -0.354 N 
ATOM      2  N   UNL     1       8.020 -11.334   6.704  0.00  0.00    -0.372 N 
ATOM      3  N   UNL     1       8.175 -13.103   5.251  0.00  0.00    -0.372 N 
ATOM      4  C   UNL     1       7.525 -12.008   5.659  0.00  0.00    +0.166 C 
ATOM      5  H   UNL     1       5.947 -10.754   5.433  0.00  0.00    +0.163 HD
ATOM      6  H   UNL     1       8.862 -11.635   7.176  0.00  0.00    +0.159 HD
ATOM      7  H   UNL     1       7.581 -10.489   7.049  0.00  0.00    +0.159 HD
ATOM      8  H   UNL     1       7.850 -13.659   4.472  0.00  0.00    +0.159 HD
ATOM      9  H   UNL     1       9.013 -13.427   5.718  0.00  0.00    +0.159 HD
ENDROOT
BRANCH   1  10
ATOM     10  C   UNL     1       5.818 -12.205   3.878  0.00  0.00    +0.151 C 
BRANCH  10  11
ATOM     11  C   UNL     1       5.231 -11.140   2.993  0.00  0.00    -0.028 A 
ATOM     12  C   UNL     1       5.587  -9.794   3.167  0.00  0.00    +0.005 A 
ATOM     13  C   UNL     1       4.322 -11.471   1.977  0.00  0.00    +0.005 A 
ATOM     14  C   UNL     1       5.065  -8.808   2.326  0.00  0.00    +0.000 A 
ATOM     15  C   UNL     1       3.802 -10.483   1.140  0.00  0.00    +0.000 A 
ATOM     16  C   UNL     1       4.176  -9.153   1.313  0.00  0.00    +0.000 A 
ENDBRANCH  10  11
ENDBRANCH   1  10
TORSDOF 2
ENDMDL
MODEL 2
REMARK VINA RESULT:    -5.108      1.304      2.380
REMARK INTER + INTRA:          -5.839
REMARK INTER:                  -5.667
REMARK INTRA:                  -0.172
REMARK UNBOUND:                -0.134
REMARK  Name = 1550473
REMARK  2 active torsions:
REMARK  status: ('A' for Active; 'I' for Inactive)
REMARK    1  A    between atoms: N_1  and  C_4
REMARK    2  A    between atoms: C_4  and  C_5
REMARK                            x       y       z     vdW  Elec       q    Type
REMARK                         _______ _______ _______ _____ _____    ______ ____
ROOT
ATOM      1  N   UNL     1       8.022 -12.984   4.258  0.00  0.00    -0.354 N 
ATOM      2  N   UNL     1      10.005 -11.987   4.922  0.00  0.00    -0.372 N 
ATOM      3  N   UNL     1       8.111 -11.625   6.166  0.00  0.00    -0.372 N 
ATOM      4  C   UNL     1       8.698 -12.204   5.113  0.00  0.00    +0.166 C 
ATOM      5  H   UNL     1       8.518 -13.369   3.463  0.00  0.00    +0.163 HD
ATOM      6  H   UNL     1      10.541 -11.406   5.552  0.00  0.00    +0.159 HD
ATOM      7  H   UNL     1      10.508 -12.411   4.152  0.00  0.00    +0.159 HD
ATOM      8  H   UNL     1       7.126 -11.743   6.362  0.00  0.00    +0.159 HD
ATOM      9  H   UNL     1       8.629 -11.030   6.801  0.00  0.00    +0.159 HD
ENDROOT
BRANCH   1  10
ATOM     10  C   UNL     1       6.608 -13.326   4.407  0.00  0.00    +0.151 C 
BRANCH  10  11
ATOM     11  C   UNL     1       5.816 -12.610   3.348  0.00  0.00    -0.028 A 
ATOM     12  C   UNL     1       5.448 -13.269   2.166  0.00  0.00    +0.005 A 
ATOM     13  C   UNL     1       5.424 -11.274   3.524  0.00  0.00    +0.005 A 
ATOM     14  C   UNL     1       4.686 -12.614   1.196  0.00  0.00    +0.000 A 
ATOM     15  C   UNL     1       4.664 -10.623   2.553  0.00  0.00    +0.000 A 
ATOM     16  C   UNL     1       4.293 -11.294   1.390  0.00  0.00    +0.000 A 
ENDBRANCH  10  11
ENDBRANCH   1  10
TORSDOF 2
ENDMDL
MODEL 3
REMARK VINA RESULT:    -5.003      3.405      4.520
REMARK INTER + INTRA:          -5.722
REMARK INTER:                  -5.584
REMARK INTRA:                  -0.138
REMARK UNBOUND:                -0.134
REMARK  Name = 1550473
REMARK  2 active torsions:
REMARK  status: ('A' for Active; 'I' for Inactive)
REMARK    1  A    between atoms: N_1  and  C_4
REMARK    2  A    between atoms: C_4  and  C_5
REMARK                            x       y       z     vdW  Elec       q    Type
REMARK                         _______ _______ _______ _____ _____    ______ ____
ROOT
ATOM      1  N   UNL     1       4.400 -13.825   7.885  0.00  0.00    -0.354 N 
ATOM      2  N   UNL     1       4.274 -14.073  10.184  0.00  0.00    -0.372 N 
ATOM      3  N   UNL     1       5.358 -15.678   8.954  0.00  0.00    -0.372 N 
ATOM      4  C   UNL     1       4.679 -14.526   8.992  0.00  0.00    +0.166 C 
ATOM      5  H   UNL     1       3.856 -12.975   7.978  0.00  0.00    +0.163 HD
ATOM      6  H   UNL     1       4.473 -14.578  11.037  0.00  0.00    +0.159 HD
ATOM      7  H   UNL     1       3.770 -13.199  10.279  0.00  0.00    +0.159 HD
ATOM      8  H   UNL     1       5.687 -16.077   8.086  0.00  0.00    +0.159 HD
ATOM      9  H   UNL     1       5.557 -16.204   9.796  0.00  0.00    +0.159 HD
ENDROOT
BRANCH   1  10
ATOM     10  C   UNL     1       4.843 -14.204   6.544  0.00  0.00    +0.151 C 
BRANCH  10  11
ATOM     11  C   UNL     1       5.622 -13.067   5.945  0.00  0.00    -0.028 A 
ATOM     12  C   UNL     1       6.624 -12.422   6.685  0.00  0.00    +0.005 A 
ATOM     13  C   UNL     1       5.367 -12.632   4.635  0.00  0.00    +0.005 A 
ATOM     14  C   UNL     1       7.369 -11.385   6.117  0.00  0.00    +0.000 A 
ATOM     15  C   UNL     1       6.113 -11.596   4.072  0.00  0.00    +0.000 A 
ATOM     16  C   UNL     1       7.115 -10.974   4.813  0.00  0.00    +0.000 A 
ENDBRANCH  10  11
ENDBRANCH   1  10
TORSDOF 2
ENDMDL
MODEL 4
REMARK VINA RESULT:    -4.958      9.614     11.054
REMARK INTER + INTRA:          -5.672
REMARK INTER:                  -5.552
REMARK INTRA:                  -0.120
REMARK UNBOUND:                -0.134
REMARK  Name = 1550473
REMARK  2 active torsions:
REMARK  status: ('A' for Active; 'I' for Inactive)
REMARK    1  A    between atoms: N_1  and  C_4
REMARK    2  A    between atoms: C_4  and  C_5
REMARK                            x       y       z     vdW  Elec       q    Type
REMARK                         _______ _______ _______ _____ _____    ______ ____
ROOT
ATOM      1  N   UNL     1      -4.113  -9.915   0.040  0.00  0.00    -0.354 N 
ATOM      2  N   UNL     1      -4.268  -7.880   1.135  0.00  0.00    -0.372 N 
ATOM      3  N   UNL     1      -6.198  -8.996   0.591  0.00  0.00    -0.372 N 
ATOM      4  C   UNL     1      -4.862  -8.944   0.581  0.00  0.00    +0.166 C 
ATOM      5  H   UNL     1      -3.106  -9.802   0.038  0.00  0.00    +0.163 HD
ATOM      6  H   UNL     1      -4.807  -7.133   1.554  0.00  0.00    +0.159 HD
ATOM      7  H   UNL     1      -3.260  -7.791   1.172  0.00  0.00    +0.159 HD
ATOM      8  H   UNL     1      -6.707  -9.769   0.183  0.00  0.00    +0.159 HD
ATOM      9  H   UNL     1      -6.754  -8.253   0.994  0.00  0.00    +0.159 HD
ENDROOT
BRANCH   1  10
ATOM     10  C   UNL     1      -4.659 -11.140  -0.540  0.00  0.00    +0.151 C 
BRANCH  10  11
ATOM     11  C   UNL     1      -3.668 -12.256  -0.354  0.00  0.00    -0.028 A 
ATOM     12  C   UNL     1      -2.291 -11.990  -0.343  0.00  0.00    +0.005 A 
ATOM     13  C   UNL     1      -4.099 -13.580  -0.183  0.00  0.00    +0.005 A 
ATOM     14  C   UNL     1      -1.370 -13.021  -0.141  0.00  0.00    +0.000 A 
ATOM     15  C   UNL     1      -3.177 -14.607   0.018  0.00  0.00    +0.000 A 
ATOM     16  C   UNL     1      -1.813 -14.327   0.042  0.00  0.00    +0.000 A 
ENDBRANCH  10  11
ENDBRANCH   1  10
TORSDOF 2
ENDMDL
MODEL 5
REMARK VINA RESULT:    -4.790      7.468      8.986
REMARK INTER + INTRA:          -5.484
REMARK INTER:                  -5.358
REMARK INTRA:                  -0.127
REMARK UNBOUND:                -0.134
REMARK  Name = 1550473
REMARK  2 active torsions:
REMARK  status: ('A' for Active; 'I' for Inactive)
REMARK    1  A    between atoms: N_1  and  C_4
REMARK    2  A    between atoms: C_4  and  C_5
REMARK                            x       y       z     vdW  Elec       q    Type
REMARK                         _______ _______ _______ _____ _____    ______ ____
ROOT
ATOM      1  N   UNL     1      -2.915  -9.377   1.777  0.00  0.00    -0.354 N 
ATOM      2  N   UNL     1      -4.581  -7.836   1.312  0.00  0.00    -0.372 N 
ATOM      3  N   UNL     1      -4.180  -9.524  -0.190  0.00  0.00    -0.372 N 
ATOM      4  C   UNL     1      -3.881  -8.924   0.967  0.00  0.00    +0.166 C 
ATOM      5  H   UNL     1      -2.717  -8.859   2.626  0.00  0.00    +0.163 HD
ATOM      6  H   UNL     1      -5.318  -7.474   0.723  0.00  0.00    +0.159 HD
ATOM      7  H   UNL     1      -4.412  -7.348   2.183  0.00  0.00    +0.159 HD
ATOM      8  H   UNL     1      -3.685 -10.346  -0.510  0.00  0.00    +0.159 HD
ATOM      9  H   UNL     1      -4.907  -9.169  -0.799  0.00  0.00    +0.159 HD
ENDROOT
BRANCH   1  10
ATOM     10  C   UNL     1      -2.131 -10.583   1.520  0.00  0.00    +0.151 C 
BRANCH  10  11
ATOM     11  C   UNL     1      -0.791 -10.189   0.964  0.00  0.00    -0.028 A 
ATOM     12  C   UNL     1      -0.014 -11.116   0.254  0.00  0.00    +0.005 A 
ATOM     13  C   UNL     1      -0.294  -8.888   1.139  0.00  0.00    +0.005 A 
ATOM     14  C   UNL     1       1.218 -10.741  -0.289  0.00  0.00    +0.000 A 
ATOM     15  C   UNL     1       0.936  -8.518   0.597  0.00  0.00    +0.000 A 
ATOM     16  C   UNL     1       1.691  -9.445  -0.120  0.00  0.00    +0.000 A 
ENDBRANCH  10  11
ENDBRANCH   1  10
TORSDOF 2
ENDMDL
MODEL 6
REMARK VINA RESULT:    -4.701     21.126     22.135
REMARK INTER + INTRA:          -5.385
REMARK INTER:                  -5.262
REMARK INTRA:                  -0.124
REMARK UNBOUND:                -0.134
REMARK  Name = 1550473
REMARK  2 active torsions:
REMARK  status: ('A' for Active; 'I' for Inactive)
REMARK    1  A    between atoms: N_1  and  C_4
REMARK    2  A    between atoms: C_4  and  C_5
REMARK                            x       y       z     vdW  Elec       q    Type
REMARK                         _______ _______ _______ _____ _____    ______ ____
ROOT
ATOM      1  N   UNL     1       4.278   9.587  -5.268  0.00  0.00    -0.354 N 
ATOM      2  N   UNL     1       5.154  10.540  -7.188  0.00  0.00    -0.372 N 
ATOM      3  N   UNL     1       6.569   9.458  -5.742  0.00  0.00    -0.372 N 
ATOM      4  C   UNL     1       5.331   9.854  -6.052  0.00  0.00    +0.166 C 
ATOM      5  H   UNL     1       3.369   9.942  -5.544  0.00  0.00    +0.163 HD
ATOM      6  H   UNL     1       5.929  10.753  -7.802  0.00  0.00    +0.159 HD
ATOM      7  H   UNL     1       4.238  10.853  -7.485  0.00  0.00    +0.159 HD
ATOM      8  H   UNL     1       6.770   8.942  -4.895  0.00  0.00    +0.159 HD
ATOM      9  H   UNL     1       7.359   9.672  -6.337  0.00  0.00    +0.159 HD
ENDROOT
BRANCH   1  10
ATOM     10  C   UNL     1       4.354   8.802  -4.037  0.00  0.00    +0.151 C 
BRANCH  10  11
ATOM     11  C   UNL     1       3.026   8.861  -3.334  0.00  0.00    -0.028 A 
ATOM     12  C   UNL     1       1.933   9.507  -3.930  0.00  0.00    +0.005 A 
ATOM     13  C   UNL     1       2.852   8.268  -2.074  0.00  0.00    +0.005 A 
ATOM     14  C   UNL     1       0.691   9.537  -3.291  0.00  0.00    +0.000 A 
ATOM     15  C   UNL     1       1.611   8.301  -1.439  0.00  0.00    +0.000 A 
ATOM     16  C   UNL     1       0.530   8.933  -2.048  0.00  0.00    +0.000 A 
ENDBRANCH  10  11
ENDBRANCH   1  10
TORSDOF 2
ENDMDL
MODEL 7
REMARK VINA RESULT:    -4.676     13.955     16.160
REMARK INTER + INTRA:          -5.357
REMARK INTER:                  -5.228
REMARK INTRA:                  -0.129
REMARK UNBOUND:                -0.134
REMARK  Name = 1550473
REMARK  2 active torsions:
REMARK  status: ('A' for Active; 'I' for Inactive)
REMARK    1  A    between atoms: N_1  and  C_4
REMARK    2  A    between atoms: C_4  and  C_5
REMARK                            x       y       z     vdW  Elec       q    Type
REMARK                         _______ _______ _______ _____ _____    ______ ____
ROOT
ATOM      1  N   UNL     1      10.208  -3.983  14.699  0.00  0.00    -0.354 N 
ATOM      2  N   UNL     1       9.416  -5.935  13.735  0.00  0.00    -0.372 N 
ATOM      3  N   UNL     1      11.683  -5.612  13.883  0.00  0.00    -0.372 N 
ATOM      4  C   UNL     1      10.443  -5.164  14.111  0.00  0.00    +0.166 C 
ATOM      5  H   UNL     1       9.246  -3.687  14.816  0.00  0.00    +0.163 HD
ATOM      6  H   UNL     1       9.562  -6.832  13.293  0.00  0.00    +0.159 HD
ATOM      7  H   UNL     1       8.455  -5.657  13.895  0.00  0.00    +0.159 HD
ATOM      8  H   UNL     1      12.501  -5.076  14.138  0.00  0.00    +0.159 HD
ATOM      9  H   UNL     1      11.850  -6.502  13.431  0.00  0.00    +0.159 HD
ENDROOT
BRANCH   1  10
ATOM     10  C   UNL     1      11.257  -3.094  15.195  0.00  0.00    +0.151 C 
BRANCH  10  11
ATOM     11  C   UNL     1      11.005  -2.801  16.648  0.00  0.00    -0.028 A 
ATOM     12  C   UNL     1      10.378  -3.751  17.468  0.00  0.00    +0.005 A 
ATOM     13  C   UNL     1      11.397  -1.578  17.214  0.00  0.00    +0.005 A 
ATOM     14  C   UNL     1      10.172  -3.492  18.825  0.00  0.00    +0.000 A 
ATOM     15  C   UNL     1      11.188  -1.322  18.569  0.00  0.00    +0.000 A 
ATOM     16  C   UNL     1      10.578  -2.280  19.375  0.00  0.00    +0.000 A 
ENDBRANCH  10  11
ENDBRANCH   1  10
TORSDOF 2
ENDMDL
MODEL 8
REMARK VINA RESULT:    -4.669      5.028      6.556
REMARK INTER + INTRA:          -5.350
REMARK INTER:                  -5.187
REMARK INTRA:                  -0.163
REMARK UNBOUND:                -0.134
REMARK  Name = 1550473
REMARK  2 active torsions:
REMARK  status: ('A' for Active; 'I' for Inactive)
REMARK    1  A    between atoms: N_1  and  C_4
REMARK    2  A    between atoms: C_4  and  C_5
REMARK                            x       y       z     vdW  Elec       q    Type
REMARK                         _______ _______ _______ _____ _____    ______ ____
ROOT
ATOM      1  N   UNL     1       0.213 -10.119   0.946  0.00  0.00    -0.354 N 
ATOM      2  N   UNL     1      -1.747  -9.302   1.870  0.00  0.00    -0.372 N 
ATOM      3  N   UNL     1      -0.554  -7.963   0.439  0.00  0.00    -0.372 N 
ATOM      4  C   UNL     1      -0.682  -9.131   1.077  0.00  0.00    +0.166 C 
ATOM      5  H   UNL     1       0.074 -10.969   1.480  0.00  0.00    +0.163 HD
ATOM      6  H   UNL     1      -2.441  -8.576   1.986  0.00  0.00    +0.159 HD
ATOM      7  H   UNL     1      -1.908 -10.170   2.367  0.00  0.00    +0.159 HD
ATOM      8  H   UNL     1       0.230  -7.769  -0.169  0.00  0.00    +0.159 HD
ATOM      9  H   UNL     1      -1.232  -7.220   0.552  0.00  0.00    +0.159 HD
ENDROOT
BRANCH   1  10
ATOM     10  C   UNL     1       1.379 -10.054   0.066  0.00  0.00    +0.151 C 
BRANCH  10  11
ATOM     11  C   UNL     1       2.622  -9.948   0.905  0.00  0.00    -0.028 A 
ATOM     12  C   UNL     1       3.472  -8.839   0.783  0.00  0.00    +0.005 A 
ATOM     13  C   UNL     1       2.953 -10.951   1.829  0.00  0.00    +0.005 A 
ATOM     14  C   UNL     1       4.611  -8.726   1.583  0.00  0.00    +0.000 A 
ATOM     15  C   UNL     1       4.092 -10.835   2.626  0.00  0.00    +0.000 A 
ATOM     16  C   UNL     1       4.919  -9.721   2.505  0.00  0.00    +0.000 A 
ENDBRANCH  10  11
ENDBRANCH   1  10
TORSDOF 2
ENDMDL
MODEL 9
REMARK VINA RESULT:    -4.568      6.543      8.336
REMARK INTER + INTRA:          -5.236
REMARK INTER:                  -5.137
REMARK INTRA:                  -0.099
REMARK UNBOUND:                -0.134
REMARK  Name = 1550473
REMARK  2 active torsions:
REMARK  status: ('A' for Active; 'I' for Inactive)
REMARK    1  A    between atoms: N_1  and  C_4
REMARK    2  A    between atoms: C_4  and  C_5
REMARK                            x       y       z     vdW  Elec       q    Type
REMARK                         _______ _______ _______ _____ _____    ______ ____
ROOT
ATOM      1  N   UNL     1      -1.815  -9.306   0.890  0.00  0.00    -0.354 N 
ATOM      2  N   UNL     1      -3.935 -10.228   1.028  0.00  0.00    -0.372 N 
ATOM      3  N   UNL     1      -3.727  -7.954   0.802  0.00  0.00    -0.372 N 
ATOM      4  C   UNL     1      -3.146  -9.154   0.906  0.00  0.00    +0.166 C 
ATOM      5  H   UNL     1      -1.436 -10.239   1.003  0.00  0.00    +0.163 HD
ATOM      6  H   UNL     1      -4.943 -10.144   1.040  0.00  0.00    +0.159 HD
ATOM      7  H   UNL     1      -3.555 -11.164   1.095  0.00  0.00    +0.159 HD
ATOM      8  H   UNL     1      -3.188  -7.103   0.713  0.00  0.00    +0.159 HD
ATOM      9  H   UNL     1      -4.734  -7.849   0.824  0.00  0.00    +0.159 HD
ENDROOT
BRANCH   1  10
ATOM     10  C   UNL     1      -0.869  -8.207   0.707  0.00  0.00    +0.151 C 
BRANCH  10  11
ATOM     11  C   UNL     1       0.516  -8.692   1.035  0.00  0.00    -0.028 A 
ATOM     12  C   UNL     1       1.483  -8.820   0.027  0.00  0.00    +0.005 A 
ATOM     13  C   UNL     1       0.870  -9.019   2.353  0.00  0.00    +0.005 A 
ATOM     14  C   UNL     1       2.779  -9.242   0.337  0.00  0.00    +0.000 A 
ATOM     15  C   UNL     1       2.164  -9.441   2.658  0.00  0.00    +0.000 A 
ATOM     16  C   UNL     1       3.119  -9.549   1.650  0.00  0.00    +0.000 A 
ENDBRANCH  10  11
ENDBRANCH   1  10
TORSDOF 2
ENDMDL
