MODEL 1
REMARK VINA RESULT:    -5.895      0.000      0.000
REMARK INTER + INTRA:          -6.739
REMARK INTER:                  -6.585
REMARK INTRA:                  -0.154
REMARK UNBOUND:                -0.154
REMARK  Name = 1550473
REMARK  2 active torsions:
REMARK  status: ('A' for Active; 'I' for Inactive)
REMARK    1  A    between atoms: N_1  and  C_4
REMARK    2  A    between atoms: C_4  and  C_5
REMARK                            x       y       z     vdW  Elec       q    Type
REMARK                         _______ _______ _______ _____ _____    ______ ____
ROOT
ATOM      1  N   UNL     1       8.220  12.871   9.531  0.00  0.00    -0.354 N 
ATOM      2  N   UNL     1      10.253  13.537  10.416  0.00  0.00    -0.372 N 
ATOM      3  N   UNL     1       9.975  11.343   9.806  0.00  0.00    -0.372 N 
ATOM      4  C   UNL     1       9.470  12.577   9.912  0.00  0.00    +0.166 C 
ATOM      5  H   UNL     1       7.886  13.819   9.665  0.00  0.00    +0.163 HD
ATOM      6  H   UNL     1      11.202  13.346  10.709  0.00  0.00    +0.159 HD
ATOM      7  H   UNL     1       9.933  14.494  10.506  0.00  0.00    +0.159 HD
ATOM      8  H   UNL     1       9.433  10.572   9.439  0.00  0.00    +0.159 HD
ATOM      9  H   UNL     1      10.918  11.129  10.105  0.00  0.00    +0.159 HD
ENDROOT
BRANCH   1  10
ATOM     10  C   UNL     1       7.303  11.910   8.919  0.00  0.00    +0.151 C 
BRANCH  10  11
ATOM     11  C   UNL     1       6.227  11.559   9.909  0.00  0.00    -0.028 A 
ATOM     12  C   UNL     1       5.896  12.445  10.945  0.00  0.00    +0.005 A 
ATOM     13  C   UNL     1       5.531  10.344   9.814  0.00  0.00    +0.005 A 
ATOM     14  C   UNL     1       4.876  12.133  11.847  0.00  0.00    +0.000 A 
ATOM     15  C   UNL     1       4.514  10.036  10.717  0.00  0.00    +0.000 A 
ATOM     16  C   UNL     1       4.185  10.932  11.732  0.00  0.00    +0.000 A 
ENDBRANCH  10  11
ENDBRANCH   1  10
TORSDOF 2
ENDMDL
MODEL 2
REMARK VINA RESULT:    -5.620      3.920      5.545
REMARK INTER + INTRA:          -6.431
REMARK INTER:                  -6.300
REMARK INTRA:                  -0.131
REMARK UNBOUND:                -0.154
REMARK  Name = 1550473
REMARK  2 active torsions:
REMARK  status: ('A' for Active; 'I' for Inactive)
REMARK    1  A    between atoms: N_1  and  C_4
REMARK    2  A    between atoms: C_4  and  C_5
REMARK                            x       y       z     vdW  Elec       q    Type
REMARK                         _______ _______ _______ _____ _____    ______ ____
ROOT
ATOM      1  N   UNL     1       3.554  13.005  13.162  0.00  0.00    -0.354 N 
ATOM      2  N   UNL     1       2.697  15.002  13.963  0.00  0.00    -0.372 N 
ATOM      3  N   UNL     1       1.251  13.284  13.491  0.00  0.00    -0.372 N 
ATOM      4  C   UNL     1       2.504  13.749  13.533  0.00  0.00    +0.166 C 
ATOM      5  H   UNL     1       4.476  13.426  13.188  0.00  0.00    +0.163 HD
ATOM      6  H   UNL     1       1.924  15.586  14.253  0.00  0.00    +0.159 HD
ATOM      7  H   UNL     1       3.623  15.404  14.032  0.00  0.00    +0.159 HD
ATOM      8  H   UNL     1       1.037  12.349  13.170  0.00  0.00    +0.159 HD
ATOM      9  H   UNL     1       0.463  13.857  13.766  0.00  0.00    +0.159 HD
ENDROOT
BRANCH   1  10
ATOM     10  C   UNL     1       3.457  11.612  12.729  0.00  0.00    +0.151 C 
BRANCH  10  11
ATOM     11  C   UNL     1       4.463  11.365  11.639  0.00  0.00    -0.028 A 
ATOM     12  C   UNL     1       4.388  10.208  10.850  0.00  0.00    +0.005 A 
ATOM     13  C   UNL     1       5.491  12.287  11.387  0.00  0.00    +0.005 A 
ATOM     14  C   UNL     1       5.304   9.993   9.817  0.00  0.00    +0.000 A 
ATOM     15  C   UNL     1       6.404  12.068  10.356  0.00  0.00    +0.000 A 
ATOM     16  C   UNL     1       6.309  10.922   9.570  0.00  0.00    +0.000 A 
ENDBRANCH  10  11
ENDBRANCH   1  10
TORSDOF 2
ENDMDL
MODEL 3
REMARK VINA RESULT:    -5.555      0.810      1.705
REMARK INTER + INTRA:          -6.358
REMARK INTER:                  -6.212
REMARK INTRA:                  -0.146
REMARK UNBOUND:                -0.154
REMARK  Name = 1550473
REMARK  2 active torsions:
REMARK  status: ('A' for Active; 'I' for Inactive)
REMARK    1  A    between atoms: N_1  and  C_4
REMARK    2  A    between atoms: C_4  and  C_5
REMARK                            x       y       z     vdW  Elec       q    Type
REMARK                         _______ _______ _______ _____ _____    ______ ____
ROOT
ATOM      1  N   UNL     1       7.776  12.182   9.627  0.00  0.00    -0.354 N 
ATOM      2  N   UNL     1       9.937  12.980   9.867  0.00  0.00    -0.372 N 
ATOM      3  N   UNL     1       9.574  10.716   9.959  0.00  0.00    -0.372 N 
ATOM      4  C   UNL     1       9.082  11.951   9.817  0.00  0.00    +0.166 C 
ATOM      5  H   UNL     1       7.462  13.143   9.557  0.00  0.00    +0.163 HD
ATOM      6  H   UNL     1      10.928  12.837  10.006  0.00  0.00    +0.159 HD
ATOM      7  H   UNL     1       9.627  13.937   9.751  0.00  0.00    +0.159 HD
ATOM      8  H   UNL     1       8.981   9.897   9.936  0.00  0.00    +0.159 HD
ATOM      9  H   UNL     1      10.562  10.553  10.110  0.00  0.00    +0.159 HD
ENDROOT
BRANCH   1  10
ATOM     10  C   UNL     1       6.769  11.129   9.503  0.00  0.00    +0.151 C 
BRANCH  10  11
ATOM     11  C   UNL     1       5.696  11.351  10.532  0.00  0.00    -0.028 A 
ATOM     12  C   UNL     1       4.665  10.415  10.700  0.00  0.00    +0.005 A 
ATOM     13  C   UNL     1       5.708  12.494  11.347  0.00  0.00    +0.005 A 
ATOM     14  C   UNL     1       3.685  10.607  11.677  0.00  0.00    +0.000 A 
ATOM     15  C   UNL     1       4.727  12.682  12.321  0.00  0.00    +0.000 A 
ATOM     16  C   UNL     1       3.717  11.737  12.487  0.00  0.00    +0.000 A 
ENDBRANCH  10  11
ENDBRANCH   1  10
TORSDOF 2
ENDMDL
MODEL 4
REMARK VINA RESULT:    -5.255      1.191      2.018
REMARK INTER + INTRA:          -6.023
REMARK INTER:                  -5.889
REMARK INTRA:                  -0.134
REMARK UNBOUND:                -0.154
REMARK  Name = 1550473
REMARK  2 active torsions:
REMARK  status: ('A' for Active; 'I' for Inactive)
REMARK    1  A    between atoms: N_1  and  C_4
REMARK    2  A    between atoms: C_4  and  C_5
REMARK                            x       y       z     vdW  Elec       q    Type
REMARK                         _______ _______ _______ _____ _____    ______ ____
ROOT
ATOM      1  N   UNL     1       8.494  12.329  11.622  0.00  0.00    -0.354 N 
ATOM      2  N   UNL     1      10.704  11.638  11.598  0.00  0.00    -0.372 N 
ATOM      3  N   UNL     1       9.912  12.883   9.840  0.00  0.00    -0.372 N 
ATOM      4  C   UNL     1       9.689  12.289  11.017  0.00  0.00    +0.166 C 
ATOM      5  H   UNL     1       8.381  11.834  12.498  0.00  0.00    +0.163 HD
ATOM      6  H   UNL     1      11.618  11.594  11.167  0.00  0.00    +0.159 HD
ATOM      7  H   UNL     1      10.601  11.183  12.496  0.00  0.00    +0.159 HD
ATOM      8  H   UNL     1       9.186  13.385   9.347  0.00  0.00    +0.159 HD
ATOM      9  H   UNL     1      10.817  12.839   9.388  0.00  0.00    +0.159 HD
ENDROOT
BRANCH   1  10
ATOM     10  C   UNL     1       7.338  13.056  11.100  0.00  0.00    +0.151 C 
BRANCH  10  11
ATOM     11  C   UNL     1       6.126  12.169  11.172  0.00  0.00    -0.028 A 
ATOM     12  C   UNL     1       6.043  11.012  10.382  0.00  0.00    +0.005 A 
ATOM     13  C   UNL     1       5.060  12.475  12.031  0.00  0.00    +0.005 A 
ATOM     14  C   UNL     1       4.931  10.172  10.471  0.00  0.00    +0.000 A 
ATOM     15  C   UNL     1       3.951  11.634  12.116  0.00  0.00    +0.000 A 
ATOM     16  C   UNL     1       3.888  10.481  11.338  0.00  0.00    +0.000 A 
ENDBRANCH  10  11
ENDBRANCH   1  10
TORSDOF 2
ENDMDL
MODEL 5
REMARK VINA RESULT:    -5.244     16.138     17.516
REMARK INTER + INTRA:          -6.011
REMARK INTER:                  -5.909
REMARK INTRA:                  -0.102
REMARK UNBOUND:                -0.154
REMARK  Name = 1550473
REMARK  2 active torsions:
REMARK  status: ('A' for Active; 'I' for Inactive)
REMARK    1  A    between atoms: N_1  and  C_4
REMARK    2  A    between atoms: C_4  and  C_5
REMARK                            x       y       z     vdW  Elec       q    Type
REMARK                         _______ _______ _______ _____ _____    ______ ____
ROOT
ATOM      1  N   UNL     1       2.902  16.018  -5.017  0.00  0.00    -0.354 N 
ATOM      2  N   UNL     1       1.233  16.144  -3.415  0.00  0.00    -0.372 N 
ATOM      3  N   UNL     1       2.324  18.066  -4.034  0.00  0.00    -0.372 N 
ATOM      4  C   UNL     1       2.165  16.745  -4.166  0.00  0.00    +0.166 C 
ATOM      5  H   UNL     1       2.753  15.016  -5.048  0.00  0.00    +0.163 HD
ATOM      6  H   UNL     1       0.660  16.667  -2.767  0.00  0.00    +0.159 HD
ATOM      7  H   UNL     1       1.055  15.149  -3.482  0.00  0.00    +0.159 HD
ATOM      8  H   UNL     1       3.014  18.578  -4.568  0.00  0.00    +0.159 HD
ATOM      9  H   UNL     1       1.768  18.604  -3.382  0.00  0.00    +0.159 HD
ENDROOT
BRANCH   1  10
ATOM     10  C   UNL     1       3.905  16.583  -5.918  0.00  0.00    +0.151 C 
BRANCH  10  11
ATOM     11  C   UNL     1       4.691  15.463  -6.542  0.00  0.00    -0.028 A 
ATOM     12  C   UNL     1       4.693  15.283  -7.933  0.00  0.00    +0.005 A 
ATOM     13  C   UNL     1       5.441  14.582  -5.747  0.00  0.00    +0.005 A 
ATOM     14  C   UNL     1       5.447  14.261  -8.515  0.00  0.00    +0.000 A 
ATOM     15  C   UNL     1       6.192  13.563  -6.332  0.00  0.00    +0.000 A 
ATOM     16  C   UNL     1       6.197  13.404  -7.716  0.00  0.00    +0.000 A 
ENDBRANCH  10  11
ENDBRANCH   1  10
TORSDOF 2
ENDMDL
MODEL 6
REMARK VINA RESULT:    -5.209     16.003     17.125
REMARK INTER + INTRA:          -5.972
REMARK INTER:                  -5.869
REMARK INTRA:                  -0.103
REMARK UNBOUND:                -0.154
REMARK  Name = 1550473
REMARK  2 active torsions:
REMARK  status: ('A' for Active; 'I' for Inactive)
REMARK    1  A    between atoms: N_1  and  C_4
REMARK    2  A    between atoms: C_4  and  C_5
REMARK                            x       y       z     vdW  Elec       q    Type
REMARK                         _______ _______ _______ _____ _____    ______ ____
ROOT
ATOM      1  N   UNL     1       7.877  16.921  -5.085  0.00  0.00    -0.354 N 
ATOM      2  N   UNL     1       9.461  18.597  -4.869  0.00  0.00    -0.372 N 
ATOM      3  N   UNL     1       7.375  18.920  -3.969  0.00  0.00    -0.372 N 
ATOM      4  C   UNL     1       8.225  18.136  -4.641  0.00  0.00    +0.166 C 
ATOM      5  H   UNL     1       8.558  16.388  -5.614  0.00  0.00    +0.163 HD
ATOM      6  H   UNL     1       9.754  19.508  -4.543  0.00  0.00    +0.159 HD
ATOM      7  H   UNL     1      10.154  18.043  -5.358  0.00  0.00    +0.159 HD
ATOM      8  H   UNL     1       6.426  18.633  -3.770  0.00  0.00    +0.159 HD
ATOM      9  H   UNL     1       7.646  19.840  -3.646  0.00  0.00    +0.159 HD
ENDROOT
BRANCH   1  10
ATOM     10  C   UNL     1       6.574  16.305  -4.843  0.00  0.00    +0.151 C 
BRANCH  10  11
ATOM     11  C   UNL     1       6.221  15.428  -6.012  0.00  0.00    -0.028 A 
ATOM     12  C   UNL     1       6.589  14.074  -6.024  0.00  0.00    +0.005 A 
ATOM     13  C   UNL     1       5.513  15.942  -7.109  0.00  0.00    +0.005 A 
ATOM     14  C   UNL     1       6.236  13.252  -7.096  0.00  0.00    +0.000 A 
ATOM     15  C   UNL     1       5.163  15.118  -8.179  0.00  0.00    +0.000 A 
ATOM     16  C   UNL     1       5.522  13.772  -8.170  0.00  0.00    +0.000 A 
ENDBRANCH  10  11
ENDBRANCH   1  10
TORSDOF 2
ENDMDL
MODEL 7
REMARK VINA RESULT:    -5.155      1.376      1.788
REMARK INTER + INTRA:          -5.912
REMARK INTER:                  -5.767
REMARK INTRA:                  -0.145
REMARK UNBOUND:                -0.154
REMARK  Name = 1550473
REMARK  2 active torsions:
REMARK  status: ('A' for Active; 'I' for Inactive)
REMARK    1  A    between atoms: N_1  and  C_4
REMARK    2  A    between atoms: C_4  and  C_5
REMARK                            x       y       z     vdW  Elec       q    Type
REMARK                         _______ _______ _______ _____ _____    ______ ____
ROOT
ATOM      1  N   UNL     1       8.864  11.143  11.130  0.00  0.00    -0.354 N 
ATOM      2  N   UNL     1      10.595  10.626   9.681  0.00  0.00    -0.372 N 
ATOM      3  N   UNL     1       9.776  12.769   9.710  0.00  0.00    -0.372 N 
ATOM      4  C   UNL     1       9.733  11.519  10.182  0.00  0.00    +0.166 C 
ATOM      5  H   UNL     1       8.861  10.173  11.424  0.00  0.00    +0.163 HD
ATOM      6  H   UNL     1      11.265  10.881   8.968  0.00  0.00    +0.159 HD
ATOM      7  H   UNL     1      10.621   9.668  10.010  0.00  0.00    +0.159 HD
ATOM      8  H   UNL     1       9.148  13.489  10.042  0.00  0.00    +0.159 HD
ATOM      9  H   UNL     1      10.432  13.041   8.988  0.00  0.00    +0.159 HD
ENDROOT
BRANCH   1  10
ATOM     10  C   UNL     1       7.920  12.051  11.780  0.00  0.00    +0.151 C 
BRANCH  10  11
ATOM     11  C   UNL     1       6.527  11.505  11.624  0.00  0.00    -0.028 A 
ATOM     12  C   UNL     1       5.423  12.225  12.102  0.00  0.00    +0.005 A 
ATOM     13  C   UNL     1       6.305  10.270  10.994  0.00  0.00    +0.005 A 
ATOM     14  C   UNL     1       4.127  11.732  11.931  0.00  0.00    +0.000 A 
ATOM     15  C   UNL     1       5.009   9.782  10.827  0.00  0.00    +0.000 A 
ATOM     16  C   UNL     1       3.920  10.514  11.293  0.00  0.00    +0.000 A 
ENDBRANCH  10  11
ENDBRANCH   1  10
TORSDOF 2
ENDMDL
MODEL 8
REMARK VINA RESULT:    -5.037      1.301      1.571
REMARK INTER + INTRA:          -5.780
REMARK INTER:                  -5.686
REMARK INTRA:                  -0.094
REMARK UNBOUND:                -0.154
REMARK  Name = 1550473
REMARK  2 active torsions:
REMARK  status: ('A' for Active; 'I' for Inactive)
REMARK    1  A    between atoms: N_1  and  C_4
REMARK    2  A    between atoms: C_4  and  C_5
REMARK                            x       y       z     vdW  Elec       q    Type
REMARK                         _______ _______ _______ _____ _____    ______ ____
ROOT
ATOM      1  N   UNL     1       8.997  11.898  11.093  0.00  0.00    -0.354 N 
ATOM      2  N   UNL     1      11.094  11.748  12.065  0.00  0.00    -0.372 N 
ATOM      3  N   UNL     1      10.477  13.714  11.053  0.00  0.00    -0.372 N 
ATOM      4  C   UNL     1      10.176  12.457  11.396  0.00  0.00    +0.166 C 
ATOM      5  H   UNL     1       8.841  10.931  11.355  0.00  0.00    +0.163 HD
ATOM      6  H   UNL     1      11.991  12.145  12.310  0.00  0.00    +0.159 HD
ATOM      7  H   UNL     1      10.918  10.797  12.365  0.00  0.00    +0.159 HD
ATOM      8  H   UNL     1       9.830  14.299  10.543  0.00  0.00    +0.159 HD
ATOM      9  H   UNL     1      11.375  14.124  11.280  0.00  0.00    +0.159 HD
ENDROOT
BRANCH   1  10
ATOM     10  C   UNL     1       7.909  12.600  10.415  0.00  0.00    +0.151 C 
BRANCH  10  11
ATOM     11  C   UNL     1       6.613  11.892  10.700  0.00  0.00    -0.028 A 
ATOM     12  C   UNL     1       5.682  12.443  11.592  0.00  0.00    +0.005 A 
ATOM     13  C   UNL     1       6.309  10.671  10.078  0.00  0.00    +0.005 A 
ATOM     14  C   UNL     1       4.465  11.800  11.835  0.00  0.00    +0.000 A 
ATOM     15  C   UNL     1       5.094  10.032  10.323  0.00  0.00    +0.000 A 
ATOM     16  C   UNL     1       4.171  10.598  11.200  0.00  0.00    +0.000 A 
ENDBRANCH  10  11
ENDBRANCH   1  10
TORSDOF 2
ENDMDL
MODEL 9
REMARK VINA RESULT:    -4.634     15.108     15.949
REMARK INTER + INTRA:          -5.330
REMARK INTER:                  -5.213
REMARK INTRA:                  -0.117
REMARK UNBOUND:                -0.154
REMARK  Name = 1550473
REMARK  2 active torsions:
REMARK  status: ('A' for Active; 'I' for Inactive)
REMARK    1  A    between atoms: N_1  and  C_4
REMARK    2  A    between atoms: C_4  and  C_5
REMARK                            x       y       z     vdW  Elec       q    Type
REMARK                         _______ _______ _______ _____ _____    ______ ____
ROOT
ATOM      1  N   UNL     1       8.328  17.800  -3.987  0.00  0.00    -0.354 N 
ATOM      2  N   UNL     1      10.107  19.227  -3.583  0.00  0.00    -0.372 N 
ATOM      3  N   UNL     1       8.265  20.036  -4.687  0.00  0.00    -0.372 N 
ATOM      4  C   UNL     1       8.887  19.013  -4.090  0.00  0.00    +0.166 C 
ATOM      5  H   UNL     1       8.863  17.059  -3.550  0.00  0.00    +0.163 HD
ATOM      6  H   UNL     1      10.553  20.132  -3.643  0.00  0.00    +0.159 HD
ATOM      7  H   UNL     1      10.621  18.496  -3.106  0.00  0.00    +0.159 HD
ATOM      8  H   UNL     1       7.345  19.938  -5.095  0.00  0.00    +0.159 HD
ATOM      9  H   UNL     1       8.699  20.946  -4.767  0.00  0.00    +0.159 HD
ENDROOT
BRANCH   1  10
ATOM     10  C   UNL     1       6.982  17.477  -4.458  0.00  0.00    +0.151 C 
BRANCH  10  11
ATOM     11  C   UNL     1       6.918  16.013  -4.797  0.00  0.00    -0.028 A 
ATOM     12  C   UNL     1       7.654  15.078  -4.055  0.00  0.00    +0.005 A 
ATOM     13  C   UNL     1       6.119  15.555  -5.856  0.00  0.00    +0.005 A 
ATOM     14  C   UNL     1       7.571  13.715  -4.350  0.00  0.00    +0.000 A 
ATOM     15  C   UNL     1       6.041  14.193  -6.148  0.00  0.00    +0.000 A 
ATOM     16  C   UNL     1       6.765  13.274  -5.394  0.00  0.00    +0.000 A 
ENDBRANCH  10  11
ENDBRANCH   1  10
TORSDOF 2
ENDMDL
