MODEL 1
REMARK VINA RESULT:    -6.385      0.000      0.000
REMARK INTER + INTRA:          -7.245
REMARK INTER:                  -7.131
REMARK INTRA:                  -0.114
REMARK UNBOUND:                -0.114
REMARK  Name = 1550473
REMARK  2 active torsions:
REMARK  status: ('A' for Active; 'I' for Inactive)
REMARK    1  A    between atoms: N_1  and  C_4
REMARK    2  A    between atoms: C_4  and  C_5
REMARK                            x       y       z     vdW  Elec       q    Type
REMARK                         _______ _______ _______ _____ _____    ______ ____
ROOT
ATOM      1  N   UNL     1      -5.476  -3.249  -8.683  0.00  0.00    -0.354 N 
ATOM      2  N   UNL     1      -5.477  -4.992  -7.158  0.00  0.00    -0.372 N 
ATOM      3  N   UNL     1      -3.477  -4.282  -8.030  0.00  0.00    -0.372 N 
ATOM      4  C   UNL     1      -4.807  -4.163  -7.968  0.00  0.00    +0.166 C 
ATOM      5  H   UNL     1      -6.487  -3.229  -8.614  0.00  0.00    +0.163 HD
ATOM      6  H   UNL     1      -4.999  -5.690  -6.604  0.00  0.00    +0.159 HD
ATOM      7  H   UNL     1      -6.483  -4.940  -7.056  0.00  0.00    +0.159 HD
ATOM      8  H   UNL     1      -2.913  -3.691  -8.626  0.00  0.00    +0.159 HD
ATOM      9  H   UNL     1      -2.981  -4.982  -7.492  0.00  0.00    +0.159 HD
ENDROOT
BRANCH   1  10
ATOM     10  C   UNL     1      -4.836  -2.263  -9.553  0.00  0.00    +0.151 C 
BRANCH  10  11
ATOM     11  C   UNL     1      -5.856  -1.238  -9.966  0.00  0.00    -0.028 A 
ATOM     12  C   UNL     1      -6.776  -0.734  -9.035  0.00  0.00    +0.005 A 
ATOM     13  C   UNL     1      -5.903  -0.761 -11.285  0.00  0.00    +0.005 A 
ATOM     14  C   UNL     1      -7.704   0.241  -9.410  0.00  0.00    +0.000 A 
ATOM     15  C   UNL     1      -6.831   0.211 -11.656  0.00  0.00    +0.000 A 
ATOM     16  C   UNL     1      -7.730   0.714 -10.718  0.00  0.00    +0.000 A 
ENDBRANCH  10  11
ENDBRANCH   1  10
TORSDOF 2
ENDMDL
MODEL 2
REMARK VINA RESULT:    -5.886      1.422      1.742
REMARK INTER + INTRA:          -6.687
REMARK INTER:                  -6.548
REMARK INTRA:                  -0.140
REMARK UNBOUND:                -0.114
REMARK  Name = 1550473
REMARK  2 active torsions:
REMARK  status: ('A' for Active; 'I' for Inactive)
REMARK    1  A    between atoms: N_1  and  C_4
REMARK    2  A    between atoms: C_4  and  C_5
REMARK                            x       y       z     vdW  Elec       q    Type
REMARK                         _______ _______ _______ _____ _____    ______ ____
ROOT
ATOM      1  N   UNL     1      -5.130  -3.794  -9.417  0.00  0.00    -0.354 N 
ATOM      2  N   UNL     1      -3.529  -4.418  -7.865  0.00  0.00    -0.372 N 
ATOM      3  N   UNL     1      -2.904  -3.094  -9.632  0.00  0.00    -0.372 N 
ATOM      4  C   UNL     1      -3.863  -3.763  -8.983  0.00  0.00    +0.166 C 
ATOM      5  H   UNL     1      -5.804  -4.344  -8.897  0.00  0.00    +0.163 HD
ATOM      6  H   UNL     1      -2.581  -4.410  -7.511  0.00  0.00    +0.159 HD
ATOM      7  H   UNL     1      -4.214  -4.929  -7.322  0.00  0.00    +0.159 HD
ATOM      8  H   UNL     1      -3.089  -2.585 -10.485  0.00  0.00    +0.159 HD
ATOM      9  H   UNL     1      -1.947  -3.084  -9.300  0.00  0.00    +0.159 HD
ENDROOT
BRANCH   1  10
ATOM     10  C   UNL     1      -5.609  -3.071 -10.594  0.00  0.00    +0.151 C 
BRANCH  10  11
ATOM     11  C   UNL     1      -6.331  -1.830 -10.148  0.00  0.00    -0.028 A 
ATOM     12  C   UNL     1      -5.614  -0.689  -9.758  0.00  0.00    +0.005 A 
ATOM     13  C   UNL     1      -7.734  -1.786 -10.117  0.00  0.00    +0.005 A 
ATOM     14  C   UNL     1      -6.285   0.474  -9.372  0.00  0.00    +0.000 A 
ATOM     15  C   UNL     1      -8.400  -0.623  -9.730  0.00  0.00    +0.000 A 
ATOM     16  C   UNL     1      -7.675   0.507  -9.360  0.00  0.00    +0.000 A 
ENDBRANCH  10  11
ENDBRANCH   1  10
TORSDOF 2
ENDMDL
MODEL 3
REMARK VINA RESULT:    -5.676      1.852      2.162
REMARK INTER + INTRA:          -6.453
REMARK INTER:                  -6.326
REMARK INTRA:                  -0.127
REMARK UNBOUND:                -0.114
REMARK  Name = 1550473
REMARK  2 active torsions:
REMARK  status: ('A' for Active; 'I' for Inactive)
REMARK    1  A    between atoms: N_1  and  C_4
REMARK    2  A    between atoms: C_4  and  C_5
REMARK                            x       y       z     vdW  Elec       q    Type
REMARK                         _______ _______ _______ _____ _____    ______ ____
ROOT
ATOM      1  N   UNL     1      -4.960  -3.233 -10.377  0.00  0.00    -0.354 N 
ATOM      2  N   UNL     1      -3.130  -4.572  -9.904  0.00  0.00    -0.372 N 
ATOM      3  N   UNL     1      -5.162  -5.566 -10.291  0.00  0.00    -0.372 N 
ATOM      4  C   UNL     1      -4.431  -4.450 -10.194  0.00  0.00    +0.166 C 
ATOM      5  H   UNL     1      -4.359  -2.424 -10.260  0.00  0.00    +0.163 HD
ATOM      6  H   UNL     1      -2.703  -5.477  -9.764  0.00  0.00    +0.159 HD
ATOM      7  H   UNL     1      -2.522  -3.765  -9.833  0.00  0.00    +0.159 HD
ATOM      8  H   UNL     1      -6.151  -5.542 -10.501  0.00  0.00    +0.159 HD
ATOM      9  H   UNL     1      -4.754  -6.481 -10.143  0.00  0.00    +0.159 HD
ENDROOT
BRANCH   1  10
ATOM     10  C   UNL     1      -6.353  -2.994 -10.749  0.00  0.00    +0.151 C 
BRANCH  10  11
ATOM     11  C   UNL     1      -6.772  -1.641 -10.243  0.00  0.00    -0.028 A 
ATOM     12  C   UNL     1      -8.126  -1.277 -10.220  0.00  0.00    +0.005 A 
ATOM     13  C   UNL     1      -5.819  -0.720  -9.780  0.00  0.00    +0.005 A 
ATOM     14  C   UNL     1      -8.518  -0.032  -9.722  0.00  0.00    +0.000 A 
ATOM     15  C   UNL     1      -6.214   0.522  -9.285  0.00  0.00    +0.000 A 
ATOM     16  C   UNL     1      -7.563   0.865  -9.254  0.00  0.00    +0.000 A 
ENDBRANCH  10  11
ENDBRANCH   1  10
TORSDOF 2
ENDMDL
MODEL 4
REMARK VINA RESULT:    -5.564      2.904      4.778
REMARK INTER + INTRA:          -6.328
REMARK INTER:                  -6.190
REMARK INTRA:                  -0.138
REMARK UNBOUND:                -0.114
REMARK  Name = 1550473
REMARK  2 active torsions:
REMARK  status: ('A' for Active; 'I' for Inactive)
REMARK    1  A    between atoms: N_1  and  C_4
REMARK    2  A    between atoms: C_4  and  C_5
REMARK                            x       y       z     vdW  Elec       q    Type
REMARK                         _______ _______ _______ _____ _____    ______ ____
ROOT
ATOM      1  N   UNL     1      -6.321   0.010 -10.213  0.00  0.00    -0.354 N 
ATOM      2  N   UNL     1      -7.472   1.219  -8.608  0.00  0.00    -0.372 N 
ATOM      3  N   UNL     1      -8.626  -0.279  -9.907  0.00  0.00    -0.372 N 
ATOM      4  C   UNL     1      -7.468   0.307  -9.588  0.00  0.00    +0.166 C 
ATOM      5  H   UNL     1      -5.482   0.512  -9.945  0.00  0.00    +0.163 HD
ATOM      6  H   UNL     1      -8.321   1.462  -8.116  0.00  0.00    +0.159 HD
ATOM      7  H   UNL     1      -6.624   1.686  -8.311  0.00  0.00    +0.159 HD
ATOM      8  H   UNL     1      -8.692  -0.972 -10.641  0.00  0.00    +0.159 HD
ATOM      9  H   UNL     1      -9.489  -0.041  -9.433  0.00  0.00    +0.159 HD
ENDROOT
BRANCH   1  10
ATOM     10  C   UNL     1      -6.199  -1.007 -11.256  0.00  0.00    +0.151 C 
BRANCH  10  11
ATOM     11  C   UNL     1      -5.000  -1.867 -10.966  0.00  0.00    -0.028 A 
ATOM     12  C   UNL     1      -4.609  -2.120  -9.643  0.00  0.00    +0.005 A 
ATOM     13  C   UNL     1      -4.253  -2.435 -12.009  0.00  0.00    +0.005 A 
ATOM     14  C   UNL     1      -3.513  -2.943  -9.372  0.00  0.00    +0.000 A 
ATOM     15  C   UNL     1      -3.159  -3.256 -11.735  0.00  0.00    +0.000 A 
ATOM     16  C   UNL     1      -2.791  -3.511 -10.416  0.00  0.00    +0.000 A 
ENDBRANCH  10  11
ENDBRANCH   1  10
TORSDOF 2
ENDMDL
MODEL 5
REMARK VINA RESULT:    -5.096     11.346     12.070
REMARK INTER + INTRA:          -5.806
REMARK INTER:                  -5.701
REMARK INTRA:                  -0.105
REMARK UNBOUND:                -0.114
REMARK  Name = 1550473
REMARK  2 active torsions:
REMARK  status: ('A' for Active; 'I' for Inactive)
REMARK    1  A    between atoms: N_1  and  C_4
REMARK    2  A    between atoms: C_4  and  C_5
REMARK                            x       y       z     vdW  Elec       q    Type
REMARK                         _______ _______ _______ _____ _____    ______ ____
ROOT
ATOM      1  N   UNL     1      -1.112   7.549  -2.478  0.00  0.00    -0.354 N 
ATOM      2  N   UNL     1       0.592   8.324  -3.841  0.00  0.00    -0.372 N 
ATOM      3  N   UNL     1       0.888   6.350  -2.709  0.00  0.00    -0.372 N 
ATOM      4  C   UNL     1       0.113   7.400  -2.999  0.00  0.00    +0.166 C 
ATOM      5  H   UNL     1      -1.638   8.383  -2.714  0.00  0.00    +0.163 HD
ATOM      6  H   UNL     1       1.512   8.237  -4.252  0.00  0.00    +0.159 HD
ATOM      7  H   UNL     1       0.047   9.133  -4.111  0.00  0.00    +0.159 HD
ATOM      8  H   UNL     1       0.587   5.621  -2.076  0.00  0.00    +0.159 HD
ATOM      9  H   UNL     1       1.816   6.251  -3.102  0.00  0.00    +0.159 HD
ENDROOT
BRANCH   1  10
ATOM     10  C   UNL     1      -1.749   6.574  -1.594  0.00  0.00    +0.151 C 
BRANCH  10  11
ATOM     11  C   UNL     1      -3.210   6.482  -1.936  0.00  0.00    -0.028 A 
ATOM     12  C   UNL     1      -3.719   5.349  -2.588  0.00  0.00    +0.005 A 
ATOM     13  C   UNL     1      -4.093   7.521  -1.605  0.00  0.00    +0.005 A 
ATOM     14  C   UNL     1      -5.082   5.250  -2.879  0.00  0.00    +0.000 A 
ATOM     15  C   UNL     1      -5.453   7.419  -1.898  0.00  0.00    +0.000 A 
ATOM     16  C   UNL     1      -5.947   6.282  -2.533  0.00  0.00    +0.000 A 
ENDBRANCH  10  11
ENDBRANCH   1  10
TORSDOF 2
ENDMDL
MODEL 6
REMARK VINA RESULT:    -4.976      2.639      3.177
REMARK INTER + INTRA:          -5.672
REMARK INTER:                  -5.567
REMARK INTRA:                  -0.105
REMARK UNBOUND:                -0.114
REMARK  Name = 1550473
REMARK  2 active torsions:
REMARK  status: ('A' for Active; 'I' for Inactive)
REMARK    1  A    between atoms: N_1  and  C_4
REMARK    2  A    between atoms: C_4  and  C_5
REMARK                            x       y       z     vdW  Elec       q    Type
REMARK                         _______ _______ _______ _____ _____    ______ ____
ROOT
ATOM      1  N   UNL     1      -6.433  -4.018 -10.934  0.00  0.00    -0.354 N 
ATOM      2  N   UNL     1      -7.369  -5.651 -12.284  0.00  0.00    -0.372 N 
ATOM      3  N   UNL     1      -6.047  -4.040 -13.246  0.00  0.00    -0.372 N 
ATOM      4  C   UNL     1      -6.609  -4.557 -12.148  0.00  0.00    +0.166 C 
ATOM      5  H   UNL     1      -6.911  -4.439 -10.146  0.00  0.00    +0.163 HD
ATOM      6  H   UNL     1      -7.517  -6.082 -13.187  0.00  0.00    +0.159 HD
ATOM      7  H   UNL     1      -7.808  -6.097 -11.488  0.00  0.00    +0.159 HD
ATOM      8  H   UNL     1      -5.468  -3.212 -13.212  0.00  0.00    +0.159 HD
ATOM      9  H   UNL     1      -6.193  -4.451 -14.160  0.00  0.00    +0.159 HD
ENDROOT
BRANCH   1  10
ATOM     10  C   UNL     1      -5.582  -2.859 -10.670  0.00  0.00    +0.151 C 
BRANCH  10  11
ATOM     11  C   UNL     1      -6.445  -1.700 -10.255  0.00  0.00    -0.028 A 
ATOM     12  C   UNL     1      -5.866  -0.524  -9.756  0.00  0.00    +0.005 A 
ATOM     13  C   UNL     1      -7.843  -1.769 -10.362  0.00  0.00    +0.005 A 
ATOM     14  C   UNL     1      -6.666   0.565  -9.398  0.00  0.00    +0.000 A 
ATOM     15  C   UNL     1      -8.638  -0.681 -10.003  0.00  0.00    +0.000 A 
ATOM     16  C   UNL     1      -8.049   0.487  -9.523  0.00  0.00    +0.000 A 
ENDBRANCH  10  11
ENDBRANCH   1  10
TORSDOF 2
ENDMDL
MODEL 7
REMARK VINA RESULT:    -4.823      4.170      5.726
REMARK INTER + INTRA:          -5.501
REMARK INTER:                  -5.352
REMARK INTRA:                  -0.149
REMARK UNBOUND:                -0.114
REMARK  Name = 1550473
REMARK  2 active torsions:
REMARK  status: ('A' for Active; 'I' for Inactive)
REMARK    1  A    between atoms: N_1  and  C_4
REMARK    2  A    between atoms: C_4  and  C_5
REMARK                            x       y       z     vdW  Elec       q    Type
REMARK                         _______ _______ _______ _____ _____    ______ ____
ROOT
ATOM      1  N   UNL     1      -7.004   0.030 -13.671  0.00  0.00    -0.354 N 
ATOM      2  N   UNL     1      -8.058   2.029 -14.177  0.00  0.00    -0.372 N 
ATOM      3  N   UNL     1      -9.339   0.217 -13.593  0.00  0.00    -0.372 N 
ATOM      4  C   UNL     1      -8.129   0.744 -13.810  0.00  0.00    +0.166 C 
ATOM      5  H   UNL     1      -6.120   0.479 -13.879  0.00  0.00    +0.163 HD
ATOM      6  H   UNL     1      -8.889   2.594 -14.287  0.00  0.00    +0.159 HD
ATOM      7  H   UNL     1      -7.170   2.489 -14.340  0.00  0.00    +0.159 HD
ATOM      8  H   UNL     1      -9.461  -0.748 -13.320  0.00  0.00    +0.159 HD
ATOM      9  H   UNL     1     -10.183   0.764 -13.709  0.00  0.00    +0.159 HD
ENDROOT
BRANCH   1  10
ATOM     10  C   UNL     1      -6.969  -1.361 -13.223  0.00  0.00    +0.151 C 
BRANCH  10  11
ATOM     11  C   UNL     1      -6.198  -1.443 -11.935  0.00  0.00    -0.028 A 
ATOM     12  C   UNL     1      -6.652  -0.772 -10.790  0.00  0.00    +0.005 A 
ATOM     13  C   UNL     1      -5.017  -2.196 -11.850  0.00  0.00    +0.005 A 
ATOM     14  C   UNL     1      -5.953  -0.873  -9.585  0.00  0.00    +0.000 A 
ATOM     15  C   UNL     1      -4.321  -2.293 -10.645  0.00  0.00    +0.000 A 
ATOM     16  C   UNL     1      -4.791  -1.633  -9.512  0.00  0.00    +0.000 A 
ENDBRANCH  10  11
ENDBRANCH   1  10
TORSDOF 2
ENDMDL
MODEL 8
REMARK VINA RESULT:    -4.789      3.696      4.979
REMARK INTER + INTRA:          -5.463
REMARK INTER:                  -5.329
REMARK INTRA:                  -0.134
REMARK UNBOUND:                -0.114
REMARK  Name = 1550473
REMARK  2 active torsions:
REMARK  status: ('A' for Active; 'I' for Inactive)
REMARK    1  A    between atoms: N_1  and  C_4
REMARK    2  A    between atoms: C_4  and  C_5
REMARK                            x       y       z     vdW  Elec       q    Type
REMARK                         _______ _______ _______ _____ _____    ______ ____
ROOT
ATOM      1  N   UNL     1      -7.196  -3.276 -12.809  0.00  0.00    -0.354 N 
ATOM      2  N   UNL     1      -8.056  -4.645 -14.468  0.00  0.00    -0.372 N 
ATOM      3  N   UNL     1      -8.319  -5.262 -12.274  0.00  0.00    -0.372 N 
ATOM      4  C   UNL     1      -7.852  -4.387 -13.171  0.00  0.00    +0.166 C 
ATOM      5  H   UNL     1      -6.841  -2.669 -13.539  0.00  0.00    +0.163 HD
ATOM      6  H   UNL     1      -8.551  -5.474 -14.771  0.00  0.00    +0.159 HD
ATOM      7  H   UNL     1      -7.740  -4.013 -15.193  0.00  0.00    +0.159 HD
ATOM      8  H   UNL     1      -8.193  -5.129 -11.279  0.00  0.00    +0.159 HD
ATOM      9  H   UNL     1      -8.807  -6.103 -12.557  0.00  0.00    +0.159 HD
ENDROOT
BRANCH   1  10
ATOM     10  C   UNL     1      -6.969  -2.876 -11.422  0.00  0.00    +0.151 C 
BRANCH  10  11
ATOM     11  C   UNL     1      -5.489  -2.833 -11.159  0.00  0.00    -0.028 A 
ATOM     12  C   UNL     1      -5.000  -2.448  -9.902  0.00  0.00    +0.005 A 
ATOM     13  C   UNL     1      -4.571  -3.182 -12.162  0.00  0.00    +0.005 A 
ATOM     14  C   UNL     1      -3.626  -2.438  -9.649  0.00  0.00    +0.000 A 
ATOM     15  C   UNL     1      -3.200  -3.169 -11.905  0.00  0.00    +0.000 A 
ATOM     16  C   UNL     1      -2.728  -2.799 -10.648  0.00  0.00    +0.000 A 
ENDBRANCH  10  11
ENDBRANCH   1  10
TORSDOF 2
ENDMDL
MODEL 9
REMARK VINA RESULT:    -4.738      3.364      4.592
REMARK INTER + INTRA:          -5.406
REMARK INTER:                  -5.286
REMARK INTRA:                  -0.120
REMARK UNBOUND:                -0.114
REMARK  Name = 1550473
REMARK  2 active torsions:
REMARK  status: ('A' for Active; 'I' for Inactive)
REMARK    1  A    between atoms: N_1  and  C_4
REMARK    2  A    between atoms: C_4  and  C_5
REMARK                            x       y       z     vdW  Elec       q    Type
REMARK                         _______ _______ _______ _____ _____    ______ ____
ROOT
ATOM      1  N   UNL     1      -7.693  -3.581 -11.433  0.00  0.00    -0.354 N 
ATOM      2  N   UNL     1      -9.735  -3.535 -10.341  0.00  0.00    -0.372 N 
ATOM      3  N   UNL     1      -9.081  -1.696 -11.547  0.00  0.00    -0.372 N 
ATOM      4  C   UNL     1      -8.823  -2.935 -11.115  0.00  0.00    +0.166 C 
ATOM      5  H   UNL     1      -7.544  -4.507 -11.049  0.00  0.00    +0.163 HD
ATOM      6  H   UNL     1     -10.599  -3.074 -10.088  0.00  0.00    +0.159 HD
ATOM      7  H   UNL     1      -9.604  -4.479  -9.996  0.00  0.00    +0.159 HD
ATOM      8  H   UNL     1      -8.431  -1.186 -12.129  0.00  0.00    +0.159 HD
ATOM      9  H   UNL     1      -9.934  -1.213 -11.294  0.00  0.00    +0.159 HD
ENDROOT
BRANCH   1  10
ATOM     10  C   UNL     1      -6.660  -3.037 -12.312  0.00  0.00    +0.151 C 
BRANCH  10  11
ATOM     11  C   UNL     1      -5.384  -2.879 -11.533  0.00  0.00    -0.028 A 
ATOM     12  C   UNL     1      -5.411  -2.410 -10.211  0.00  0.00    +0.005 A 
ATOM     13  C   UNL     1      -4.145  -3.201 -12.108  0.00  0.00    +0.005 A 
ATOM     14  C   UNL     1      -4.229  -2.291  -9.476  0.00  0.00    +0.000 A 
ATOM     15  C   UNL     1      -2.967  -3.081 -11.371  0.00  0.00    +0.000 A 
ATOM     16  C   UNL     1      -3.009  -2.628 -10.055  0.00  0.00    +0.000 A 
ENDBRANCH  10  11
ENDBRANCH   1  10
TORSDOF 2
ENDMDL
