MODEL 1
REMARK VINA RESULT:    -5.653      0.000      0.000
REMARK INTER + INTRA:          -6.469
REMARK INTER:                  -6.314
REMARK INTRA:                  -0.155
REMARK UNBOUND:                -0.155
REMARK  Name = 1550473
REMARK  2 active torsions:
REMARK  status: ('A' for Active; 'I' for Inactive)
REMARK    1  A    between atoms: N_1  and  C_4
REMARK    2  A    between atoms: C_4  and  C_5
REMARK                            x       y       z     vdW  Elec       q    Type
REMARK                         _______ _______ _______ _____ _____    ______ ____
ROOT
ATOM      1  N   UNL     1      -0.202   4.438   8.772  0.00  0.00    -0.354 N 
ATOM      2  N   UNL     1      -0.514   6.703   9.142  0.00  0.00    -0.372 N 
ATOM      3  N   UNL     1      -1.284   5.207  10.703  0.00  0.00    -0.372 N 
ATOM      4  C   UNL     1      -0.666   5.433   9.539  0.00  0.00    +0.166 C 
ATOM      5  H   UNL     1       0.231   4.674   7.887  0.00  0.00    +0.163 HD
ATOM      6  H   UNL     1      -0.851   7.475   9.702  0.00  0.00    +0.159 HD
ATOM      7  H   UNL     1      -0.040   6.938   8.279  0.00  0.00    +0.159 HD
ATOM      8  H   UNL     1      -1.436   4.272  11.056  0.00  0.00    +0.159 HD
ATOM      9  H   UNL     1      -1.639   5.966  11.271  0.00  0.00    +0.159 HD
ENDROOT
BRANCH   1  10
ATOM     10  C   UNL     1      -0.269   3.024   9.139  0.00  0.00    +0.151 C 
BRANCH  10  11
ATOM     11  C   UNL     1      -1.134   2.300   8.145  0.00  0.00    -0.028 A 
ATOM     12  C   UNL     1      -2.472   2.006   8.446  0.00  0.00    +0.005 A 
ATOM     13  C   UNL     1      -0.623   1.909   6.897  0.00  0.00    +0.005 A 
ATOM     14  C   UNL     1      -3.284   1.360   7.511  0.00  0.00    +0.000 A 
ATOM     15  C   UNL     1      -1.437   1.263   5.967  0.00  0.00    +0.000 A 
ATOM     16  C   UNL     1      -2.768   0.991   6.273  0.00  0.00    +0.000 A 
ENDBRANCH  10  11
ENDBRANCH   1  10
TORSDOF 2
ENDMDL
MODEL 2
REMARK VINA RESULT:    -5.316     26.174     27.347
REMARK INTER + INTRA:          -6.093
REMARK INTER:                  -5.973
REMARK INTRA:                  -0.120
REMARK UNBOUND:                -0.155
REMARK  Name = 1550473
REMARK  2 active torsions:
REMARK  status: ('A' for Active; 'I' for Inactive)
REMARK    1  A    between atoms: N_1  and  C_4
REMARK    2  A    between atoms: C_4  and  C_5
REMARK                            x       y       z     vdW  Elec       q    Type
REMARK                         _______ _______ _______ _____ _____    ______ ____
ROOT
ATOM      1  N   UNL     1       2.998  -5.940 -16.455  0.00  0.00    -0.354 N 
ATOM      2  N   UNL     1       2.747  -7.304 -14.600  0.00  0.00    -0.372 N 
ATOM      3  N   UNL     1       4.776  -7.248 -15.669  0.00  0.00    -0.372 N 
ATOM      4  C   UNL     1       3.511  -6.823 -15.588  0.00  0.00    +0.166 C 
ATOM      5  H   UNL     1       2.023  -5.680 -16.357  0.00  0.00    +0.163 HD
ATOM      6  H   UNL     1       3.107  -7.969 -13.929  0.00  0.00    +0.159 HD
ATOM      7  H   UNL     1       1.786  -7.008 -14.478  0.00  0.00    +0.159 HD
ATOM      8  H   UNL     1       5.404  -6.927 -16.395  0.00  0.00    +0.159 HD
ATOM      9  H   UNL     1       5.152  -7.922 -15.013  0.00  0.00    +0.159 HD
ENDROOT
BRANCH   1  10
ATOM     10  C   UNL     1       3.761  -5.314 -17.533  0.00  0.00    +0.151 C 
BRANCH  10  11
ATOM     11  C   UNL     1       3.037  -4.081 -17.996  0.00  0.00    -0.028 A 
ATOM     12  C   UNL     1       3.724  -3.064 -18.676  0.00  0.00    +0.005 A 
ATOM     13  C   UNL     1       1.662  -3.925 -17.764  0.00  0.00    +0.005 A 
ATOM     14  C   UNL     1       3.046  -1.932 -19.133  0.00  0.00    +0.000 A 
ATOM     15  C   UNL     1       0.988  -2.792 -18.221  0.00  0.00    +0.000 A 
ATOM     16  C   UNL     1       1.680  -1.797 -18.907  0.00  0.00    +0.000 A 
ENDBRANCH  10  11
ENDBRANCH   1  10
TORSDOF 2
ENDMDL
MODEL 3
REMARK VINA RESULT:    -5.223      2.178      2.747
REMARK INTER + INTRA:          -5.989
REMARK INTER:                  -5.867
REMARK INTRA:                  -0.122
REMARK UNBOUND:                -0.155
REMARK  Name = 1550473
REMARK  2 active torsions:
REMARK  status: ('A' for Active; 'I' for Inactive)
REMARK    1  A    between atoms: N_1  and  C_4
REMARK    2  A    between atoms: C_4  and  C_5
REMARK                            x       y       z     vdW  Elec       q    Type
REMARK                         _______ _______ _______ _____ _____    ______ ____
ROOT
ATOM      1  N   UNL     1      -0.460   3.043   8.261  0.00  0.00    -0.354 N 
ATOM      2  N   UNL     1      -0.054   5.176   9.067  0.00  0.00    -0.372 N 
ATOM      3  N   UNL     1      -2.207   4.381   9.068  0.00  0.00    -0.372 N 
ATOM      4  C   UNL     1      -0.912   4.186   8.793  0.00  0.00    +0.166 C 
ATOM      5  H   UNL     1       0.528   2.969   8.049  0.00  0.00    +0.163 HD
ATOM      6  H   UNL     1      -0.365   6.049   9.472  0.00  0.00    +0.159 HD
ATOM      7  H   UNL     1       0.940   5.082   8.896  0.00  0.00    +0.159 HD
ATOM      8  H   UNL     1      -2.906   3.676   8.879  0.00  0.00    +0.159 HD
ATOM      9  H   UNL     1      -2.539   5.252   9.462  0.00  0.00    +0.159 HD
ENDROOT
BRANCH   1  10
ATOM     10  C   UNL     1      -1.304   1.884   7.975  0.00  0.00    +0.151 C 
BRANCH  10  11
ATOM     11  C   UNL     1      -0.442   0.763   7.463  0.00  0.00    -0.028 A 
ATOM     12  C   UNL     1      -0.984  -0.513   7.253  0.00  0.00    +0.005 A 
ATOM     13  C   UNL     1       0.916   0.973   7.179  0.00  0.00    +0.005 A 
ATOM     14  C   UNL     1      -0.191  -1.546   6.748  0.00  0.00    +0.000 A 
ATOM     15  C   UNL     1       1.705  -0.062   6.676  0.00  0.00    +0.000 A 
ATOM     16  C   UNL     1       1.150  -1.320   6.458  0.00  0.00    +0.000 A 
ENDBRANCH  10  11
ENDBRANCH   1  10
TORSDOF 2
ENDMDL
MODEL 4
REMARK VINA RESULT:    -5.152      3.517      4.758
REMARK INTER + INTRA:          -5.909
REMARK INTER:                  -5.757
REMARK INTRA:                  -0.152
REMARK UNBOUND:                -0.155
REMARK  Name = 1550473
REMARK  2 active torsions:
REMARK  status: ('A' for Active; 'I' for Inactive)
REMARK    1  A    between atoms: N_1  and  C_4
REMARK    2  A    between atoms: C_4  and  C_5
REMARK                            x       y       z     vdW  Elec       q    Type
REMARK                         _______ _______ _______ _____ _____    ______ ____
ROOT
ATOM      1  N   UNL     1       0.614   1.480   5.071  0.00  0.00    -0.354 N 
ATOM      2  N   UNL     1       2.905   1.324   5.380  0.00  0.00    -0.372 N 
ATOM      3  N   UNL     1       1.652  -0.598   5.383  0.00  0.00    -0.372 N 
ATOM      4  C   UNL     1       1.708   0.734   5.276  0.00  0.00    +0.166 C 
ATOM      5  H   UNL     1       0.720   2.488   5.030  0.00  0.00    +0.163 HD
ATOM      6  H   UNL     1       3.748   0.787   5.531  0.00  0.00    +0.159 HD
ATOM      7  H   UNL     1       3.013   2.327   5.292  0.00  0.00    +0.159 HD
ATOM      8  H   UNL     1       0.778  -1.104   5.320  0.00  0.00    +0.159 HD
ATOM      9  H   UNL     1       2.483  -1.152   5.546  0.00  0.00    +0.159 HD
ENDROOT
BRANCH   1  10
ATOM     10  C   UNL     1      -0.728   0.931   4.891  0.00  0.00    +0.151 C 
BRANCH  10  11
ATOM     11  C   UNL     1      -1.584   1.333   6.060  0.00  0.00    -0.028 A 
ATOM     12  C   UNL     1      -1.221   2.420   6.868  0.00  0.00    +0.005 A 
ATOM     13  C   UNL     1      -2.764   0.635   6.361  0.00  0.00    +0.005 A 
ATOM     14  C   UNL     1      -2.031   2.813   7.936  0.00  0.00    +0.000 A 
ATOM     15  C   UNL     1      -3.570   1.029   7.429  0.00  0.00    +0.000 A 
ATOM     16  C   UNL     1      -3.204   2.120   8.215  0.00  0.00    +0.000 A 
ENDBRANCH  10  11
ENDBRANCH   1  10
TORSDOF 2
ENDMDL
MODEL 5
REMARK VINA RESULT:    -5.116      3.495      4.671
REMARK INTER + INTRA:          -5.869
REMARK INTER:                  -5.720
REMARK INTRA:                  -0.149
REMARK UNBOUND:                -0.155
REMARK  Name = 1550473
REMARK  2 active torsions:
REMARK  status: ('A' for Active; 'I' for Inactive)
REMARK    1  A    between atoms: N_1  and  C_4
REMARK    2  A    between atoms: C_4  and  C_5
REMARK                            x       y       z     vdW  Elec       q    Type
REMARK                         _______ _______ _______ _____ _____    ______ ____
ROOT
ATOM      1  N   UNL     1       0.699   1.414   5.209  0.00  0.00    -0.354 N 
ATOM      2  N   UNL     1       3.004   1.408   5.440  0.00  0.00    -0.372 N 
ATOM      3  N   UNL     1       1.885  -0.595   5.431  0.00  0.00    -0.372 N 
ATOM      4  C   UNL     1       1.847   0.739   5.359  0.00  0.00    +0.166 C 
ATOM      5  H   UNL     1       0.735   2.426   5.192  0.00  0.00    +0.163 HD
ATOM      6  H   UNL     1       3.886   0.926   5.549  0.00  0.00    +0.159 HD
ATOM      7  H   UNL     1       3.041   2.418   5.376  0.00  0.00    +0.159 HD
ATOM      8  H   UNL     1       1.046  -1.158   5.382  0.00  0.00    +0.159 HD
ATOM      9  H   UNL     1       2.757  -1.095   5.552  0.00  0.00    +0.159 HD
ENDROOT
BRANCH   1  10
ATOM     10  C   UNL     1      -0.609   0.778   5.057  0.00  0.00    +0.151 C 
BRANCH  10  11
ATOM     11  C   UNL     1      -1.520   1.261   6.152  0.00  0.00    -0.028 A 
ATOM     12  C   UNL     1      -2.725   0.595   6.420  0.00  0.00    +0.005 A 
ATOM     13  C   UNL     1      -1.180   2.379   6.929  0.00  0.00    +0.005 A 
ATOM     14  C   UNL     1      -3.557   1.025   7.457  0.00  0.00    +0.000 A 
ATOM     15  C   UNL     1      -2.014   2.805   7.962  0.00  0.00    +0.000 A 
ATOM     16  C   UNL     1      -3.201   2.126   8.228  0.00  0.00    +0.000 A 
ENDBRANCH  10  11
ENDBRANCH   1  10
TORSDOF 2
ENDMDL
MODEL 6
REMARK VINA RESULT:    -4.953     15.348     16.948
REMARK INTER + INTRA:          -5.687
REMARK INTER:                  -5.550
REMARK INTRA:                  -0.138
REMARK UNBOUND:                -0.155
REMARK  Name = 1550473
REMARK  2 active torsions:
REMARK  status: ('A' for Active; 'I' for Inactive)
REMARK    1  A    between atoms: N_1  and  C_4
REMARK    2  A    between atoms: C_4  and  C_5
REMARK                            x       y       z     vdW  Elec       q    Type
REMARK                         _______ _______ _______ _____ _____    ______ ____
ROOT
ATOM      1  N   UNL     1      -7.784  -0.071  -5.331  0.00  0.00    -0.354 N 
ATOM      2  N   UNL     1      -6.811   0.892  -3.462  0.00  0.00    -0.372 N 
ATOM      3  N   UNL     1      -8.188   2.171  -4.779  0.00  0.00    -0.372 N 
ATOM      4  C   UNL     1      -7.602   0.993  -4.537  0.00  0.00    +0.166 C 
ATOM      5  H   UNL     1      -7.287  -0.926  -5.110  0.00  0.00    +0.163 HD
ATOM      6  H   UNL     1      -6.658   1.677  -2.843  0.00  0.00    +0.159 HD
ATOM      7  H   UNL     1      -6.353   0.023  -3.218  0.00  0.00    +0.159 HD
ATOM      8  H   UNL     1      -8.791   2.315  -5.578  0.00  0.00    +0.159 HD
ATOM      9  H   UNL     1      -8.037   2.971  -4.178  0.00  0.00    +0.159 HD
ENDROOT
BRANCH   1  10
ATOM     10  C   UNL     1      -8.667  -0.080  -6.496  0.00  0.00    +0.151 C 
BRANCH  10  11
ATOM     11  C   UNL     1      -7.954  -0.735  -7.647  0.00  0.00    -0.028 A 
ATOM     12  C   UNL     1      -8.436  -0.594  -8.956  0.00  0.00    +0.005 A 
ATOM     13  C   UNL     1      -6.791  -1.492  -7.435  0.00  0.00    +0.005 A 
ATOM     14  C   UNL     1      -7.757  -1.176 -10.029  0.00  0.00    +0.000 A 
ATOM     15  C   UNL     1      -6.117  -2.073  -8.509  0.00  0.00    +0.000 A 
ATOM     16  C   UNL     1      -6.599  -1.912  -9.806  0.00  0.00    +0.000 A 
ENDBRANCH  10  11
ENDBRANCH   1  10
TORSDOF 2
ENDMDL
MODEL 7
REMARK VINA RESULT:    -4.610     11.499     13.868
REMARK INTER + INTRA:          -5.304
REMARK INTER:                  -5.195
REMARK INTRA:                  -0.109
REMARK UNBOUND:                -0.155
REMARK  Name = 1550473
REMARK  2 active torsions:
REMARK  status: ('A' for Active; 'I' for Inactive)
REMARK    1  A    between atoms: N_1  and  C_4
REMARK    2  A    between atoms: C_4  and  C_5
REMARK                            x       y       z     vdW  Elec       q    Type
REMARK                         _______ _______ _______ _____ _____    ______ ____
ROOT
ATOM      1  N   UNL     1      -0.906  14.425  12.920  0.00  0.00    -0.354 N 
ATOM      2  N   UNL     1      -3.134  13.840  13.162  0.00  0.00    -0.372 N 
ATOM      3  N   UNL     1      -1.539  12.191  13.236  0.00  0.00    -0.372 N 
ATOM      4  C   UNL     1      -1.844  13.487  13.105  0.00  0.00    +0.166 C 
ATOM      5  H   UNL     1      -1.204  15.386  12.797  0.00  0.00    +0.163 HD
ATOM      6  H   UNL     1      -3.863  13.154  13.304  0.00  0.00    +0.159 HD
ATOM      7  H   UNL     1      -3.425  14.807  13.085  0.00  0.00    +0.159 HD
ATOM      8  H   UNL     1      -0.585  11.859  13.196  0.00  0.00    +0.159 HD
ATOM      9  H   UNL     1      -2.256  11.489  13.367  0.00  0.00    +0.159 HD
ENDROOT
BRANCH   1  10
ATOM     10  C   UNL     1       0.530  14.152  12.896  0.00  0.00    +0.151 C 
BRANCH  10  11
ATOM     11  C   UNL     1       1.276  15.454  12.793  0.00  0.00    -0.028 A 
ATOM     12  C   UNL     1       0.932  16.539  13.614  0.00  0.00    +0.005 A 
ATOM     13  C   UNL     1       2.331  15.608  11.881  0.00  0.00    +0.005 A 
ATOM     14  C   UNL     1       1.644  17.738  13.539  0.00  0.00    +0.000 A 
ATOM     15  C   UNL     1       3.039  16.808  11.809  0.00  0.00    +0.000 A 
ATOM     16  C   UNL     1       2.696  17.872  12.640  0.00  0.00    +0.000 A 
ENDBRANCH  10  11
ENDBRANCH   1  10
TORSDOF 2
ENDMDL
MODEL 8
REMARK VINA RESULT:    -4.435     12.907     15.040
REMARK INTER + INTRA:          -5.109
REMARK INTER:                  -4.998
REMARK INTRA:                  -0.111
REMARK UNBOUND:                -0.155
REMARK  Name = 1550473
REMARK  2 active torsions:
REMARK  status: ('A' for Active; 'I' for Inactive)
REMARK    1  A    between atoms: N_1  and  C_4
REMARK    2  A    between atoms: C_4  and  C_5
REMARK                            x       y       z     vdW  Elec       q    Type
REMARK                         _______ _______ _______ _____ _____    ______ ____
ROOT
ATOM      1  N   UNL     1       7.720   9.257  16.440  0.00  0.00    -0.354 N 
ATOM      2  N   UNL     1       8.086   7.115  15.638  0.00  0.00    -0.372 N 
ATOM      3  N   UNL     1       7.750   8.819  14.138  0.00  0.00    -0.372 N 
ATOM      4  C   UNL     1       7.849   8.412  15.408  0.00  0.00    +0.166 C 
ATOM      5  H   UNL     1       7.776   8.880  17.380  0.00  0.00    +0.163 HD
ATOM      6  H   UNL     1       8.191   6.455  14.879  0.00  0.00    +0.159 HD
ATOM      7  H   UNL     1       8.187   6.750  16.577  0.00  0.00    +0.159 HD
ATOM      8  H   UNL     1       7.566   9.784  13.898  0.00  0.00    +0.159 HD
ATOM      9  H   UNL     1       7.840   8.172  13.365  0.00  0.00    +0.159 HD
ENDROOT
BRANCH   1  10
ATOM     10  C   UNL     1       7.515  10.697  16.298  0.00  0.00    +0.151 C 
BRANCH  10  11
ATOM     11  C   UNL     1       6.839  11.221  17.535  0.00  0.00    -0.028 A 
ATOM     12  C   UNL     1       7.238  10.781  18.805  0.00  0.00    +0.005 A 
ATOM     13  C   UNL     1       5.803  12.163  17.443  0.00  0.00    +0.005 A 
ATOM     14  C   UNL     1       6.631  11.290  19.956  0.00  0.00    +0.000 A 
ATOM     15  C   UNL     1       5.199  12.669  18.594  0.00  0.00    +0.000 A 
ATOM     16  C   UNL     1       5.615  12.234  19.850  0.00  0.00    +0.000 A 
ENDBRANCH  10  11
ENDBRANCH   1  10
TORSDOF 2
ENDMDL
MODEL 9
REMARK VINA RESULT:    -4.400     17.985     19.081
REMARK INTER + INTRA:          -5.069
REMARK INTER:                  -4.900
REMARK INTRA:                  -0.169
REMARK UNBOUND:                -0.155
REMARK  Name = 1550473
REMARK  2 active torsions:
REMARK  status: ('A' for Active; 'I' for Inactive)
REMARK    1  A    between atoms: N_1  and  C_4
REMARK    2  A    between atoms: C_4  and  C_5
REMARK                            x       y       z     vdW  Elec       q    Type
REMARK                         _______ _______ _______ _____ _____    ______ ____
ROOT
ATOM      1  N   UNL     1     -10.268  -0.458  -6.846  0.00  0.00    -0.354 N 
ATOM      2  N   UNL     1     -11.668  -1.944  -5.752  0.00  0.00    -0.372 N 
ATOM      3  N   UNL     1     -12.077  -1.451  -7.955  0.00  0.00    -0.372 N 
ATOM      4  C   UNL     1     -11.330  -1.274  -6.861  0.00  0.00    +0.166 C 
ATOM      5  H   UNL     1      -9.761  -0.344  -5.976  0.00  0.00    +0.163 HD
ATOM      6  H   UNL     1     -12.462  -2.569  -5.734  0.00  0.00    +0.159 HD
ATOM      7  H   UNL     1     -11.132  -1.863  -4.897  0.00  0.00    +0.159 HD
ATOM      8  H   UNL     1     -11.879  -0.971  -8.823  0.00  0.00    +0.159 HD
ATOM      9  H   UNL     1     -12.883  -2.064  -7.954  0.00  0.00    +0.159 HD
ENDROOT
BRANCH   1  10
ATOM     10  C   UNL     1      -9.784   0.275  -8.014  0.00  0.00    +0.151 C 
BRANCH  10  11
ATOM     11  C   UNL     1      -8.653  -0.492  -8.641  0.00  0.00    -0.028 A 
ATOM     12  C   UNL     1      -8.562  -0.614 -10.036  0.00  0.00    +0.005 A 
ATOM     13  C   UNL     1      -7.666  -1.096  -7.847  0.00  0.00    +0.005 A 
ATOM     14  C   UNL     1      -7.495  -1.301 -10.620  0.00  0.00    +0.000 A 
ATOM     15  C   UNL     1      -6.603  -1.782  -8.434  0.00  0.00    +0.000 A 
ATOM     16  C   UNL     1      -6.516  -1.882  -9.821  0.00  0.00    +0.000 A 
ENDBRANCH  10  11
ENDBRANCH   1  10
TORSDOF 2
ENDMDL
