MODEL 1
REMARK VINA RESULT:    -5.613      0.000      0.000
REMARK INTER + INTRA:          -6.404
REMARK INTER:                  -6.269
REMARK INTRA:                  -0.135
REMARK UNBOUND:                -0.135
REMARK  Name = 1550473
REMARK  2 active torsions:
REMARK  status: ('A' for Active; 'I' for Inactive)
REMARK    1  A    between atoms: N_1  and  C_4
REMARK    2  A    between atoms: C_4  and  C_5
REMARK                            x       y       z     vdW  Elec       q    Type
REMARK                         _______ _______ _______ _____ _____    ______ ____
ROOT
ATOM      1  N   UNL     1       2.551  -1.273   1.855  0.00  0.00    -0.354 N 
ATOM      2  N   UNL     1       2.218  -2.407  -0.136  0.00  0.00    -0.372 N 
ATOM      3  N   UNL     1       0.521  -2.354   1.408  0.00  0.00    -0.372 N 
ATOM      4  C   UNL     1       1.763  -2.005   1.057  0.00  0.00    +0.166 C 
ATOM      5  H   UNL     1       3.494  -1.066   1.544  0.00  0.00    +0.163 HD
ATOM      6  H   UNL     1       1.645  -2.958  -0.762  0.00  0.00    +0.159 HD
ATOM      7  H   UNL     1       3.144  -2.161  -0.464  0.00  0.00    +0.159 HD
ATOM      8  H   UNL     1       0.121  -2.087   2.297  0.00  0.00    +0.159 HD
ATOM      9  H   UNL     1      -0.063  -2.915   0.800  0.00  0.00    +0.159 HD
ENDROOT
BRANCH   1  10
ATOM     10  C   UNL     1       2.133  -0.739   3.150  0.00  0.00    +0.151 C 
BRANCH  10  11
ATOM     11  C   UNL     1       2.139   0.764   3.087  0.00  0.00    -0.028 A 
ATOM     12  C   UNL     1       2.865   1.513   4.026  0.00  0.00    +0.005 A 
ATOM     13  C   UNL     1       1.426   1.444   2.089  0.00  0.00    +0.005 A 
ATOM     14  C   UNL     1       2.895   2.907   3.950  0.00  0.00    +0.000 A 
ATOM     15  C   UNL     1       1.458   2.837   2.017  0.00  0.00    +0.000 A 
ATOM     16  C   UNL     1       2.195   3.568   2.946  0.00  0.00    +0.000 A 
ENDBRANCH  10  11
ENDBRANCH   1  10
TORSDOF 2
ENDMDL
MODEL 2
REMARK VINA RESULT:    -5.506      3.867      5.225
REMARK INTER + INTRA:          -6.284
REMARK INTER:                  -6.133
REMARK INTRA:                  -0.152
REMARK UNBOUND:                -0.135
REMARK  Name = 1550473
REMARK  2 active torsions:
REMARK  status: ('A' for Active; 'I' for Inactive)
REMARK    1  A    between atoms: N_1  and  C_4
REMARK    2  A    between atoms: C_4  and  C_5
REMARK                            x       y       z     vdW  Elec       q    Type
REMARK                         _______ _______ _______ _____ _____    ______ ____
ROOT
ATOM      1  N   UNL     1       2.761   3.151   5.692  0.00  0.00    -0.354 N 
ATOM      2  N   UNL     1       2.104   2.987   7.906  0.00  0.00    -0.372 N 
ATOM      3  N   UNL     1       0.560   3.631   6.336  0.00  0.00    -0.372 N 
ATOM      4  C   UNL     1       1.810   3.259   6.629  0.00  0.00    +0.166 C 
ATOM      5  H   UNL     1       3.697   2.893   5.983  0.00  0.00    +0.163 HD
ATOM      6  H   UNL     1       1.407   3.056   8.635  0.00  0.00    +0.159 HD
ATOM      7  H   UNL     1       3.029   2.685   8.188  0.00  0.00    +0.159 HD
ATOM      8  H   UNL     1       0.275   3.856   5.392  0.00  0.00    +0.159 HD
ATOM      9  H   UNL     1      -0.149   3.718   7.054  0.00  0.00    +0.159 HD
ENDROOT
BRANCH   1  10
ATOM     10  C   UNL     1       2.532   3.372   4.265  0.00  0.00    +0.151 C 
BRANCH  10  11
ATOM     11  C   UNL     1       2.480   2.043   3.564  0.00  0.00    -0.028 A 
ATOM     12  C   UNL     1       3.144   0.929   4.099  0.00  0.00    +0.005 A 
ATOM     13  C   UNL     1       1.764   1.889   2.367  0.00  0.00    +0.005 A 
ATOM     14  C   UNL     1       3.071  -0.313   3.465  0.00  0.00    +0.000 A 
ATOM     15  C   UNL     1       1.694   0.647   1.736  0.00  0.00    +0.000 A 
ATOM     16  C   UNL     1       2.346  -0.454   2.286  0.00  0.00    +0.000 A 
ENDBRANCH  10  11
ENDBRANCH   1  10
TORSDOF 2
ENDMDL
MODEL 3
REMARK VINA RESULT:    -5.101     19.477     21.017
REMARK INTER + INTRA:          -5.832
REMARK INTER:                  -5.695
REMARK INTRA:                  -0.136
REMARK UNBOUND:                -0.135
REMARK  Name = 1550473
REMARK  2 active torsions:
REMARK  status: ('A' for Active; 'I' for Inactive)
REMARK    1  A    between atoms: N_1  and  C_4
REMARK    2  A    between atoms: C_4  and  C_5
REMARK                            x       y       z     vdW  Elec       q    Type
REMARK                         _______ _______ _______ _____ _____    ______ ____
ROOT
ATOM      1  N   UNL     1       7.437  17.001  15.914  0.00  0.00    -0.354 N 
ATOM      2  N   UNL     1       9.711  17.405  16.085  0.00  0.00    -0.372 N 
ATOM      3  N   UNL     1       8.913  15.318  16.607  0.00  0.00    -0.372 N 
ATOM      4  C   UNL     1       8.672  16.569  16.202  0.00  0.00    +0.166 C 
ATOM      5  H   UNL     1       7.317  17.970  15.642  0.00  0.00    +0.163 HD
ATOM      6  H   UNL     1      10.655  17.106  16.292  0.00  0.00    +0.159 HD
ATOM      7  H   UNL     1       9.594  18.360  15.769  0.00  0.00    +0.159 HD
ATOM      8  H   UNL     1       8.171  14.640  16.721  0.00  0.00    +0.159 HD
ATOM      9  H   UNL     1       9.849  15.004  16.830  0.00  0.00    +0.159 HD
ENDROOT
BRANCH   1  10
ATOM     10  C   UNL     1       6.245  16.156  15.957  0.00  0.00    +0.151 C 
BRANCH  10  11
ATOM     11  C   UNL     1       5.576  16.181  14.611  0.00  0.00    -0.028 A 
ATOM     12  C   UNL     1       5.432  17.387  13.910  0.00  0.00    +0.005 A 
ATOM     13  C   UNL     1       5.090  15.001  14.027  0.00  0.00    +0.005 A 
ATOM     14  C   UNL     1       4.838  17.407  12.645  0.00  0.00    +0.000 A 
ATOM     15  C   UNL     1       4.497  15.025  12.765  0.00  0.00    +0.000 A 
ATOM     16  C   UNL     1       4.373  16.227  12.073  0.00  0.00    +0.000 A 
ENDBRANCH  10  11
ENDBRANCH   1  10
TORSDOF 2
ENDMDL
MODEL 4
REMARK VINA RESULT:    -5.097      3.700      5.023
REMARK INTER + INTRA:          -5.827
REMARK INTER:                  -5.682
REMARK INTRA:                  -0.146
REMARK UNBOUND:                -0.135
REMARK  Name = 1550473
REMARK  2 active torsions:
REMARK  status: ('A' for Active; 'I' for Inactive)
REMARK    1  A    between atoms: N_1  and  C_4
REMARK    2  A    between atoms: C_4  and  C_5
REMARK                            x       y       z     vdW  Elec       q    Type
REMARK                         _______ _______ _______ _____ _____    ______ ____
ROOT
ATOM      1  N   UNL     1      -0.194   4.064   1.552  0.00  0.00    -0.354 N 
ATOM      2  N   UNL     1      -2.505   3.917   1.582  0.00  0.00    -0.372 N 
ATOM      3  N   UNL     1      -1.404   4.469   3.518  0.00  0.00    -0.372 N 
ATOM      4  C   UNL     1      -1.352   4.152   2.220  0.00  0.00    +0.166 C 
ATOM      5  H   UNL     1      -0.220   3.789   0.577  0.00  0.00    +0.163 HD
ATOM      6  H   UNL     1      -3.394   3.979   2.059  0.00  0.00    +0.159 HD
ATOM      7  H   UNL     1      -2.531   3.687   0.596  0.00  0.00    +0.159 HD
ATOM      8  H   UNL     1      -0.569   4.652   4.058  0.00  0.00    +0.159 HD
ATOM      9  H   UNL     1      -2.284   4.525   4.015  0.00  0.00    +0.159 HD
ENDROOT
BRANCH   1  10
ATOM     10  C   UNL     1       1.113   4.353   2.140  0.00  0.00    +0.151 C 
BRANCH  10  11
ATOM     11  C   UNL     1       1.733   3.067   2.614  0.00  0.00    -0.028 A 
ATOM     12  C   UNL     1       1.535   1.876   1.901  0.00  0.00    +0.005 A 
ATOM     13  C   UNL     1       2.525   3.035   3.772  0.00  0.00    +0.005 A 
ATOM     14  C   UNL     1       2.135   0.687   2.323  0.00  0.00    +0.000 A 
ATOM     15  C   UNL     1       3.122   1.846   4.191  0.00  0.00    +0.000 A 
ATOM     16  C   UNL     1       2.929   0.673   3.466  0.00  0.00    +0.000 A 
ENDBRANCH  10  11
ENDBRANCH   1  10
TORSDOF 2
ENDMDL
MODEL 5
REMARK VINA RESULT:    -5.072     17.984     19.225
REMARK INTER + INTRA:          -5.800
REMARK INTER:                  -5.682
REMARK INTRA:                  -0.118
REMARK UNBOUND:                -0.135
REMARK  Name = 1550473
REMARK  2 active torsions:
REMARK  status: ('A' for Active; 'I' for Inactive)
REMARK    1  A    between atoms: N_1  and  C_4
REMARK    2  A    between atoms: C_4  and  C_5
REMARK                            x       y       z     vdW  Elec       q    Type
REMARK                         _______ _______ _______ _____ _____    ______ ____
ROOT
ATOM      1  N   UNL     1     -14.628   0.347  -3.313  0.00  0.00    -0.354 N 
ATOM      2  N   UNL     1     -12.569   1.223  -2.717  0.00  0.00    -0.372 N 
ATOM      3  N   UNL     1     -13.438  -0.505  -1.483  0.00  0.00    -0.372 N 
ATOM      4  C   UNL     1     -13.559   0.347  -2.506  0.00  0.00    +0.166 C 
ATOM      5  H   UNL     1     -14.674   1.038  -4.053  0.00  0.00    +0.163 HD
ATOM      6  H   UNL     1     -11.748   1.245  -2.127  0.00  0.00    +0.159 HD
ATOM      7  H   UNL     1     -12.596   1.883  -3.485  0.00  0.00    +0.159 HD
ATOM      8  H   UNL     1     -14.153  -1.187  -1.267  0.00  0.00    +0.159 HD
ATOM      9  H   UNL     1     -12.630  -0.491  -0.874  0.00  0.00    +0.159 HD
ENDROOT
BRANCH   1  10
ATOM     10  C   UNL     1     -15.736  -0.601  -3.203  0.00  0.00    +0.151 C 
BRANCH  10  11
ATOM     11  C   UNL     1     -16.172  -1.010  -4.582  0.00  0.00    -0.028 A 
ATOM     12  C   UNL     1     -16.311  -0.054  -5.598  0.00  0.00    +0.005 A 
ATOM     13  C   UNL     1     -16.441  -2.355  -4.882  0.00  0.00    +0.005 A 
ATOM     14  C   UNL     1     -16.687  -0.438  -6.888  0.00  0.00    +0.000 A 
ATOM     15  C   UNL     1     -16.817  -2.734  -6.170  0.00  0.00    +0.000 A 
ATOM     16  C   UNL     1     -16.937  -1.776  -7.174  0.00  0.00    +0.000 A 
ENDBRANCH  10  11
ENDBRANCH   1  10
TORSDOF 2
ENDMDL
MODEL 6
REMARK VINA RESULT:    -5.059     16.298     16.900
REMARK INTER + INTRA:          -5.785
REMARK INTER:                  -5.652
REMARK INTRA:                  -0.133
REMARK UNBOUND:                -0.135
REMARK  Name = 1550473
REMARK  2 active torsions:
REMARK  status: ('A' for Active; 'I' for Inactive)
REMARK    1  A    between atoms: N_1  and  C_4
REMARK    2  A    between atoms: C_4  and  C_5
REMARK                            x       y       z     vdW  Elec       q    Type
REMARK                         _______ _______ _______ _____ _____    ______ ____
ROOT
ATOM      1  N   UNL     1     -14.913   1.071  -1.125  0.00  0.00    -0.354 N 
ATOM      2  N   UNL     1     -15.242  -0.815  -2.428  0.00  0.00    -0.372 N 
ATOM      3  N   UNL     1     -13.127  -0.345  -1.671  0.00  0.00    -0.372 N 
ATOM      4  C   UNL     1     -14.422  -0.018  -1.733  0.00  0.00    +0.166 C 
ATOM      5  H   UNL     1     -15.898   1.281  -1.234  0.00  0.00    +0.163 HD
ATOM      6  H   UNL     1     -14.902  -1.645  -2.895  0.00  0.00    +0.159 HD
ATOM      7  H   UNL     1     -16.235  -0.628  -2.498  0.00  0.00    +0.159 HD
ATOM      8  H   UNL     1     -12.456   0.218  -1.168  0.00  0.00    +0.159 HD
ATOM      9  H   UNL     1     -12.765  -1.166  -2.141  0.00  0.00    +0.159 HD
ENDROOT
BRANCH   1  10
ATOM     10  C   UNL     1     -14.115   1.975  -0.298  0.00  0.00    +0.151 C 
BRANCH  10  11
ATOM     11  C   UNL     1     -14.122   3.344  -0.921  0.00  0.00    -0.028 A 
ATOM     12  C   UNL     1     -14.355   4.482  -0.135  0.00  0.00    +0.005 A 
ATOM     13  C   UNL     1     -13.891   3.511  -2.295  0.00  0.00    +0.005 A 
ATOM     14  C   UNL     1     -14.332   5.756  -0.707  0.00  0.00    +0.000 A 
ATOM     15  C   UNL     1     -13.869   4.785  -2.862  0.00  0.00    +0.000 A 
ATOM     16  C   UNL     1     -14.088   5.907  -2.067  0.00  0.00    +0.000 A 
ENDBRANCH  10  11
ENDBRANCH   1  10
TORSDOF 2
ENDMDL
MODEL 7
REMARK VINA RESULT:    -5.050     18.381     19.708
REMARK INTER + INTRA:          -5.775
REMARK INTER:                  -5.638
REMARK INTRA:                  -0.137
REMARK UNBOUND:                -0.135
REMARK  Name = 1550473
REMARK  2 active torsions:
REMARK  status: ('A' for Active; 'I' for Inactive)
REMARK    1  A    between atoms: N_1  and  C_4
REMARK    2  A    between atoms: C_4  and  C_5
REMARK                            x       y       z     vdW  Elec       q    Type
REMARK                         _______ _______ _______ _____ _____    ______ ____
ROOT
ATOM      1  N   UNL     1       6.578  13.939  15.586  0.00  0.00    -0.354 N 
ATOM      2  N   UNL     1       8.278  12.382  15.808  0.00  0.00    -0.372 N 
ATOM      3  N   UNL     1       8.720  14.582  16.288  0.00  0.00    -0.372 N 
ATOM      4  C   UNL     1       7.849  13.647  15.893  0.00  0.00    +0.166 C 
ATOM      5  H   UNL     1       5.976  13.190  15.264  0.00  0.00    +0.163 HD
ATOM      6  H   UNL     1       9.231  12.131  16.037  0.00  0.00    +0.159 HD
ATOM      7  H   UNL     1       7.662  11.628  15.530  0.00  0.00    +0.159 HD
ATOM      8  H   UNL     1       8.460  15.556  16.367  0.00  0.00    +0.159 HD
ATOM      9  H   UNL     1       9.680  14.352  16.510  0.00  0.00    +0.159 HD
ENDROOT
BRANCH   1  10
ATOM     10  C   UNL     1       5.997  15.276  15.697  0.00  0.00    +0.151 C 
BRANCH  10  11
ATOM     11  C   UNL     1       5.367  15.649  14.383  0.00  0.00    -0.028 A 
ATOM     12  C   UNL     1       5.367  16.982  13.947  0.00  0.00    +0.005 A 
ATOM     13  C   UNL     1       4.775  14.672  13.568  0.00  0.00    +0.005 A 
ATOM     14  C   UNL     1       4.809  17.324  12.713  0.00  0.00    +0.000 A 
ATOM     15  C   UNL     1       4.218  15.018  12.336  0.00  0.00    +0.000 A 
ATOM     16  C   UNL     1       4.237  16.343  11.908  0.00  0.00    +0.000 A 
ENDBRANCH  10  11
ENDBRANCH   1  10
TORSDOF 2
ENDMDL
MODEL 8
REMARK VINA RESULT:    -4.928     17.539     18.872
REMARK INTER + INTRA:          -5.640
REMARK INTER:                  -5.499
REMARK INTRA:                  -0.141
REMARK UNBOUND:                -0.135
REMARK  Name = 1550473
REMARK  2 active torsions:
REMARK  status: ('A' for Active; 'I' for Inactive)
REMARK    1  A    between atoms: N_1  and  C_4
REMARK    2  A    between atoms: C_4  and  C_5
REMARK                            x       y       z     vdW  Elec       q    Type
REMARK                         _______ _______ _______ _____ _____    ______ ____
ROOT
ATOM      1  N   UNL     1       5.221  18.475   2.940  0.00  0.00    -0.354 N 
ATOM      2  N   UNL     1       3.330  19.104   1.761  0.00  0.00    -0.372 N 
ATOM      3  N   UNL     1       3.461  16.969   2.590  0.00  0.00    -0.372 N 
ATOM      4  C   UNL     1       4.016  18.176   2.438  0.00  0.00    +0.166 C 
ATOM      5  H   UNL     1       5.600  19.399   2.765  0.00  0.00    +0.163 HD
ATOM      6  H   UNL     1       2.417  18.909   1.373  0.00  0.00    +0.159 HD
ATOM      7  H   UNL     1       3.691  20.041   1.626  0.00  0.00    +0.159 HD
ATOM      8  H   UNL     1       3.929  16.222   3.086  0.00  0.00    +0.159 HD
ATOM      9  H   UNL     1       2.553  16.750   2.199  0.00  0.00    +0.159 HD
ENDROOT
BRANCH   1  10
ATOM     10  C   UNL     1       6.026  17.553   3.740  0.00  0.00    +0.151 C 
BRANCH  10  11
ATOM     11  C   UNL     1       6.549  18.279   4.949  0.00  0.00    -0.028 A 
ATOM     12  C   UNL     1       7.556  17.709   5.741  0.00  0.00    +0.005 A 
ATOM     13  C   UNL     1       6.044  19.539   5.305  0.00  0.00    +0.005 A 
ATOM     14  C   UNL     1       8.063  18.396   6.847  0.00  0.00    +0.000 A 
ATOM     15  C   UNL     1       6.552  20.221   6.410  0.00  0.00    +0.000 A 
ATOM     16  C   UNL     1       7.564  19.650   7.179  0.00  0.00    +0.000 A 
ENDBRANCH  10  11
ENDBRANCH   1  10
TORSDOF 2
ENDMDL
MODEL 9
REMARK VINA RESULT:    -4.646      3.409      4.238
REMARK INTER + INTRA:          -5.324
REMARK INTER:                  -5.158
REMARK INTRA:                  -0.166
REMARK UNBOUND:                -0.135
REMARK  Name = 1550473
REMARK  2 active torsions:
REMARK  status: ('A' for Active; 'I' for Inactive)
REMARK    1  A    between atoms: N_1  and  C_4
REMARK    2  A    between atoms: C_4  and  C_5
REMARK                            x       y       z     vdW  Elec       q    Type
REMARK                         _______ _______ _______ _____ _____    ______ ____
ROOT
ATOM      1  N   UNL     1      -0.459   0.350   6.251  0.00  0.00    -0.354 N 
ATOM      2  N   UNL     1      -0.040  -1.521   7.550  0.00  0.00    -0.372 N 
ATOM      3  N   UNL     1      -0.080  -1.742   5.267  0.00  0.00    -0.372 N 
ATOM      4  C   UNL     1      -0.196  -0.960   6.345  0.00  0.00    +0.166 C 
ATOM      5  H   UNL     1      -0.565   0.883   7.107  0.00  0.00    +0.163 HD
ATOM      6  H   UNL     1       0.163  -2.506   7.652  0.00  0.00    +0.159 HD
ATOM      7  H   UNL     1      -0.101  -0.977   8.403  0.00  0.00    +0.159 HD
ATOM      8  H   UNL     1      -0.193  -1.382   4.329  0.00  0.00    +0.159 HD
ATOM      9  H   UNL     1       0.110  -2.733   5.349  0.00  0.00    +0.159 HD
ENDROOT
BRANCH   1  10
ATOM     10  C   UNL     1      -0.594   1.069   4.985  0.00  0.00    +0.151 C 
BRANCH  10  11
ATOM     11  C   UNL     1       0.709   1.747   4.665  0.00  0.00    -0.028 A 
ATOM     12  C   UNL     1       1.172   1.813   3.342  0.00  0.00    +0.005 A 
ATOM     13  C   UNL     1       1.484   2.332   5.679  0.00  0.00    +0.005 A 
ATOM     14  C   UNL     1       2.367   2.469   3.040  0.00  0.00    +0.000 A 
ATOM     15  C   UNL     1       2.677   2.986   5.373  0.00  0.00    +0.000 A 
ATOM     16  C   UNL     1       3.117   3.056   4.054  0.00  0.00    +0.000 A 
ENDBRANCH  10  11
ENDBRANCH   1  10
TORSDOF 2
ENDMDL
