MODEL 1
REMARK VINA RESULT:    -4.763      0.000      0.000
REMARK INTER + INTRA:          -5.483
REMARK INTER:                  -5.320
REMARK INTRA:                  -0.163
REMARK UNBOUND:                -0.163
REMARK  Name = 1550473
REMARK  2 active torsions:
REMARK  status: ('A' for Active; 'I' for Inactive)
REMARK    1  A    between atoms: N_1  and  C_4
REMARK    2  A    between atoms: C_4  and  C_5
REMARK                            x       y       z     vdW  Elec       q    Type
REMARK                         _______ _______ _______ _____ _____    ______ ____
ROOT
ATOM      1  N   UNL     1      -9.488   7.988  16.843  0.00  0.00    -0.354 N 
ATOM      2  N   UNL     1     -10.907   8.991  15.313  0.00  0.00    -0.372 N 
ATOM      3  N   UNL     1     -11.094   9.549  17.531  0.00  0.00    -0.372 N 
ATOM      4  C   UNL     1     -10.488   8.837  16.575  0.00  0.00    +0.166 C 
ATOM      5  H   UNL     1      -9.090   7.455  16.078  0.00  0.00    +0.163 HD
ATOM      6  H   UNL     1     -11.658   9.628  15.079  0.00  0.00    +0.159 HD
ATOM      7  H   UNL     1     -10.477   8.492  14.544  0.00  0.00    +0.159 HD
ATOM      8  H   UNL     1     -10.829   9.474  18.504  0.00  0.00    +0.159 HD
ATOM      9  H   UNL     1     -11.855  10.182  17.318  0.00  0.00    +0.159 HD
ENDROOT
BRANCH   1  10
ATOM     10  C   UNL     1      -8.921   7.787  18.175  0.00  0.00    +0.151 C 
BRANCH  10  11
ATOM     11  C   UNL     1      -9.316   6.426  18.677  0.00  0.00    -0.028 A 
ATOM     12  C   UNL     1     -10.620   6.187  19.136  0.00  0.00    +0.005 A 
ATOM     13  C   UNL     1      -8.393   5.369  18.692  0.00  0.00    +0.005 A 
ATOM     14  C   UNL     1     -10.996   4.915  19.574  0.00  0.00    +0.000 A 
ATOM     15  C   UNL     1      -8.773   4.100  19.131  0.00  0.00    +0.000 A 
ATOM     16  C   UNL     1     -10.075   3.873  19.569  0.00  0.00    +0.000 A 
ENDBRANCH  10  11
ENDBRANCH   1  10
TORSDOF 2
ENDMDL
MODEL 2
REMARK VINA RESULT:    -4.667     19.030     20.681
REMARK INTER + INTRA:          -5.375
REMARK INTER:                  -5.253
REMARK INTRA:                  -0.122
REMARK UNBOUND:                -0.163
REMARK  Name = 1550473
REMARK  2 active torsions:
REMARK  status: ('A' for Active; 'I' for Inactive)
REMARK    1  A    between atoms: N_1  and  C_4
REMARK    2  A    between atoms: C_4  and  C_5
REMARK                            x       y       z     vdW  Elec       q    Type
REMARK                         _______ _______ _______ _____ _____    ______ ____
ROOT
ATOM      1  N   UNL     1      -4.520  11.200  -0.667  0.00  0.00    -0.354 N 
ATOM      2  N   UNL     1      -3.698  11.759   1.425  0.00  0.00    -0.372 N 
ATOM      3  N   UNL     1      -5.858  12.324   0.895  0.00  0.00    -0.372 N 
ATOM      4  C   UNL     1      -4.700  11.758   0.537  0.00  0.00    +0.166 C 
ATOM      5  H   UNL     1      -3.608  10.814  -0.887  0.00  0.00    +0.163 HD
ATOM      6  H   UNL     1      -3.805  12.169   2.343  0.00  0.00    +0.159 HD
ATOM      7  H   UNL     1      -2.803  11.332   1.219  0.00  0.00    +0.159 HD
ATOM      8  H   UNL     1      -6.651  12.362   0.268  0.00  0.00    +0.159 HD
ATOM      9  H   UNL     1      -5.981  12.751   1.804  0.00  0.00    +0.159 HD
ENDROOT
BRANCH   1  10
ATOM     10  C   UNL     1      -5.563  11.099  -1.686  0.00  0.00    +0.151 C 
BRANCH  10  11
ATOM     11  C   UNL     1      -5.527   9.724  -2.292  0.00  0.00    -0.028 A 
ATOM     12  C   UNL     1      -6.052   8.625  -1.596  0.00  0.00    +0.005 A 
ATOM     13  C   UNL     1      -4.974   9.513  -3.564  0.00  0.00    +0.005 A 
ATOM     14  C   UNL     1      -6.046   7.352  -2.171  0.00  0.00    +0.000 A 
ATOM     15  C   UNL     1      -4.969   8.240  -4.135  0.00  0.00    +0.000 A 
ATOM     16  C   UNL     1      -5.507   7.160  -3.439  0.00  0.00    +0.000 A 
ENDBRANCH  10  11
ENDBRANCH   1  10
TORSDOF 2
ENDMDL
MODEL 3
REMARK VINA RESULT:    -4.664     28.654     29.924
REMARK INTER + INTRA:          -5.372
REMARK INTER:                  -5.239
REMARK INTRA:                  -0.134
REMARK UNBOUND:                -0.163
REMARK  Name = 1550473
REMARK  2 active torsions:
REMARK  status: ('A' for Active; 'I' for Inactive)
REMARK    1  A    between atoms: N_1  and  C_4
REMARK    2  A    between atoms: C_4  and  C_5
REMARK                            x       y       z     vdW  Elec       q    Type
REMARK                         _______ _______ _______ _____ _____    ______ ____
ROOT
ATOM      1  N   UNL     1      -5.537 -19.427   1.878  0.00  0.00    -0.354 N 
ATOM      2  N   UNL     1      -4.236 -19.315  -0.035  0.00  0.00    -0.372 N 
ATOM      3  N   UNL     1      -3.463 -20.512   1.763  0.00  0.00    -0.372 N 
ATOM      4  C   UNL     1      -4.419 -19.753   1.216  0.00  0.00    +0.166 C 
ATOM      5  H   UNL     1      -6.210 -18.824   1.418  0.00  0.00    +0.163 HD
ATOM      6  H   UNL     1      -3.404 -19.548  -0.561  0.00  0.00    +0.159 HD
ATOM      7  H   UNL     1      -4.931 -18.750  -0.509  0.00  0.00    +0.159 HD
ATOM      8  H   UNL     1      -3.538 -20.869   2.706  0.00  0.00    +0.159 HD
ATOM      9  H   UNL     1      -2.618 -20.746   1.258  0.00  0.00    +0.159 HD
ENDROOT
BRANCH   1  10
ATOM     10  C   UNL     1      -5.858 -19.898   3.224  0.00  0.00    +0.151 C 
BRANCH  10  11
ATOM     11  C   UNL     1      -6.606 -18.818   3.957  0.00  0.00    -0.028 A 
ATOM     12  C   UNL     1      -7.250 -19.097   5.171  0.00  0.00    +0.005 A 
ATOM     13  C   UNL     1      -6.669 -17.513   3.444  0.00  0.00    +0.005 A 
ATOM     14  C   UNL     1      -7.920 -18.087   5.866  0.00  0.00    +0.000 A 
ATOM     15  C   UNL     1      -7.340 -16.508   4.142  0.00  0.00    +0.000 A 
ATOM     16  C   UNL     1      -7.963 -16.795   5.354  0.00  0.00    +0.000 A 
ENDBRANCH  10  11
ENDBRANCH   1  10
TORSDOF 2
ENDMDL
MODEL 4
REMARK VINA RESULT:    -4.604     30.307     31.490
REMARK INTER + INTRA:          -5.306
REMARK INTER:                  -5.162
REMARK INTRA:                  -0.144
REMARK UNBOUND:                -0.163
REMARK  Name = 1550473
REMARK  2 active torsions:
REMARK  status: ('A' for Active; 'I' for Inactive)
REMARK    1  A    between atoms: N_1  and  C_4
REMARK    2  A    between atoms: C_4  and  C_5
REMARK                            x       y       z     vdW  Elec       q    Type
REMARK                         _______ _______ _______ _____ _____    ______ ____
ROOT
ATOM      1  N   UNL     1      20.254   9.451  16.248  0.00  0.00    -0.354 N 
ATOM      2  N   UNL     1      20.495  11.053  14.593  0.00  0.00    -0.372 N 
ATOM      3  N   UNL     1      20.614   8.835  14.017  0.00  0.00    -0.372 N 
ATOM      4  C   UNL     1      20.453   9.767  14.962  0.00  0.00    +0.166 C 
ATOM      5  H   UNL     1      20.169  10.205  16.921  0.00  0.00    +0.163 HD
ATOM      6  H   UNL     1      20.641  11.321  13.629  0.00  0.00    +0.159 HD
ATOM      7  H   UNL     1      20.364  11.803  15.260  0.00  0.00    +0.159 HD
ATOM      8  H   UNL     1      20.599   7.847  14.231  0.00  0.00    +0.159 HD
ATOM      9  H   UNL     1      20.773   9.084  13.048  0.00  0.00    +0.159 HD
ENDROOT
BRANCH   1  10
ATOM     10  C   UNL     1      20.138   8.082  16.746  0.00  0.00    +0.151 C 
BRANCH  10  11
ATOM     11  C   UNL     1      21.266   7.810  17.703  0.00  0.00    -0.028 A 
ATOM     12  C   UNL     1      22.102   8.851  18.133  0.00  0.00    +0.005 A 
ATOM     13  C   UNL     1      21.501   6.514  18.187  0.00  0.00    +0.005 A 
ATOM     14  C   UNL     1      23.131   8.604  19.044  0.00  0.00    +0.000 A 
ATOM     15  C   UNL     1      22.531   6.271  19.096  0.00  0.00    +0.000 A 
ATOM     16  C   UNL     1      23.344   7.317  19.527  0.00  0.00    +0.000 A 
ENDBRANCH  10  11
ENDBRANCH   1  10
TORSDOF 2
ENDMDL
MODEL 5
REMARK VINA RESULT:    -4.449     31.097     31.944
REMARK INTER + INTRA:          -5.131
REMARK INTER:                  -4.988
REMARK INTRA:                  -0.143
REMARK UNBOUND:                -0.163
REMARK  Name = 1550473
REMARK  2 active torsions:
REMARK  status: ('A' for Active; 'I' for Inactive)
REMARK    1  A    between atoms: N_1  and  C_4
REMARK    2  A    between atoms: C_4  and  C_5
REMARK                            x       y       z     vdW  Elec       q    Type
REMARK                         _______ _______ _______ _____ _____    ______ ____
ROOT
ATOM      1  N   UNL     1      22.140   9.000  15.445  0.00  0.00    -0.354 N 
ATOM      2  N   UNL     1      22.359   8.536  13.187  0.00  0.00    -0.372 N 
ATOM      3  N   UNL     1      20.254   8.728  14.080  0.00  0.00    -0.372 N 
ATOM      4  C   UNL     1      21.580   8.757  14.252  0.00  0.00    +0.166 C 
ATOM      5  H   UNL     1      23.151   8.978  15.516  0.00  0.00    +0.163 HD
ATOM      6  H   UNL     1      21.966   8.354  12.273  0.00  0.00    +0.159 HD
ATOM      7  H   UNL     1      23.370   8.561  13.251  0.00  0.00    +0.159 HD
ATOM      8  H   UNL     1      19.611   8.882  14.845  0.00  0.00    +0.159 HD
ATOM      9  H   UNL     1      19.841   8.536  13.176  0.00  0.00    +0.159 HD
ENDROOT
BRANCH   1  10
ATOM     10  C   UNL     1      21.382   9.306  16.657  0.00  0.00    +0.151 C 
BRANCH  10  11
ATOM     11  C   UNL     1      21.806   8.368  17.752  0.00  0.00    -0.028 A 
ATOM     12  C   UNL     1      21.388   7.029  17.745  0.00  0.00    +0.005 A 
ATOM     13  C   UNL     1      22.631   8.809  18.798  0.00  0.00    +0.005 A 
ATOM     14  C   UNL     1      21.806   6.149  18.746  0.00  0.00    +0.000 A 
ATOM     15  C   UNL     1      23.046   7.928  19.796  0.00  0.00    +0.000 A 
ATOM     16  C   UNL     1      22.635   6.597  19.769  0.00  0.00    +0.000 A 
ENDBRANCH  10  11
ENDBRANCH   1  10
TORSDOF 2
ENDMDL
MODEL 6
REMARK VINA RESULT:    -4.414     30.651     31.961
REMARK INTER + INTRA:          -5.093
REMARK INTER:                  -4.915
REMARK INTRA:                  -0.178
REMARK UNBOUND:                -0.163
REMARK  Name = 1550473
REMARK  2 active torsions:
REMARK  status: ('A' for Active; 'I' for Inactive)
REMARK    1  A    between atoms: N_1  and  C_4
REMARK    2  A    between atoms: C_4  and  C_5
REMARK                            x       y       z     vdW  Elec       q    Type
REMARK                         _______ _______ _______ _____ _____    ______ ____
ROOT
ATOM      1  N   UNL     1      23.147   5.879  17.806  0.00  0.00    -0.354 N 
ATOM      2  N   UNL     1      22.898   3.592  18.078  0.00  0.00    -0.372 N 
ATOM      3  N   UNL     1      21.549   5.005  19.281  0.00  0.00    -0.372 N 
ATOM      4  C   UNL     1      22.531   4.841  18.389  0.00  0.00    +0.166 C 
ATOM      5  H   UNL     1      23.905   5.688  17.161  0.00  0.00    +0.163 HD
ATOM      6  H   UNL     1      22.449   2.790  18.498  0.00  0.00    +0.159 HD
ATOM      7  H   UNL     1      23.624   3.404  17.398  0.00  0.00    +0.159 HD
ATOM      8  H   UNL     1      21.229   5.923  19.563  0.00  0.00    +0.159 HD
ATOM      9  H   UNL     1      21.095   4.215  19.721  0.00  0.00    +0.159 HD
ENDROOT
BRANCH   1  10
ATOM     10  C   UNL     1      22.787   7.277  18.035  0.00  0.00    +0.151 C 
BRANCH  10  11
ATOM     11  C   UNL     1      21.857   7.729  16.944  0.00  0.00    -0.028 A 
ATOM     12  C   UNL     1      20.479   7.843  17.184  0.00  0.00    +0.005 A 
ATOM     13  C   UNL     1      22.346   8.051  15.669  0.00  0.00    +0.005 A 
ATOM     14  C   UNL     1      19.618   8.292  16.180  0.00  0.00    +0.000 A 
ATOM     15  C   UNL     1      21.483   8.498  14.669  0.00  0.00    +0.000 A 
ATOM     16  C   UNL     1      20.120   8.621  14.925  0.00  0.00    +0.000 A 
ENDBRANCH  10  11
ENDBRANCH   1  10
TORSDOF 2
ENDMDL
MODEL 7
REMARK VINA RESULT:    -4.366     22.342     22.932
REMARK INTER + INTRA:          -5.039
REMARK INTER:                  -4.894
REMARK INTRA:                  -0.144
REMARK UNBOUND:                -0.163
REMARK  Name = 1550473
REMARK  2 active torsions:
REMARK  status: ('A' for Active; 'I' for Inactive)
REMARK    1  A    between atoms: N_1  and  C_4
REMARK    2  A    between atoms: C_4  and  C_5
REMARK                            x       y       z     vdW  Elec       q    Type
REMARK                         _______ _______ _______ _____ _____    ______ ____
ROOT
ATOM      1  N   UNL     1      -4.911   8.359  -4.644  0.00  0.00    -0.354 N 
ATOM      2  N   UNL     1      -5.448   6.417  -5.787  0.00  0.00    -0.372 N 
ATOM      3  N   UNL     1      -5.311   6.355  -3.497  0.00  0.00    -0.372 N 
ATOM      4  C   UNL     1      -5.220   7.055  -4.633  0.00  0.00    +0.166 C 
ATOM      5  H   UNL     1      -4.828   8.826  -5.540  0.00  0.00    +0.163 HD
ATOM      6  H   UNL     1      -5.687   5.435  -5.809  0.00  0.00    +0.159 HD
ATOM      7  H   UNL     1      -5.410   6.897  -6.678  0.00  0.00    +0.159 HD
ATOM      8  H   UNL     1      -5.144   6.776  -2.593  0.00  0.00    +0.159 HD
ATOM      9  H   UNL     1      -5.536   5.368  -3.500  0.00  0.00    +0.159 HD
ENDROOT
BRANCH   1  10
ATOM     10  C   UNL     1      -4.696   9.159  -3.440  0.00  0.00    +0.151 C 
BRANCH  10  11
ATOM     11  C   UNL     1      -5.660  10.313  -3.438  0.00  0.00    -0.028 A 
ATOM     12  C   UNL     1      -7.041  10.087  -3.544  0.00  0.00    +0.005 A 
ATOM     13  C   UNL     1      -5.201  11.634  -3.325  0.00  0.00    +0.005 A 
ATOM     14  C   UNL     1      -7.939  11.157  -3.513  0.00  0.00    +0.000 A 
ATOM     15  C   UNL     1      -6.101  12.699  -3.295  0.00  0.00    +0.000 A 
ATOM     16  C   UNL     1      -7.470  12.460  -3.386  0.00  0.00    +0.000 A 
ENDBRANCH  10  11
ENDBRANCH   1  10
TORSDOF 2
ENDMDL
MODEL 8
REMARK VINA RESULT:    -4.295     22.953     24.046
REMARK INTER + INTRA:          -4.960
REMARK INTER:                  -4.787
REMARK INTRA:                  -0.173
REMARK UNBOUND:                -0.163
REMARK  Name = 1550473
REMARK  2 active torsions:
REMARK  status: ('A' for Active; 'I' for Inactive)
REMARK    1  A    between atoms: N_1  and  C_4
REMARK    2  A    between atoms: C_4  and  C_5
REMARK                            x       y       z     vdW  Elec       q    Type
REMARK                         _______ _______ _______ _____ _____    ______ ____
ROOT
ATOM      1  N   UNL     1      -6.158   8.239  -4.481  0.00  0.00    -0.354 N 
ATOM      2  N   UNL     1      -5.143   6.382  -3.539  0.00  0.00    -0.372 N 
ATOM      3  N   UNL     1      -5.462   6.440  -5.811  0.00  0.00    -0.372 N 
ATOM      4  C   UNL     1      -5.594   7.032  -4.619  0.00  0.00    +0.166 C 
ATOM      5  H   UNL     1      -6.256   8.620  -3.547  0.00  0.00    +0.163 HD
ATOM      6  H   UNL     1      -4.710   5.472  -3.613  0.00  0.00    +0.159 HD
ATOM      7  H   UNL     1      -5.201   6.786  -2.612  0.00  0.00    +0.159 HD
ATOM      8  H   UNL     1      -5.787   6.875  -6.664  0.00  0.00    +0.159 HD
ATOM      9  H   UNL     1      -5.041   5.523  -5.904  0.00  0.00    +0.159 HD
ENDROOT
BRANCH   1  10
ATOM     10  C   UNL     1      -6.633   9.053  -5.598  0.00  0.00    +0.151 C 
BRANCH  10  11
ATOM     11  C   UNL     1      -8.111   8.835  -5.771  0.00  0.00    -0.028 A 
ATOM     12  C   UNL     1      -8.631   8.434  -7.010  0.00  0.00    +0.005 A 
ATOM     13  C   UNL     1      -8.996   9.022  -4.698  0.00  0.00    +0.005 A 
ATOM     14  C   UNL     1     -10.001   8.202  -7.163  0.00  0.00    +0.000 A 
ATOM     15  C   UNL     1     -10.362   8.791  -4.855  0.00  0.00    +0.000 A 
ATOM     16  C   UNL     1     -10.864   8.379  -6.087  0.00  0.00    +0.000 A 
ENDBRANCH  10  11
ENDBRANCH   1  10
TORSDOF 2
ENDMDL
MODEL 9
REMARK VINA RESULT:    -4.120     18.219     19.741
REMARK INTER + INTRA:          -4.765
REMARK INTER:                  -4.609
REMARK INTRA:                  -0.156
REMARK UNBOUND:                -0.163
REMARK  Name = 1550473
REMARK  2 active torsions:
REMARK  status: ('A' for Active; 'I' for Inactive)
REMARK    1  A    between atoms: N_1  and  C_4
REMARK    2  A    between atoms: C_4  and  C_5
REMARK                            x       y       z     vdW  Elec       q    Type
REMARK                         _______ _______ _______ _____ _____    ______ ____
ROOT
ATOM      1  N   UNL     1      -7.217  15.506   2.274  0.00  0.00    -0.354 N 
ATOM      2  N   UNL     1      -9.346  15.949   1.480  0.00  0.00    -0.372 N 
ATOM      3  N   UNL     1      -8.297  14.017   0.822  0.00  0.00    -0.372 N 
ATOM      4  C   UNL     1      -8.272  15.152   1.529  0.00  0.00    +0.166 C 
ATOM      5  H   UNL     1      -7.248  16.393   2.763  0.00  0.00    +0.163 HD
ATOM      6  H   UNL     1     -10.159  15.707   0.929  0.00  0.00    +0.159 HD
ATOM      7  H   UNL     1      -9.393  16.813   2.006  0.00  0.00    +0.159 HD
ATOM      8  H   UNL     1      -7.516  13.375   0.812  0.00  0.00    +0.159 HD
ATOM      9  H   UNL     1      -9.097  13.764   0.255  0.00  0.00    +0.159 HD
ENDROOT
BRANCH   1  10
ATOM     10  C   UNL     1      -6.019  14.683   2.438  0.00  0.00    +0.151 C 
BRANCH  10  11
ATOM     11  C   UNL     1      -4.867  15.347   1.737  0.00  0.00    -0.028 A 
ATOM     12  C   UNL     1      -4.812  16.744   1.624  0.00  0.00    +0.005 A 
ATOM     13  C   UNL     1      -3.824  14.586   1.188  0.00  0.00    +0.005 A 
ATOM     14  C   UNL     1      -3.727  17.364   0.999  0.00  0.00    +0.000 A 
ATOM     15  C   UNL     1      -2.742  15.208   0.564  0.00  0.00    +0.000 A 
ATOM     16  C   UNL     1      -2.693  16.597   0.472  0.00  0.00    +0.000 A 
ENDBRANCH  10  11
ENDBRANCH   1  10
TORSDOF 2
ENDMDL
