MODEL 1
REMARK VINA RESULT:    -5.886      0.000      0.000
REMARK INTER + INTRA:          -6.680
REMARK INTER:                  -6.574
REMARK INTRA:                  -0.106
REMARK UNBOUND:                -0.106
REMARK  Name = 1550473
REMARK  2 active torsions:
REMARK  status: ('A' for Active; 'I' for Inactive)
REMARK    1  A    between atoms: N_1  and  C_4
REMARK    2  A    between atoms: C_4  and  C_5
REMARK                            x       y       z     vdW  Elec       q    Type
REMARK                         _______ _______ _______ _____ _____    ______ ____
ROOT
ATOM      1  N   UNL     1      -0.627  -5.599 -10.482  0.00  0.00    -0.354 N 
ATOM      2  N   UNL     1      -0.586  -3.969  -8.837  0.00  0.00    -0.372 N 
ATOM      3  N   UNL     1       0.467  -3.556 -10.834  0.00  0.00    -0.372 N 
ATOM      4  C   UNL     1      -0.247  -4.384 -10.064  0.00  0.00    +0.166 C 
ATOM      5  H   UNL     1      -1.141  -6.190  -9.840  0.00  0.00    +0.163 HD
ATOM      6  H   UNL     1      -0.316  -3.057  -8.495  0.00  0.00    +0.159 HD
ATOM      7  H   UNL     1      -1.139  -4.545  -8.214  0.00  0.00    +0.159 HD
ATOM      8  H   UNL     1       0.759  -3.812 -11.767  0.00  0.00    +0.159 HD
ATOM      9  H   UNL     1       0.756  -2.644 -10.505  0.00  0.00    +0.159 HD
ENDROOT
BRANCH   1  10
ATOM     10  C   UNL     1      -0.356  -6.125 -11.819  0.00  0.00    +0.151 C 
BRANCH  10  11
ATOM     11  C   UNL     1      -1.421  -7.124 -12.179  0.00  0.00    -0.028 A 
ATOM     12  C   UNL     1      -1.724  -8.185 -11.314  0.00  0.00    +0.005 A 
ATOM     13  C   UNL     1      -2.135  -7.011 -13.382  0.00  0.00    +0.005 A 
ATOM     14  C   UNL     1      -2.734  -9.096 -11.634  0.00  0.00    +0.000 A 
ATOM     15  C   UNL     1      -3.142  -7.923 -13.698  0.00  0.00    +0.000 A 
ATOM     16  C   UNL     1      -3.443  -8.963 -12.823  0.00  0.00    +0.000 A 
ENDBRANCH  10  11
ENDBRANCH   1  10
TORSDOF 2
ENDMDL
MODEL 2
REMARK VINA RESULT:    -5.708      2.347      3.195
REMARK INTER + INTRA:          -6.481
REMARK INTER:                  -6.374
REMARK INTRA:                  -0.107
REMARK UNBOUND:                -0.106
REMARK  Name = 1550473
REMARK  2 active torsions:
REMARK  status: ('A' for Active; 'I' for Inactive)
REMARK    1  A    between atoms: N_1  and  C_4
REMARK    2  A    between atoms: C_4  and  C_5
REMARK                            x       y       z     vdW  Elec       q    Type
REMARK                         _______ _______ _______ _____ _____    ______ ____
ROOT
ATOM      1  N   UNL     1       0.950  -6.657 -12.635  0.00  0.00    -0.354 N 
ATOM      2  N   UNL     1       3.178  -6.874 -13.231  0.00  0.00    -0.372 N 
ATOM      3  N   UNL     1       1.865  -5.378 -14.373  0.00  0.00    -0.372 N 
ATOM      4  C   UNL     1       1.982  -6.300 -13.411  0.00  0.00    +0.166 C 
ATOM      5  H   UNL     1       1.096  -7.384 -11.944  0.00  0.00    +0.163 HD
ATOM      6  H   UNL     1       3.976  -6.622 -13.799  0.00  0.00    +0.159 HD
ATOM      7  H   UNL     1       3.333  -7.567 -12.509  0.00  0.00    +0.159 HD
ATOM      8  H   UNL     1       0.988  -4.912 -14.564  0.00  0.00    +0.159 HD
ATOM      9  H   UNL     1       2.649  -5.121 -14.959  0.00  0.00    +0.159 HD
ENDROOT
BRANCH   1  10
ATOM     10  C   UNL     1      -0.380  -6.055 -12.714  0.00  0.00    +0.151 C 
BRANCH  10  11
ATOM     11  C   UNL     1      -1.416  -7.117 -12.472  0.00  0.00    -0.028 A 
ATOM     12  C   UNL     1      -2.374  -7.414 -13.452  0.00  0.00    +0.005 A 
ATOM     13  C   UNL     1      -1.441  -7.835 -11.266  0.00  0.00    +0.005 A 
ATOM     14  C   UNL     1      -3.318  -8.422 -13.240  0.00  0.00    +0.000 A 
ATOM     15  C   UNL     1      -2.386  -8.839 -11.057  0.00  0.00    +0.000 A 
ATOM     16  C   UNL     1      -3.322  -9.134 -12.045  0.00  0.00    +0.000 A 
ENDBRANCH  10  11
ENDBRANCH   1  10
TORSDOF 2
ENDMDL
MODEL 3
REMARK VINA RESULT:    -5.385      2.969      5.412
REMARK INTER + INTRA:          -6.120
REMARK INTER:                  -5.989
REMARK INTRA:                  -0.131
REMARK UNBOUND:                -0.106
REMARK  Name = 1550473
REMARK  2 active torsions:
REMARK  status: ('A' for Active; 'I' for Inactive)
REMARK    1  A    between atoms: N_1  and  C_4
REMARK    2  A    between atoms: C_4  and  C_5
REMARK                            x       y       z     vdW  Elec       q    Type
REMARK                         _______ _______ _______ _____ _____    ______ ____
ROOT
ATOM      1  N   UNL     1      -0.048  -6.688 -12.664  0.00  0.00    -0.354 N 
ATOM      2  N   UNL     1      -0.934  -8.822 -12.826  0.00  0.00    -0.372 N 
ATOM      3  N   UNL     1       1.327  -8.535 -13.095  0.00  0.00    -0.372 N 
ATOM      4  C   UNL     1       0.124  -8.001 -12.861  0.00  0.00    +0.166 C 
ATOM      5  H   UNL     1      -0.990  -6.341 -12.522  0.00  0.00    +0.163 HD
ATOM      6  H   UNL     1      -0.834  -9.818 -12.968  0.00  0.00    +0.159 HD
ATOM      7  H   UNL     1      -1.868  -8.479 -12.638  0.00  0.00    +0.159 HD
ATOM      8  H   UNL     1       2.164  -7.970 -13.140  0.00  0.00    +0.159 HD
ATOM      9  H   UNL     1       1.445  -9.529 -13.251  0.00  0.00    +0.159 HD
ENDROOT
BRANCH   1  10
ATOM     10  C   UNL     1       1.044  -5.716 -12.629  0.00  0.00    +0.151 C 
BRANCH  10  11
ATOM     11  C   UNL     1       0.729  -4.660 -11.606  0.00  0.00    -0.028 A 
ATOM     12  C   UNL     1       1.169  -3.340 -11.787  0.00  0.00    +0.005 A 
ATOM     13  C   UNL     1      -0.013  -4.971 -10.457  0.00  0.00    +0.005 A 
ATOM     14  C   UNL     1       0.851  -2.352 -10.852  0.00  0.00    +0.000 A 
ATOM     15  C   UNL     1      -0.328  -3.982  -9.525  0.00  0.00    +0.000 A 
ATOM     16  C   UNL     1       0.102  -2.672  -9.724  0.00  0.00    +0.000 A 
ENDBRANCH  10  11
ENDBRANCH   1  10
TORSDOF 2
ENDMDL
MODEL 4
REMARK VINA RESULT:    -5.356     21.711     22.777
REMARK INTER + INTRA:          -6.089
REMARK INTER:                  -5.920
REMARK INTRA:                  -0.169
REMARK UNBOUND:                -0.106
REMARK  Name = 1550473
REMARK  2 active torsions:
REMARK  status: ('A' for Active; 'I' for Inactive)
REMARK    1  A    between atoms: N_1  and  C_4
REMARK    2  A    between atoms: C_4  and  C_5
REMARK                            x       y       z     vdW  Elec       q    Type
REMARK                         _______ _______ _______ _____ _____    ______ ____
ROOT
ATOM      1  N   UNL     1     -11.843  13.211  -4.141  0.00  0.00    -0.354 N 
ATOM      2  N   UNL     1     -12.691  11.289  -3.166  0.00  0.00    -0.372 N 
ATOM      3  N   UNL     1     -13.430  11.893  -5.253  0.00  0.00    -0.372 N 
ATOM      4  C   UNL     1     -12.651  12.144  -4.196  0.00  0.00    +0.166 C 
ATOM      5  H   UNL     1     -11.300  13.362  -3.299  0.00  0.00    +0.163 HD
ATOM      6  H   UNL     1     -13.288  10.473  -3.180  0.00  0.00    +0.159 HD
ATOM      7  H   UNL     1     -12.112  11.417  -2.345  0.00  0.00    +0.159 HD
ATOM      8  H   UNL     1     -13.451  12.503  -6.059  0.00  0.00    +0.159 HD
ATOM      9  H   UNL     1     -14.043  11.088  -5.280  0.00  0.00    +0.159 HD
ENDROOT
BRANCH   1  10
ATOM     10  C   UNL     1     -11.685  14.173  -5.231  0.00  0.00    +0.151 C 
BRANCH  10  11
ATOM     11  C   UNL     1     -10.536  13.746  -6.101  0.00  0.00    -0.028 A 
ATOM     12  C   UNL     1     -10.766  13.265  -7.399  0.00  0.00    +0.005 A 
ATOM     13  C   UNL     1      -9.214  13.824  -5.637  0.00  0.00    +0.005 A 
ATOM     14  C   UNL     1      -9.697  12.896  -8.219  0.00  0.00    +0.000 A 
ATOM     15  C   UNL     1      -8.149  13.453  -6.458  0.00  0.00    +0.000 A 
ATOM     16  C   UNL     1      -8.391  12.992  -7.750  0.00  0.00    +0.000 A 
ENDBRANCH  10  11
ENDBRANCH   1  10
TORSDOF 2
ENDMDL
MODEL 5
REMARK VINA RESULT:    -5.328      4.499      4.661
REMARK INTER + INTRA:          -6.057
REMARK INTER:                  -5.877
REMARK INTRA:                  -0.180
REMARK UNBOUND:                -0.106
REMARK  Name = 1550473
REMARK  2 active torsions:
REMARK  status: ('A' for Active; 'I' for Inactive)
REMARK    1  A    between atoms: N_1  and  C_4
REMARK    2  A    between atoms: C_4  and  C_5
REMARK                            x       y       z     vdW  Elec       q    Type
REMARK                         _______ _______ _______ _____ _____    ______ ____
ROOT
ATOM      1  N   UNL     1       1.906  -4.055 -10.324  0.00  0.00    -0.354 N 
ATOM      2  N   UNL     1      -0.046  -3.875  -9.090  0.00  0.00    -0.372 N 
ATOM      3  N   UNL     1       0.514  -2.182 -10.534  0.00  0.00    -0.372 N 
ATOM      4  C   UNL     1       0.804  -3.369  -9.992  0.00  0.00    +0.166 C 
ATOM      5  H   UNL     1       2.084  -4.935  -9.854  0.00  0.00    +0.163 HD
ATOM      6  H   UNL     1      -0.887  -3.382  -8.822  0.00  0.00    +0.159 HD
ATOM      7  H   UNL     1       0.111  -4.776  -8.657  0.00  0.00    +0.159 HD
ATOM      8  H   UNL     1       1.118  -1.742 -11.216  0.00  0.00    +0.159 HD
ATOM      9  H   UNL     1      -0.317  -1.667 -10.270  0.00  0.00    +0.159 HD
ENDROOT
BRANCH   1  10
ATOM     10  C   UNL     1       2.868  -3.618 -11.334  0.00  0.00    +0.151 C 
BRANCH  10  11
ATOM     11  C   UNL     1       2.661  -4.420 -12.589  0.00  0.00    -0.028 A 
ATOM     12  C   UNL     1       3.260  -5.679 -12.736  0.00  0.00    +0.005 A 
ATOM     13  C   UNL     1       1.862  -3.928 -13.632  0.00  0.00    +0.005 A 
ATOM     14  C   UNL     1       3.044  -6.438 -13.889  0.00  0.00    +0.000 A 
ATOM     15  C   UNL     1       1.649  -4.688 -14.782  0.00  0.00    +0.000 A 
ATOM     16  C   UNL     1       2.238  -5.944 -14.909  0.00  0.00    +0.000 A 
ENDBRANCH  10  11
ENDBRANCH   1  10
TORSDOF 2
ENDMDL
MODEL 6
REMARK VINA RESULT:    -5.310      3.022      4.249
REMARK INTER + INTRA:          -6.037
REMARK INTER:                  -5.938
REMARK INTRA:                  -0.098
REMARK UNBOUND:                -0.106
REMARK  Name = 1550473
REMARK  2 active torsions:
REMARK  status: ('A' for Active; 'I' for Inactive)
REMARK    1  A    between atoms: N_1  and  C_4
REMARK    2  A    between atoms: C_4  and  C_5
REMARK                            x       y       z     vdW  Elec       q    Type
REMARK                         _______ _______ _______ _____ _____    ______ ____
ROOT
ATOM      1  N   UNL     1       0.377  -4.207 -10.887  0.00  0.00    -0.354 N 
ATOM      2  N   UNL     1       0.439  -2.743  -9.092  0.00  0.00    -0.372 N 
ATOM      3  N   UNL     1      -0.536  -4.802  -8.812  0.00  0.00    -0.372 N 
ATOM      4  C   UNL     1       0.091  -3.929  -9.607  0.00  0.00    +0.166 C 
ATOM      5  H   UNL     1       0.827  -3.491 -11.446  0.00  0.00    +0.163 HD
ATOM      6  H   UNL     1       0.240  -2.507  -8.130  0.00  0.00    +0.159 HD
ATOM      7  H   UNL     1       0.930  -2.047  -9.641  0.00  0.00    +0.159 HD
ATOM      8  H   UNL     1      -0.830  -5.711  -9.141  0.00  0.00    +0.159 HD
ATOM      9  H   UNL     1      -0.754  -4.579  -7.849  0.00  0.00    +0.159 HD
ENDROOT
BRANCH   1  10
ATOM     10  C   UNL     1       0.090  -5.488 -11.529  0.00  0.00    +0.151 C 
BRANCH  10  11
ATOM     11  C   UNL     1       0.960  -5.633 -12.747  0.00  0.00    -0.028 A 
ATOM     12  C   UNL     1       0.833  -4.741 -13.822  0.00  0.00    +0.005 A 
ATOM     13  C   UNL     1       1.916  -6.656 -12.830  0.00  0.00    +0.005 A 
ATOM     14  C   UNL     1       1.661  -4.857 -14.941  0.00  0.00    +0.000 A 
ATOM     15  C   UNL     1       2.741  -6.769 -13.949  0.00  0.00    +0.000 A 
ATOM     16  C   UNL     1       2.615  -5.868 -15.003  0.00  0.00    +0.000 A 
ENDBRANCH  10  11
ENDBRANCH   1  10
TORSDOF 2
ENDMDL
MODEL 7
REMARK VINA RESULT:    -5.245     16.262     18.293
REMARK INTER + INTRA:          -5.964
REMARK INTER:                  -5.833
REMARK INTRA:                  -0.131
REMARK UNBOUND:                -0.106
REMARK  Name = 1550473
REMARK  2 active torsions:
REMARK  status: ('A' for Active; 'I' for Inactive)
REMARK    1  A    between atoms: N_1  and  C_4
REMARK    2  A    between atoms: C_4  and  C_5
REMARK                            x       y       z     vdW  Elec       q    Type
REMARK                         _______ _______ _______ _____ _____    ______ ____
ROOT
ATOM      1  N   UNL     1       7.302   7.217 -11.155  0.00  0.00    -0.354 N 
ATOM      2  N   UNL     1       5.045   7.257 -11.676  0.00  0.00    -0.372 N 
ATOM      3  N   UNL     1       6.410   8.891 -12.532  0.00  0.00    -0.372 N 
ATOM      4  C   UNL     1       6.268   7.790 -11.786  0.00  0.00    +0.166 C 
ATOM      5  H   UNL     1       7.123   6.401 -10.581  0.00  0.00    +0.163 HD
ATOM      6  H   UNL     1       4.247   7.665 -12.143  0.00  0.00    +0.159 HD
ATOM      7  H   UNL     1       4.878   6.415 -11.138  0.00  0.00    +0.159 HD
ATOM      8  H   UNL     1       7.306   9.346 -12.650  0.00  0.00    +0.159 HD
ATOM      9  H   UNL     1       5.621   9.321 -12.997  0.00  0.00    +0.159 HD
ENDROOT
BRANCH   1  10
ATOM     10  C   UNL     1       8.682   7.687 -11.253  0.00  0.00    +0.151 C 
BRANCH  10  11
ATOM     11  C   UNL     1       9.156   8.108  -9.890  0.00  0.00    -0.028 A 
ATOM     12  C   UNL     1       8.289   8.057  -8.788  0.00  0.00    +0.005 A 
ATOM     13  C   UNL     1      10.472   8.554  -9.691  0.00  0.00    +0.005 A 
ATOM     14  C   UNL     1       8.737   8.420  -7.515  0.00  0.00    +0.000 A 
ATOM     15  C   UNL     1      10.915   8.915  -8.419  0.00  0.00    +0.000 A 
ATOM     16  C   UNL     1      10.048   8.846  -7.331  0.00  0.00    +0.000 A 
ENDBRANCH  10  11
ENDBRANCH   1  10
TORSDOF 2
ENDMDL
MODEL 8
REMARK VINA RESULT:    -5.197     30.102     30.787
REMARK INTER + INTRA:          -5.910
REMARK INTER:                  -5.802
REMARK INTRA:                  -0.108
REMARK UNBOUND:                -0.106
REMARK  Name = 1550473
REMARK  2 active torsions:
REMARK  status: ('A' for Active; 'I' for Inactive)
REMARK    1  A    between atoms: N_1  and  C_4
REMARK    2  A    between atoms: C_4  and  C_5
REMARK                            x       y       z     vdW  Elec       q    Type
REMARK                         _______ _______ _______ _____ _____    ______ ____
ROOT
ATOM      1  N   UNL     1      12.151   9.657  11.435  0.00  0.00    -0.354 N 
ATOM      2  N   UNL     1      13.793  11.270  11.693  0.00  0.00    -0.372 N 
ATOM      3  N   UNL     1      12.520  11.280   9.785  0.00  0.00    -0.372 N 
ATOM      4  C   UNL     1      12.810  10.726  10.967  0.00  0.00    +0.166 C 
ATOM      5  H   UNL     1      12.439   9.266  12.324  0.00  0.00    +0.163 HD
ATOM      6  H   UNL     1      14.305  12.079  11.368  0.00  0.00    +0.159 HD
ATOM      7  H   UNL     1      14.048  10.905  12.603  0.00  0.00    +0.159 HD
ATOM      8  H   UNL     1      11.793  10.913   9.185  0.00  0.00    +0.159 HD
ATOM      9  H   UNL     1      13.029  12.083   9.436  0.00  0.00    +0.159 HD
ENDROOT
BRANCH   1  10
ATOM     10  C   UNL     1      11.029   9.022  10.746  0.00  0.00    +0.151 C 
BRANCH  10  11
ATOM     11  C   UNL     1      10.061   8.494  11.768  0.00  0.00    -0.028 A 
ATOM     12  C   UNL     1      10.063   7.135  12.116  0.00  0.00    +0.005 A 
ATOM     13  C   UNL     1       9.142   9.349  12.397  0.00  0.00    +0.005 A 
ATOM     14  C   UNL     1       9.184   6.650  13.087  0.00  0.00    +0.000 A 
ATOM     15  C   UNL     1       8.266   8.860  13.365  0.00  0.00    +0.000 A 
ATOM     16  C   UNL     1       8.288   7.512  13.712  0.00  0.00    +0.000 A 
ENDBRANCH  10  11
ENDBRANCH   1  10
TORSDOF 2
ENDMDL
MODEL 9
REMARK VINA RESULT:    -5.044     14.274     17.287
REMARK INTER + INTRA:          -5.739
REMARK INTER:                  -5.646
REMARK INTRA:                  -0.094
REMARK UNBOUND:                -0.106
REMARK  Name = 1550473
REMARK  2 active torsions:
REMARK  status: ('A' for Active; 'I' for Inactive)
REMARK    1  A    between atoms: N_1  and  C_4
REMARK    2  A    between atoms: C_4  and  C_5
REMARK                            x       y       z     vdW  Elec       q    Type
REMARK                         _______ _______ _______ _____ _____    ______ ____
ROOT
ATOM      1  N   UNL     1       6.427   6.383 -11.357  0.00  0.00    -0.354 N 
ATOM      2  N   UNL     1       5.284   4.693 -12.453  0.00  0.00    -0.372 N 
ATOM      3  N   UNL     1       4.384   6.803 -12.426  0.00  0.00    -0.372 N 
ATOM      4  C   UNL     1       5.370   5.973 -12.072  0.00  0.00    +0.166 C 
ATOM      5  H   UNL     1       7.126   5.697 -11.095  0.00  0.00    +0.163 HD
ATOM      6  H   UNL     1       4.500   4.355 -12.996  0.00  0.00    +0.159 HD
ATOM      7  H   UNL     1       6.007   4.020 -12.229  0.00  0.00    +0.159 HD
ATOM      8  H   UNL     1       4.387   7.780 -12.164  0.00  0.00    +0.159 HD
ATOM      9  H   UNL     1       3.586   6.481 -12.958  0.00  0.00    +0.159 HD
ENDROOT
BRANCH   1  10
ATOM     10  C   UNL     1       6.644   7.766 -10.939  0.00  0.00    +0.151 C 
BRANCH  10  11
ATOM     11  C   UNL     1       8.009   7.884 -10.319  0.00  0.00    -0.028 A 
ATOM     12  C   UNL     1       9.155   7.928 -11.126  0.00  0.00    +0.005 A 
ATOM     13  C   UNL     1       8.163   7.959  -8.927  0.00  0.00    +0.005 A 
ATOM     14  C   UNL     1      10.422   8.067 -10.553  0.00  0.00    +0.000 A 
ATOM     15  C   UNL     1       9.429   8.097  -8.358  0.00  0.00    +0.000 A 
ATOM     16  C   UNL     1      10.558   8.154  -9.172  0.00  0.00    +0.000 A 
ENDBRANCH  10  11
ENDBRANCH   1  10
TORSDOF 2
ENDMDL
