MODEL 1
REMARK VINA RESULT:    -6.089      0.000      0.000
REMARK INTER + INTRA:          -6.893
REMARK INTER:                  -6.801
REMARK INTRA:                  -0.092
REMARK UNBOUND:                -0.092
REMARK  Name = 1550473
REMARK  2 active torsions:
REMARK  status: ('A' for Active; 'I' for Inactive)
REMARK    1  A    between atoms: N_1  and  C_4
REMARK    2  A    between atoms: C_4  and  C_5
REMARK                            x       y       z     vdW  Elec       q    Type
REMARK                         _______ _______ _______ _____ _____    ______ ____
ROOT
ATOM      1  N   UNL     1      10.625   1.080   1.749  0.00  0.00    -0.354 N 
ATOM      2  N   UNL     1      11.486   3.082   2.533  0.00  0.00    -0.372 N 
ATOM      3  N   UNL     1      12.286   2.228   0.560  0.00  0.00    -0.372 N 
ATOM      4  C   UNL     1      11.462   2.117   1.607  0.00  0.00    +0.166 C 
ATOM      5  H   UNL     1      10.047   1.039   2.581  0.00  0.00    +0.163 HD
ATOM      6  H   UNL     1      12.104   3.878   2.451  0.00  0.00    +0.159 HD
ATOM      7  H   UNL     1      10.875   3.062   3.340  0.00  0.00    +0.159 HD
ATOM      8  H   UNL     1      12.320   1.530  -0.171  0.00  0.00    +0.159 HD
ATOM      9  H   UNL     1      12.920   3.012   0.465  0.00  0.00    +0.159 HD
ENDROOT
BRANCH   1  10
ATOM     10  C   UNL     1      10.483   0.004   0.771  0.00  0.00    +0.151 C 
BRANCH  10  11
ATOM     11  C   UNL     1       9.583  -1.060   1.338  0.00  0.00    -0.028 A 
ATOM     12  C   UNL     1      10.096  -2.039   2.202  0.00  0.00    +0.005 A 
ATOM     13  C   UNL     1       8.217  -1.091   1.020  0.00  0.00    +0.005 A 
ATOM     14  C   UNL     1       9.255  -3.009   2.753  0.00  0.00    +0.000 A 
ATOM     15  C   UNL     1       7.381  -2.062   1.571  0.00  0.00    +0.000 A 
ATOM     16  C   UNL     1       7.900  -3.019   2.440  0.00  0.00    +0.000 A 
ENDBRANCH  10  11
ENDBRANCH   1  10
TORSDOF 2
ENDMDL
MODEL 2
REMARK VINA RESULT:    -5.962     27.405     28.146
REMARK INTER + INTRA:          -6.751
REMARK INTER:                  -6.582
REMARK INTRA:                  -0.169
REMARK UNBOUND:                -0.092
REMARK  Name = 1550473
REMARK  2 active torsions:
REMARK  status: ('A' for Active; 'I' for Inactive)
REMARK    1  A    between atoms: N_1  and  C_4
REMARK    2  A    between atoms: C_4  and  C_5
REMARK                            x       y       z     vdW  Elec       q    Type
REMARK                         _______ _______ _______ _____ _____    ______ ____
ROOT
ATOM      1  N   UNL     1     -16.952   4.902  -5.885  0.00  0.00    -0.354 N 
ATOM      2  N   UNL     1     -15.413   6.405  -5.027  0.00  0.00    -0.372 N 
ATOM      3  N   UNL     1     -17.167   5.739  -3.707  0.00  0.00    -0.372 N 
ATOM      4  C   UNL     1     -16.523   5.672  -4.877  0.00  0.00    +0.166 C 
ATOM      5  H   UNL     1     -16.435   4.918  -6.757  0.00  0.00    +0.163 HD
ATOM      6  H   UNL     1     -15.063   6.993  -4.283  0.00  0.00    +0.159 HD
ATOM      7  H   UNL     1     -14.873   6.384  -5.884  0.00  0.00    +0.159 HD
ATOM      8  H   UNL     1     -18.014   5.215  -3.532  0.00  0.00    +0.159 HD
ATOM      9  H   UNL     1     -16.839   6.330  -2.954  0.00  0.00    +0.159 HD
ENDROOT
BRANCH   1  10
ATOM     10  C   UNL     1     -18.118   4.025  -5.805  0.00  0.00    +0.151 C 
BRANCH  10  11
ATOM     11  C   UNL     1     -17.656   2.594  -5.779  0.00  0.00    -0.028 A 
ATOM     12  C   UNL     1     -17.227   1.963  -6.956  0.00  0.00    +0.005 A 
ATOM     13  C   UNL     1     -17.640   1.865  -4.580  0.00  0.00    +0.005 A 
ATOM     14  C   UNL     1     -16.769   0.643  -6.928  0.00  0.00    +0.000 A 
ATOM     15  C   UNL     1     -17.183   0.547  -4.556  0.00  0.00    +0.000 A 
ATOM     16  C   UNL     1     -16.745  -0.062  -5.729  0.00  0.00    +0.000 A 
ENDBRANCH  10  11
ENDBRANCH   1  10
TORSDOF 2
ENDMDL
MODEL 3
REMARK VINA RESULT:    -5.785     17.460     18.422
REMARK INTER + INTRA:          -6.553
REMARK INTER:                  -6.435
REMARK INTRA:                  -0.118
REMARK UNBOUND:                -0.092
REMARK  Name = 1550473
REMARK  2 active torsions:
REMARK  status: ('A' for Active; 'I' for Inactive)
REMARK    1  A    between atoms: N_1  and  C_4
REMARK    2  A    between atoms: C_4  and  C_5
REMARK                            x       y       z     vdW  Elec       q    Type
REMARK                         _______ _______ _______ _____ _____    ______ ____
ROOT
ATOM      1  N   UNL     1      -7.116   6.680   3.814  0.00  0.00    -0.354 N 
ATOM      2  N   UNL     1      -6.051   5.968   1.884  0.00  0.00    -0.372 N 
ATOM      3  N   UNL     1      -4.973   7.451   3.264  0.00  0.00    -0.372 N 
ATOM      4  C   UNL     1      -6.052   6.706   3.001  0.00  0.00    +0.166 C 
ATOM      5  H   UNL     1      -7.915   6.118   3.543  0.00  0.00    +0.163 HD
ATOM      6  H   UNL     1      -5.261   5.965   1.253  0.00  0.00    +0.159 HD
ATOM      7  H   UNL     1      -6.833   5.372   1.639  0.00  0.00    +0.159 HD
ATOM      8  H   UNL     1      -4.913   8.035   4.087  0.00  0.00    +0.159 HD
ATOM      9  H   UNL     1      -4.177   7.471   2.638  0.00  0.00    +0.159 HD
ENDROOT
BRANCH   1  10
ATOM     10  C   UNL     1      -7.195   7.405   5.081  0.00  0.00    +0.151 C 
BRANCH  10  11
ATOM     11  C   UNL     1      -7.087   6.424   6.216  0.00  0.00    -0.028 A 
ATOM     12  C   UNL     1      -6.963   6.876   7.538  0.00  0.00    +0.005 A 
ATOM     13  C   UNL     1      -7.113   5.042   5.976  0.00  0.00    +0.005 A 
ATOM     14  C   UNL     1      -6.893   5.965   8.595  0.00  0.00    +0.000 A 
ATOM     15  C   UNL     1      -7.041   4.136   7.034  0.00  0.00    +0.000 A 
ATOM     16  C   UNL     1      -6.934   4.598   8.344  0.00  0.00    +0.000 A 
ENDBRANCH  10  11
ENDBRANCH   1  10
TORSDOF 2
ENDMDL
MODEL 4
REMARK VINA RESULT:    -5.491     18.664     19.656
REMARK INTER + INTRA:          -6.226
REMARK INTER:                  -6.072
REMARK INTRA:                  -0.153
REMARK UNBOUND:                -0.092
REMARK  Name = 1550473
REMARK  2 active torsions:
REMARK  status: ('A' for Active; 'I' for Inactive)
REMARK    1  A    between atoms: N_1  and  C_4
REMARK    2  A    between atoms: C_4  and  C_5
REMARK                            x       y       z     vdW  Elec       q    Type
REMARK                         _______ _______ _______ _____ _____    ______ ____
ROOT
ATOM      1  N   UNL     1      -6.589   8.282   4.216  0.00  0.00    -0.354 N 
ATOM      2  N   UNL     1      -7.925   7.488   2.498  0.00  0.00    -0.372 N 
ATOM      3  N   UNL     1      -6.567   6.016   3.618  0.00  0.00    -0.372 N 
ATOM      4  C   UNL     1      -7.017   7.265   3.456  0.00  0.00    +0.166 C 
ATOM      5  H   UNL     1      -6.946   9.210   4.023  0.00  0.00    +0.163 HD
ATOM      6  H   UNL     1      -8.269   6.740   1.911  0.00  0.00    +0.159 HD
ATOM      7  H   UNL     1      -8.314   8.409   2.338  0.00  0.00    +0.159 HD
ATOM      8  H   UNL     1      -5.877   5.782   4.319  0.00  0.00    +0.159 HD
ATOM      9  H   UNL     1      -6.891   5.256   3.033  0.00  0.00    +0.159 HD
ENDROOT
BRANCH   1  10
ATOM     10  C   UNL     1      -5.643   8.135   5.320  0.00  0.00    +0.151 C 
BRANCH  10  11
ATOM     11  C   UNL     1      -6.350   8.428   6.615  0.00  0.00    -0.028 A 
ATOM     12  C   UNL     1      -6.557   7.411   7.559  0.00  0.00    +0.005 A 
ATOM     13  C   UNL     1      -6.810   9.721   6.906  0.00  0.00    +0.005 A 
ATOM     14  C   UNL     1      -7.187   7.689   8.774  0.00  0.00    +0.000 A 
ATOM     15  C   UNL     1      -7.440   9.995   8.121  0.00  0.00    +0.000 A 
ATOM     16  C   UNL     1      -7.626   8.979   9.055  0.00  0.00    +0.000 A 
ENDBRANCH  10  11
ENDBRANCH   1  10
TORSDOF 2
ENDMDL
MODEL 5
REMARK VINA RESULT:    -5.343     17.683     18.621
REMARK INTER + INTRA:          -6.061
REMARK INTER:                  -5.894
REMARK INTRA:                  -0.167
REMARK UNBOUND:                -0.092
REMARK  Name = 1550473
REMARK  2 active torsions:
REMARK  status: ('A' for Active; 'I' for Inactive)
REMARK    1  A    between atoms: N_1  and  C_4
REMARK    2  A    between atoms: C_4  and  C_5
REMARK                            x       y       z     vdW  Elec       q    Type
REMARK                         _______ _______ _______ _____ _____    ______ ____
ROOT
ATOM      1  N   UNL     1      -6.230   8.173   4.330  0.00  0.00    -0.354 N 
ATOM      2  N   UNL     1      -7.936   9.319   3.262  0.00  0.00    -0.372 N 
ATOM      3  N   UNL     1      -7.564   7.121   2.716  0.00  0.00    -0.372 N 
ATOM      4  C   UNL     1      -7.232   8.194   3.441  0.00  0.00    +0.166 C 
ATOM      5  H   UNL     1      -6.008   9.029   4.826  0.00  0.00    +0.163 HD
ATOM      6  H   UNL     1      -8.700   9.364   2.601  0.00  0.00    +0.159 HD
ATOM      7  H   UNL     1      -7.742  10.159   3.793  0.00  0.00    +0.159 HD
ATOM      8  H   UNL     1      -7.068   6.244   2.800  0.00  0.00    +0.159 HD
ATOM      9  H   UNL     1      -8.318   7.150   2.041  0.00  0.00    +0.159 HD
ENDROOT
BRANCH   1  10
ATOM     10  C   UNL     1      -5.436   6.985   4.639  0.00  0.00    +0.151 C 
BRANCH  10  11
ATOM     11  C   UNL     1      -6.038   6.289   5.829  0.00  0.00    -0.028 A 
ATOM     12  C   UNL     1      -6.199   4.896   5.832  0.00  0.00    +0.005 A 
ATOM     13  C   UNL     1      -6.444   7.017   6.958  0.00  0.00    +0.005 A 
ATOM     14  C   UNL     1      -6.731   4.246   6.949  0.00  0.00    +0.000 A 
ATOM     15  C   UNL     1      -6.975   6.364   8.071  0.00  0.00    +0.000 A 
ATOM     16  C   UNL     1      -7.116   4.978   8.067  0.00  0.00    +0.000 A 
ENDBRANCH  10  11
ENDBRANCH   1  10
TORSDOF 2
ENDMDL
MODEL 6
REMARK VINA RESULT:    -5.337      4.621      8.559
REMARK INTER + INTRA:          -6.054
REMARK INTER:                  -5.937
REMARK INTRA:                  -0.116
REMARK UNBOUND:                -0.092
REMARK  Name = 1550473
REMARK  2 active torsions:
REMARK  status: ('A' for Active; 'I' for Inactive)
REMARK    1  A    between atoms: N_1  and  C_4
REMARK    2  A    between atoms: C_4  and  C_5
REMARK                            x       y       z     vdW  Elec       q    Type
REMARK                         _______ _______ _______ _____ _____    ______ ____
ROOT
ATOM      1  N   UNL     1      12.380   4.108   1.227  0.00  0.00    -0.354 N 
ATOM      2  N   UNL     1      11.169   2.232   0.613  0.00  0.00    -0.372 N 
ATOM      3  N   UNL     1      11.556   2.621   2.840  0.00  0.00    -0.372 N 
ATOM      4  C   UNL     1      11.710   2.999   1.567  0.00  0.00    +0.166 C 
ATOM      5  H   UNL     1      12.486   4.323   0.242  0.00  0.00    +0.163 HD
ATOM      6  H   UNL     1      10.655   1.391   0.839  0.00  0.00    +0.159 HD
ATOM      7  H   UNL     1      11.238   2.473  -0.368  0.00  0.00    +0.159 HD
ATOM      8  H   UNL     1      11.945   3.153   3.607  0.00  0.00    +0.159 HD
ATOM      9  H   UNL     1      11.055   1.777   3.086  0.00  0.00    +0.159 HD
ENDROOT
BRANCH   1  10
ATOM     10  C   UNL     1      12.960   5.040   2.191  0.00  0.00    +0.151 C 
BRANCH  10  11
ATOM     11  C   UNL     1      13.778   6.064   1.453  0.00  0.00    -0.028 A 
ATOM     12  C   UNL     1      13.452   6.421   0.137  0.00  0.00    +0.005 A 
ATOM     13  C   UNL     1      14.876   6.686   2.067  0.00  0.00    +0.005 A 
ATOM     14  C   UNL     1      14.193   7.394  -0.539  0.00  0.00    +0.000 A 
ATOM     15  C   UNL     1      15.614   7.656   1.390  0.00  0.00    +0.000 A 
ATOM     16  C   UNL     1      15.270   8.012   0.088  0.00  0.00    +0.000 A 
ENDBRANCH  10  11
ENDBRANCH   1  10
TORSDOF 2
ENDMDL
MODEL 7
REMARK VINA RESULT:    -5.224      7.544      9.155
REMARK INTER + INTRA:          -5.927
REMARK INTER:                  -5.863
REMARK INTRA:                  -0.063
REMARK UNBOUND:                -0.092
REMARK  Name = 1550473
REMARK  2 active torsions:
REMARK  status: ('A' for Active; 'I' for Inactive)
REMARK    1  A    between atoms: N_1  and  C_4
REMARK    2  A    between atoms: C_4  and  C_5
REMARK                            x       y       z     vdW  Elec       q    Type
REMARK                         _______ _______ _______ _____ _____    ______ ____
ROOT
ATOM      1  N   UNL     1      14.548   8.694  -0.120  0.00  0.00    -0.354 N 
ATOM      2  N   UNL     1      15.995  10.502  -0.144  0.00  0.00    -0.372 N 
ATOM      3  N   UNL     1      16.745   8.471  -0.905  0.00  0.00    -0.372 N 
ATOM      4  C   UNL     1      15.755   9.209  -0.390  0.00  0.00    +0.166 C 
ATOM      5  H   UNL     1      13.850   9.299   0.297  0.00  0.00    +0.163 HD
ATOM      6  H   UNL     1      16.895  10.919  -0.340  0.00  0.00    +0.159 HD
ATOM      7  H   UNL     1      15.281  11.115   0.231  0.00  0.00    +0.159 HD
ATOM      8  H   UNL     1      16.630   7.488  -1.108  0.00  0.00    +0.159 HD
ATOM      9  H   UNL     1      17.656   8.868  -1.097  0.00  0.00    +0.159 HD
ENDROOT
BRANCH   1  10
ATOM     10  C   UNL     1      14.167   7.311  -0.401  0.00  0.00    +0.151 C 
BRANCH  10  11
ATOM     11  C   UNL     1      14.079   6.553   0.894  0.00  0.00    -0.028 A 
ATOM     12  C   UNL     1      13.041   5.635   1.112  0.00  0.00    +0.005 A 
ATOM     13  C   UNL     1      15.032   6.744   1.906  0.00  0.00    +0.005 A 
ATOM     14  C   UNL     1      12.976   4.908   2.304  0.00  0.00    +0.000 A 
ATOM     15  C   UNL     1      14.963   6.017   3.094  0.00  0.00    +0.000 A 
ATOM     16  C   UNL     1      13.936   5.098   3.292  0.00  0.00    +0.000 A 
ENDBRANCH  10  11
ENDBRANCH   1  10
TORSDOF 2
ENDMDL
MODEL 8
REMARK VINA RESULT:    -5.067      3.080      6.822
REMARK INTER + INTRA:          -5.752
REMARK INTER:                  -5.622
REMARK INTRA:                  -0.130
REMARK UNBOUND:                -0.092
REMARK  Name = 1550473
REMARK  2 active torsions:
REMARK  status: ('A' for Active; 'I' for Inactive)
REMARK    1  A    between atoms: N_1  and  C_4
REMARK    2  A    between atoms: C_4  and  C_5
REMARK                            x       y       z     vdW  Elec       q    Type
REMARK                         _______ _______ _______ _____ _____    ______ ____
ROOT
ATOM      1  N   UNL     1      11.515   1.957   2.352  0.00  0.00    -0.354 N 
ATOM      2  N   UNL     1      11.079  -0.312   2.513  0.00  0.00    -0.372 N 
ATOM      3  N   UNL     1      10.615   0.770   0.543  0.00  0.00    -0.372 N 
ATOM      4  C   UNL     1      11.072   0.820   1.799  0.00  0.00    +0.166 C 
ATOM      5  H   UNL     1      11.820   1.935   3.319  0.00  0.00    +0.163 HD
ATOM      6  H   UNL     1      10.753  -1.186   2.121  0.00  0.00    +0.159 HD
ATOM      7  H   UNL     1      11.427  -0.341   3.463  0.00  0.00    +0.159 HD
ATOM      8  H   UNL     1      10.578   1.591  -0.047  0.00  0.00    +0.159 HD
ATOM      9  H   UNL     1      10.275  -0.093   0.137  0.00  0.00    +0.159 HD
ENDROOT
BRANCH   1  10
ATOM     10  C   UNL     1      11.600   3.232   1.643  0.00  0.00    +0.151 C 
BRANCH  10  11
ATOM     11  C   UNL     1      12.714   4.051   2.236  0.00  0.00    -0.028 A 
ATOM     12  C   UNL     1      13.002   5.329   1.736  0.00  0.00    +0.005 A 
ATOM     13  C   UNL     1      13.482   3.555   3.300  0.00  0.00    +0.005 A 
ATOM     14  C   UNL     1      14.017   6.102   2.306  0.00  0.00    +0.000 A 
ATOM     15  C   UNL     1      14.496   4.329   3.866  0.00  0.00    +0.000 A 
ATOM     16  C   UNL     1      14.761   5.603   3.370  0.00  0.00    +0.000 A 
ENDBRANCH  10  11
ENDBRANCH   1  10
TORSDOF 2
ENDMDL
MODEL 9
REMARK VINA RESULT:    -4.962     27.021     27.820
REMARK INTER + INTRA:          -5.635
REMARK INTER:                  -5.516
REMARK INTRA:                  -0.119
REMARK UNBOUND:                -0.092
REMARK  Name = 1550473
REMARK  2 active torsions:
REMARK  status: ('A' for Active; 'I' for Inactive)
REMARK    1  A    between atoms: N_1  and  C_4
REMARK    2  A    between atoms: C_4  and  C_5
REMARK                            x       y       z     vdW  Elec       q    Type
REMARK                         _______ _______ _______ _____ _____    ______ ____
ROOT
ATOM      1  N   UNL     1     -16.899   6.140  -3.634  0.00  0.00    -0.354 N 
ATOM      2  N   UNL     1     -18.069   4.220  -3.077  0.00  0.00    -0.372 N 
ATOM      3  N   UNL     1     -17.045   4.339  -5.127  0.00  0.00    -0.372 N 
ATOM      4  C   UNL     1     -17.329   4.912  -3.952  0.00  0.00    +0.166 C 
ATOM      5  H   UNL     1     -17.174   6.529  -2.740  0.00  0.00    +0.163 HD
ATOM      6  H   UNL     1     -18.405   3.290  -3.288  0.00  0.00    +0.159 HD
ATOM      7  H   UNL     1     -18.304   4.594  -2.166  0.00  0.00    +0.159 HD
ATOM      8  H   UNL     1     -16.496   4.810  -5.833  0.00  0.00    +0.159 HD
ATOM      9  H   UNL     1     -17.382   3.414  -5.361  0.00  0.00    +0.159 HD
ENDROOT
BRANCH   1  10
ATOM     10  C   UNL     1     -16.043   6.954  -4.494  0.00  0.00    +0.151 C 
BRANCH  10  11
ATOM     11  C   UNL     1     -15.446   8.069  -3.680  0.00  0.00    -0.028 A 
ATOM     12  C   UNL     1     -15.086   7.858  -2.341  0.00  0.00    +0.005 A 
ATOM     13  C   UNL     1     -15.234   9.337  -4.243  0.00  0.00    +0.005 A 
ATOM     14  C   UNL     1     -14.504   8.884  -1.592  0.00  0.00    +0.000 A 
ATOM     15  C   UNL     1     -14.653  10.359  -3.492  0.00  0.00    +0.000 A 
ATOM     16  C   UNL     1     -14.287  10.132  -2.168  0.00  0.00    +0.000 A 
ENDBRANCH  10  11
ENDBRANCH   1  10
TORSDOF 2
ENDMDL
