MODEL 1
REMARK VINA RESULT:    -4.888      0.000      0.000
REMARK INTER + INTRA:          -5.597
REMARK INTER:                  -5.459
REMARK INTRA:                  -0.138
REMARK UNBOUND:                -0.138
REMARK  Name = 1550473
REMARK  2 active torsions:
REMARK  status: ('A' for Active; 'I' for Inactive)
REMARK    1  A    between atoms: N_1  and  C_4
REMARK    2  A    between atoms: C_4  and  C_5
REMARK                            x       y       z     vdW  Elec       q    Type
REMARK                         _______ _______ _______ _____ _____    ______ ____
ROOT
ATOM      1  N   UNL     1      -4.258 -10.652   4.903  0.00  0.00    -0.354 N 
ATOM      2  N   UNL     1      -2.753 -11.940   3.704  0.00  0.00    -0.372 N 
ATOM      3  N   UNL     1      -4.924 -12.657   3.889  0.00  0.00    -0.372 N 
ATOM      4  C   UNL     1      -3.991 -11.743   4.173  0.00  0.00    +0.166 C 
ATOM      5  H   UNL     1      -3.500 -10.012   5.109  0.00  0.00    +0.163 HD
ATOM      6  H   UNL     1      -2.522 -12.752   3.147  0.00  0.00    +0.159 HD
ATOM      7  H   UNL     1      -2.007 -11.275   3.872  0.00  0.00    +0.159 HD
ATOM      8  H   UNL     1      -5.876 -12.570   4.218  0.00  0.00    +0.159 HD
ATOM      9  H   UNL     1      -4.710 -13.482   3.343  0.00  0.00    +0.159 HD
ENDROOT
BRANCH   1  10
ATOM     10  C   UNL     1      -5.586 -10.317   5.416  0.00  0.00    +0.151 C 
BRANCH  10  11
ATOM     11  C   UNL     1      -5.963  -8.941   4.939  0.00  0.00    -0.028 A 
ATOM     12  C   UNL     1      -7.297  -8.636   4.630  0.00  0.00    +0.005 A 
ATOM     13  C   UNL     1      -4.993  -7.937   4.801  0.00  0.00    +0.005 A 
ATOM     14  C   UNL     1      -7.653  -7.350   4.216  0.00  0.00    +0.000 A 
ATOM     15  C   UNL     1      -5.352  -6.654   4.387  0.00  0.00    +0.000 A 
ATOM     16  C   UNL     1      -6.683  -6.361   4.097  0.00  0.00    +0.000 A 
ENDBRANCH  10  11
ENDBRANCH   1  10
TORSDOF 2
ENDMDL
MODEL 2
REMARK VINA RESULT:    -4.830     18.338     18.973
REMARK INTER + INTRA:          -5.533
REMARK INTER:                  -5.418
REMARK INTRA:                  -0.115
REMARK UNBOUND:                -0.138
REMARK  Name = 1550473
REMARK  2 active torsions:
REMARK  status: ('A' for Active; 'I' for Inactive)
REMARK    1  A    between atoms: N_1  and  C_4
REMARK    2  A    between atoms: C_4  and  C_5
REMARK                            x       y       z     vdW  Elec       q    Type
REMARK                         _______ _______ _______ _____ _____    ______ ____
ROOT
ATOM      1  N   UNL     1      -4.721  -6.183 -13.032  0.00  0.00    -0.354 N 
ATOM      2  N   UNL     1      -5.541  -7.259 -11.152  0.00  0.00    -0.372 N 
ATOM      3  N   UNL     1      -7.020  -6.539 -12.752  0.00  0.00    -0.372 N 
ATOM      4  C   UNL     1      -5.758  -6.653 -12.326  0.00  0.00    +0.166 C 
ATOM      5  H   UNL     1      -3.791  -6.274 -12.640  0.00  0.00    +0.163 HD
ATOM      6  H   UNL     1      -6.304  -7.626 -10.599  0.00  0.00    +0.159 HD
ATOM      7  H   UNL     1      -4.607  -7.389 -10.784  0.00  0.00    +0.159 HD
ATOM      8  H   UNL     1      -7.252  -6.086 -13.626  0.00  0.00    +0.159 HD
ATOM      9  H   UNL     1      -7.798  -6.890 -12.206  0.00  0.00    +0.159 HD
ENDROOT
BRANCH   1  10
ATOM     10  C   UNL     1      -4.844  -5.555 -14.346  0.00  0.00    +0.151 C 
BRANCH  10  11
ATOM     11  C   UNL     1      -3.988  -4.319 -14.382  0.00  0.00    -0.028 A 
ATOM     12  C   UNL     1      -4.559  -3.065 -14.640  0.00  0.00    +0.005 A 
ATOM     13  C   UNL     1      -2.606  -4.396 -14.153  0.00  0.00    +0.005 A 
ATOM     14  C   UNL     1      -3.769  -1.912 -14.644  0.00  0.00    +0.000 A 
ATOM     15  C   UNL     1      -1.820  -3.243 -14.159  0.00  0.00    +0.000 A 
ATOM     16  C   UNL     1      -2.403  -2.002 -14.401  0.00  0.00    +0.000 A 
ENDBRANCH  10  11
ENDBRANCH   1  10
TORSDOF 2
ENDMDL
MODEL 3
REMARK VINA RESULT:    -4.679     23.762     25.137
REMARK INTER + INTRA:          -5.364
REMARK INTER:                  -5.236
REMARK INTRA:                  -0.127
REMARK UNBOUND:                -0.138
REMARK  Name = 1550473
REMARK  2 active torsions:
REMARK  status: ('A' for Active; 'I' for Inactive)
REMARK    1  A    between atoms: N_1  and  C_4
REMARK    2  A    between atoms: C_4  and  C_5
REMARK                            x       y       z     vdW  Elec       q    Type
REMARK                         _______ _______ _______ _____ _____    ______ ____
ROOT
ATOM      1  N   UNL     1       6.429  11.882  13.113  0.00  0.00    -0.354 N 
ATOM      2  N   UNL     1       8.444  12.942  13.538  0.00  0.00    -0.372 N 
ATOM      3  N   UNL     1       7.790  11.216  14.901  0.00  0.00    -0.372 N 
ATOM      4  C   UNL     1       7.541  12.005  13.850  0.00  0.00    +0.166 C 
ATOM      5  H   UNL     1       6.285  12.531  12.347  0.00  0.00    +0.163 HD
ATOM      6  H   UNL     1       9.294  13.056  14.074  0.00  0.00    +0.159 HD
ATOM      7  H   UNL     1       8.319  13.559  12.744  0.00  0.00    +0.159 HD
ATOM      8  H   UNL     1       7.145  10.493  15.192  0.00  0.00    +0.159 HD
ATOM      9  H   UNL     1       8.629  11.322  15.456  0.00  0.00    +0.159 HD
ENDROOT
BRANCH   1  10
ATOM     10  C   UNL     1       5.409  10.859  13.336  0.00  0.00    +0.151 C 
BRANCH  10  11
ATOM     11  C   UNL     1       4.098  11.343  12.778  0.00  0.00    -0.028 A 
ATOM     12  C   UNL     1       3.067  10.435  12.495  0.00  0.00    +0.005 A 
ATOM     13  C   UNL     1       3.880  12.708  12.537  0.00  0.00    +0.005 A 
ATOM     14  C   UNL     1       1.839  10.887  12.005  0.00  0.00    +0.000 A 
ATOM     15  C   UNL     1       2.652  13.155  12.048  0.00  0.00    +0.000 A 
ATOM     16  C   UNL     1       1.632  12.244  11.784  0.00  0.00    +0.000 A 
ENDBRANCH  10  11
ENDBRANCH   1  10
TORSDOF 2
ENDMDL
MODEL 4
REMARK VINA RESULT:    -4.524     24.792     25.385
REMARK INTER + INTRA:          -5.191
REMARK INTER:                  -5.063
REMARK INTRA:                  -0.128
REMARK UNBOUND:                -0.138
REMARK  Name = 1550473
REMARK  2 active torsions:
REMARK  status: ('A' for Active; 'I' for Inactive)
REMARK    1  A    between atoms: N_1  and  C_4
REMARK    2  A    between atoms: C_4  and  C_5
REMARK                            x       y       z     vdW  Elec       q    Type
REMARK                         _______ _______ _______ _____ _____    ______ ____
ROOT
ATOM      1  N   UNL     1       3.975   6.618 -12.508  0.00  0.00    -0.354 N 
ATOM      2  N   UNL     1       4.936   4.657 -13.280  0.00  0.00    -0.372 N 
ATOM      3  N   UNL     1       5.544   6.646 -14.249  0.00  0.00    -0.372 N 
ATOM      4  C   UNL     1       4.813   5.988 -13.342  0.00  0.00    +0.166 C 
ATOM      5  H   UNL     1       3.427   6.060 -11.864  0.00  0.00    +0.163 HD
ATOM      6  H   UNL     1       5.562   4.155 -13.894  0.00  0.00    +0.159 HD
ATOM      7  H   UNL     1       4.420   4.106 -12.604  0.00  0.00    +0.159 HD
ATOM      8  H   UNL     1       5.493   7.651 -14.351  0.00  0.00    +0.159 HD
ATOM      9  H   UNL     1       6.168   6.160 -14.880  0.00  0.00    +0.159 HD
ENDROOT
BRANCH   1  10
ATOM     10  C   UNL     1       3.809   8.070 -12.458  0.00  0.00    +0.151 C 
BRANCH  10  11
ATOM     11  C   UNL     1       2.372   8.389 -12.149  0.00  0.00    -0.028 A 
ATOM     12  C   UNL     1       1.335   7.724 -12.820  0.00  0.00    +0.005 A 
ATOM     13  C   UNL     1       2.041   9.351 -11.183  0.00  0.00    +0.005 A 
ATOM     14  C   UNL     1       0.000   7.998 -12.512  0.00  0.00    +0.000 A 
ATOM     15  C   UNL     1       0.707   9.623 -10.880  0.00  0.00    +0.000 A 
ATOM     16  C   UNL     1      -0.313   8.945 -11.542  0.00  0.00    +0.000 A 
ENDBRANCH  10  11
ENDBRANCH   1  10
TORSDOF 2
ENDMDL
MODEL 5
REMARK VINA RESULT:    -4.486     14.783     15.969
REMARK INTER + INTRA:          -5.148
REMARK INTER:                  -5.025
REMARK INTRA:                  -0.123
REMARK UNBOUND:                -0.138
REMARK  Name = 1550473
REMARK  2 active torsions:
REMARK  status: ('A' for Active; 'I' for Inactive)
REMARK    1  A    between atoms: N_1  and  C_4
REMARK    2  A    between atoms: C_4  and  C_5
REMARK                            x       y       z     vdW  Elec       q    Type
REMARK                         _______ _______ _______ _____ _____    ______ ____
ROOT
ATOM      1  N   UNL     1      -5.678 -18.242  -8.087  0.00  0.00    -0.354 N 
ATOM      2  N   UNL     1      -6.487 -19.201  -6.140  0.00  0.00    -0.372 N 
ATOM      3  N   UNL     1      -6.349 -20.487  -8.036  0.00  0.00    -0.372 N 
ATOM      4  C   UNL     1      -6.166 -19.306  -7.435  0.00  0.00    +0.166 C 
ATOM      5  H   UNL     1      -5.592 -17.367  -7.583  0.00  0.00    +0.163 HD
ATOM      6  H   UNL     1      -6.854 -19.988  -5.621  0.00  0.00    +0.159 HD
ATOM      7  H   UNL     1      -6.356 -18.338  -5.627  0.00  0.00    +0.159 HD
ATOM      8  H   UNL     1      -6.132 -20.630  -9.013  0.00  0.00    +0.159 HD
ATOM      9  H   UNL     1      -6.726 -21.282  -7.536  0.00  0.00    +0.159 HD
ENDROOT
BRANCH   1  10
ATOM     10  C   UNL     1      -5.248 -18.265  -9.484  0.00  0.00    +0.151 C 
BRANCH  10  11
ATOM     11  C   UNL     1      -4.530 -16.982  -9.798  0.00  0.00    -0.028 A 
ATOM     12  C   UNL     1      -4.557 -15.911  -8.893  0.00  0.00    +0.005 A 
ATOM     13  C   UNL     1      -3.815 -16.833 -10.996  0.00  0.00    +0.005 A 
ATOM     14  C   UNL     1      -3.865 -14.729  -9.171  0.00  0.00    +0.000 A 
ATOM     15  C   UNL     1      -3.126 -15.652 -11.270  0.00  0.00    +0.000 A 
ATOM     16  C   UNL     1      -3.149 -14.601 -10.356  0.00  0.00    +0.000 A 
ENDBRANCH  10  11
ENDBRANCH   1  10
TORSDOF 2
ENDMDL
MODEL 6
REMARK VINA RESULT:    -4.421     18.470     19.148
REMARK INTER + INTRA:          -5.076
REMARK INTER:                  -4.927
REMARK INTRA:                  -0.149
REMARK UNBOUND:                -0.138
REMARK  Name = 1550473
REMARK  2 active torsions:
REMARK  status: ('A' for Active; 'I' for Inactive)
REMARK    1  A    between atoms: N_1  and  C_4
REMARK    2  A    between atoms: C_4  and  C_5
REMARK                            x       y       z     vdW  Elec       q    Type
REMARK                         _______ _______ _______ _____ _____    ______ ____
ROOT
ATOM      1  N   UNL     1      -2.011  -3.868 -13.925  0.00  0.00    -0.354 N 
ATOM      2  N   UNL     1      -1.496  -1.615 -13.774  0.00  0.00    -0.372 N 
ATOM      3  N   UNL     1      -2.635  -2.371 -15.617  0.00  0.00    -0.372 N 
ATOM      4  C   UNL     1      -2.052  -2.633 -14.442  0.00  0.00    +0.166 C 
ATOM      5  H   UNL     1      -1.527  -4.005 -13.044  0.00  0.00    +0.163 HD
ATOM      6  H   UNL     1      -1.514  -0.671 -14.138  0.00  0.00    +0.159 HD
ATOM      7  H   UNL     1      -1.053  -1.747 -12.873  0.00  0.00    +0.159 HD
ATOM      8  H   UNL     1      -3.068  -3.096 -16.173  0.00  0.00    +0.159 HD
ATOM      9  H   UNL     1      -2.653  -1.435 -16.003  0.00  0.00    +0.159 HD
ENDROOT
BRANCH   1  10
ATOM     10  C   UNL     1      -2.633  -5.035 -14.546  0.00  0.00    +0.151 C 
BRANCH  10  11
ATOM     11  C   UNL     1      -3.732  -5.541 -13.652  0.00  0.00    -0.028 A 
ATOM     12  C   UNL     1      -5.077  -5.369 -14.011  0.00  0.00    +0.005 A 
ATOM     13  C   UNL     1      -3.434  -6.197 -12.448  0.00  0.00    +0.005 A 
ATOM     14  C   UNL     1      -6.097  -5.864 -13.195  0.00  0.00    +0.000 A 
ATOM     15  C   UNL     1      -4.456  -6.690 -11.637  0.00  0.00    +0.000 A 
ATOM     16  C   UNL     1      -5.787  -6.526 -12.012  0.00  0.00    +0.000 A 
ENDBRANCH  10  11
ENDBRANCH   1  10
TORSDOF 2
ENDMDL
MODEL 7
REMARK VINA RESULT:    -4.421     18.798     19.458
REMARK INTER + INTRA:          -5.075
REMARK INTER:                  -4.952
REMARK INTRA:                  -0.124
REMARK UNBOUND:                -0.138
REMARK  Name = 1550473
REMARK  2 active torsions:
REMARK  status: ('A' for Active; 'I' for Inactive)
REMARK    1  A    between atoms: N_1  and  C_4
REMARK    2  A    between atoms: C_4  and  C_5
REMARK                            x       y       z     vdW  Elec       q    Type
REMARK                         _______ _______ _______ _____ _____    ______ ____
ROOT
ATOM      1  N   UNL     1      -6.173  -5.568 -13.779  0.00  0.00    -0.354 N 
ATOM      2  N   UNL     1      -8.398  -6.193 -13.624  0.00  0.00    -0.372 N 
ATOM      3  N   UNL     1      -6.789  -7.827 -13.692  0.00  0.00    -0.372 N 
ATOM      4  C   UNL     1      -7.104  -6.528 -13.700  0.00  0.00    +0.166 C 
ATOM      5  H   UNL     1      -6.478  -4.602 -13.811  0.00  0.00    +0.163 HD
ATOM      6  H   UNL     1      -9.122  -6.895 -13.560  0.00  0.00    +0.159 HD
ATOM      7  H   UNL     1      -8.697  -5.225 -13.610  0.00  0.00    +0.159 HD
ATOM      8  H   UNL     1      -5.831  -8.146 -13.753  0.00  0.00    +0.159 HD
ATOM      9  H   UNL     1      -7.501  -8.545 -13.640  0.00  0.00    +0.159 HD
ENDROOT
BRANCH   1  10
ATOM     10  C   UNL     1      -4.734  -5.825 -13.812  0.00  0.00    +0.151 C 
BRANCH  10  11
ATOM     11  C   UNL     1      -4.012  -4.541 -14.115  0.00  0.00    -0.028 A 
ATOM     12  C   UNL     1      -2.611  -4.488 -14.086  0.00  0.00    +0.005 A 
ATOM     13  C   UNL     1      -4.724  -3.376 -14.438  0.00  0.00    +0.005 A 
ATOM     14  C   UNL     1      -1.939  -3.304 -14.397  0.00  0.00    +0.000 A 
ATOM     15  C   UNL     1      -4.049  -2.195 -14.748  0.00  0.00    +0.000 A 
ATOM     16  C   UNL     1      -2.657  -2.160 -14.729  0.00  0.00    +0.000 A 
ENDBRANCH  10  11
ENDBRANCH   1  10
TORSDOF 2
ENDMDL
MODEL 8
REMARK VINA RESULT:    -4.327     24.552     25.112
REMARK INTER + INTRA:          -4.971
REMARK INTER:                  -4.811
REMARK INTRA:                  -0.160
REMARK UNBOUND:                -0.138
REMARK  Name = 1550473
REMARK  2 active torsions:
REMARK  status: ('A' for Active; 'I' for Inactive)
REMARK    1  A    between atoms: N_1  and  C_4
REMARK    2  A    between atoms: C_4  and  C_5
REMARK                            x       y       z     vdW  Elec       q    Type
REMARK                         _______ _______ _______ _____ _____    ______ ____
ROOT
ATOM      1  N   UNL     1       3.365   5.215 -14.598  0.00  0.00    -0.354 N 
ATOM      2  N   UNL     1       5.547   5.977 -14.755  0.00  0.00    -0.372 N 
ATOM      3  N   UNL     1       4.786   5.199 -12.735  0.00  0.00    -0.372 N 
ATOM      4  C   UNL     1       4.552   5.458 -14.026  0.00  0.00    +0.166 C 
ATOM      5  H   UNL     1       3.242   5.462 -15.574  0.00  0.00    +0.163 HD
ATOM      6  H   UNL     1       6.454   6.168 -14.351  0.00  0.00    +0.159 HD
ATOM      7  H   UNL     1       5.435   6.180 -15.741  0.00  0.00    +0.159 HD
ATOM      8  H   UNL     1       4.075   4.813 -12.128  0.00  0.00    +0.159 HD
ATOM      9  H   UNL     1       5.684   5.394 -12.309  0.00  0.00    +0.159 HD
ENDROOT
BRANCH   1  10
ATOM     10  C   UNL     1       2.233   4.602 -13.906  0.00  0.00    +0.151 C 
BRANCH  10  11
ATOM     11  C   UNL     1       1.079   5.566 -13.902  0.00  0.00    -0.028 A 
ATOM     12  C   UNL     1      -0.075   5.298 -14.652  0.00  0.00    +0.005 A 
ATOM     13  C   UNL     1       1.132   6.746 -13.145  0.00  0.00    +0.005 A 
ATOM     14  C   UNL     1      -1.159   6.179 -14.625  0.00  0.00    +0.000 A 
ATOM     15  C   UNL     1       0.047   7.623 -13.121  0.00  0.00    +0.000 A 
ATOM     16  C   UNL     1      -1.098   7.338 -13.859  0.00  0.00    +0.000 A 
ENDBRANCH  10  11
ENDBRANCH   1  10
TORSDOF 2
ENDMDL
MODEL 9
REMARK VINA RESULT:    -4.311     17.551     18.680
REMARK INTER + INTRA:          -4.953
REMARK INTER:                  -4.856
REMARK INTRA:                  -0.097
REMARK UNBOUND:                -0.138
REMARK  Name = 1550473
REMARK  2 active torsions:
REMARK  status: ('A' for Active; 'I' for Inactive)
REMARK    1  A    between atoms: N_1  and  C_4
REMARK    2  A    between atoms: C_4  and  C_5
REMARK                            x       y       z     vdW  Elec       q    Type
REMARK                         _______ _______ _______ _____ _____    ______ ____
ROOT
ATOM      1  N   UNL     1      12.174  -6.242   1.397  0.00  0.00    -0.354 N 
ATOM      2  N   UNL     1      12.938  -6.598   3.554  0.00  0.00    -0.372 N 
ATOM      3  N   UNL     1      10.753  -7.091   3.056  0.00  0.00    -0.372 N 
ATOM      4  C   UNL     1      11.947  -6.642   2.656  0.00  0.00    +0.166 C 
ATOM      5  H   UNL     1      13.093  -5.883   1.164  0.00  0.00    +0.163 HD
ATOM      6  H   UNL     1      12.798  -6.897   4.510  0.00  0.00    +0.159 HD
ATOM      7  H   UNL     1      13.868  -6.283   3.307  0.00  0.00    +0.159 HD
ATOM      8  H   UNL     1       9.962  -7.143   2.428  0.00  0.00    +0.159 HD
ATOM      9  H   UNL     1      10.590  -7.383   4.012  0.00  0.00    +0.159 HD
ENDROOT
BRANCH   1  10
ATOM     10  C   UNL     1      11.178  -6.299   0.329  0.00  0.00    +0.151 C 
BRANCH  10  11
ATOM     11  C   UNL     1      11.723  -5.605  -0.889  0.00  0.00    -0.028 A 
ATOM     12  C   UNL     1      11.104  -4.448  -1.385  0.00  0.00    +0.005 A 
ATOM     13  C   UNL     1      12.860  -6.096  -1.548  0.00  0.00    +0.005 A 
ATOM     14  C   UNL     1      11.628  -3.785  -2.498  0.00  0.00    +0.000 A 
ATOM     15  C   UNL     1      13.379  -5.432  -2.659  0.00  0.00    +0.000 A 
ATOM     16  C   UNL     1      12.764  -4.276  -3.132  0.00  0.00    +0.000 A 
ENDBRANCH  10  11
ENDBRANCH   1  10
TORSDOF 2
ENDMDL
