MODEL 1
REMARK VINA RESULT:    -6.139      0.000      0.000
REMARK INTER + INTRA:          -6.982
REMARK INTER:                  -6.857
REMARK INTRA:                  -0.125
REMARK UNBOUND:                -0.125
REMARK  Name = 1550473
REMARK  2 active torsions:
REMARK  status: ('A' for Active; 'I' for Inactive)
REMARK    1  A    between atoms: N_1  and  C_4
REMARK    2  A    between atoms: C_4  and  C_5
REMARK                            x       y       z     vdW  Elec       q    Type
REMARK                         _______ _______ _______ _____ _____    ______ ____
ROOT
ATOM      1  N   UNL     1       0.999  -2.844  -1.609  0.00  0.00    -0.354 N 
ATOM      2  N   UNL     1      -0.011  -0.773  -1.377  0.00  0.00    -0.372 N 
ATOM      3  N   UNL     1      -1.335  -2.637  -1.577  0.00  0.00    -0.372 N 
ATOM      4  C   UNL     1      -0.111  -2.100  -1.523  0.00  0.00    +0.166 C 
ATOM      5  H   UNL     1       1.897  -2.373  -1.591  0.00  0.00    +0.163 HD
ATOM      6  H   UNL     1      -0.832  -0.186  -1.306  0.00  0.00    +0.159 HD
ATOM      7  H   UNL     1       0.887  -0.310  -1.314  0.00  0.00    +0.159 HD
ATOM      8  H   UNL     1      -1.479  -3.631  -1.693  0.00  0.00    +0.159 HD
ATOM      9  H   UNL     1      -2.168  -2.064  -1.520  0.00  0.00    +0.159 HD
ENDROOT
BRANCH   1  10
ATOM     10  C   UNL     1       1.000  -4.302  -1.716  0.00  0.00    +0.151 C 
BRANCH  10  11
ATOM     11  C   UNL     1       2.162  -4.850  -0.934  0.00  0.00    -0.028 A 
ATOM     12  C   UNL     1       2.360  -4.479   0.404  0.00  0.00    +0.005 A 
ATOM     13  C   UNL     1       3.066  -5.747  -1.524  0.00  0.00    +0.005 A 
ATOM     14  C   UNL     1       3.422  -5.011   1.139  0.00  0.00    +0.000 A 
ATOM     15  C   UNL     1       4.125  -6.276  -0.787  0.00  0.00    +0.000 A 
ATOM     16  C   UNL     1       4.301  -5.910   0.545  0.00  0.00    +0.000 A 
ENDBRANCH  10  11
ENDBRANCH   1  10
TORSDOF 2
ENDMDL
MODEL 2
REMARK VINA RESULT:    -5.800      1.278      1.678
REMARK INTER + INTRA:          -6.604
REMARK INTER:                  -6.480
REMARK INTRA:                  -0.124
REMARK UNBOUND:                -0.125
REMARK  Name = 1550473
REMARK  2 active torsions:
REMARK  status: ('A' for Active; 'I' for Inactive)
REMARK    1  A    between atoms: N_1  and  C_4
REMARK    2  A    between atoms: C_4  and  C_5
REMARK                            x       y       z     vdW  Elec       q    Type
REMARK                         _______ _______ _______ _____ _____    ______ ____
ROOT
ATOM      1  N   UNL     1       1.178  -2.633  -0.739  0.00  0.00    -0.354 N 
ATOM      2  N   UNL     1      -0.107  -0.793  -1.313  0.00  0.00    -0.372 N 
ATOM      3  N   UNL     1      -0.949  -2.894  -1.690  0.00  0.00    -0.372 N 
ATOM      4  C   UNL     1       0.048  -2.121  -1.245  0.00  0.00    +0.166 C 
ATOM      5  H   UNL     1       1.907  -1.994  -0.447  0.00  0.00    +0.163 HD
ATOM      6  H   UNL     1      -0.949  -0.378  -1.687  0.00  0.00    +0.159 HD
ATOM      7  H   UNL     1       0.606  -0.156  -0.978  0.00  0.00    +0.159 HD
ATOM      8  H   UNL     1      -0.892  -3.904  -1.671  0.00  0.00    +0.159 HD
ATOM      9  H   UNL     1      -1.795  -2.497  -2.078  0.00  0.00    +0.159 HD
ENDROOT
BRANCH   1  10
ATOM     10  C   UNL     1       1.423  -4.064  -0.571  0.00  0.00    +0.151 C 
BRANCH  10  11
ATOM     11  C   UNL     1       2.864  -4.275  -0.195  0.00  0.00    -0.028 A 
ATOM     12  C   UNL     1       3.336  -5.556   0.124  0.00  0.00    +0.005 A 
ATOM     13  C   UNL     1       3.763  -3.198  -0.162  0.00  0.00    +0.005 A 
ATOM     14  C   UNL     1       4.681  -5.757   0.444  0.00  0.00    +0.000 A 
ATOM     15  C   UNL     1       5.105  -3.403   0.159  0.00  0.00    +0.000 A 
ATOM     16  C   UNL     1       5.564  -4.683   0.459  0.00  0.00    +0.000 A 
ENDBRANCH  10  11
ENDBRANCH   1  10
TORSDOF 2
ENDMDL
MODEL 3
REMARK VINA RESULT:    -5.699      1.793      2.664
REMARK INTER + INTRA:          -6.490
REMARK INTER:                  -6.347
REMARK INTRA:                  -0.143
REMARK UNBOUND:                -0.125
REMARK  Name = 1550473
REMARK  2 active torsions:
REMARK  status: ('A' for Active; 'I' for Inactive)
REMARK    1  A    between atoms: N_1  and  C_4
REMARK    2  A    between atoms: C_4  and  C_5
REMARK                            x       y       z     vdW  Elec       q    Type
REMARK                         _______ _______ _______ _____ _____    ______ ____
ROOT
ATOM      1  N   UNL     1       0.920  -3.159  -1.049  0.00  0.00    -0.354 N 
ATOM      2  N   UNL     1      -1.094  -2.106  -1.497  0.00  0.00    -0.372 N 
ATOM      3  N   UNL     1       0.834  -0.862  -1.503  0.00  0.00    -0.372 N 
ATOM      4  C   UNL     1       0.235  -2.047  -1.347  0.00  0.00    +0.166 C 
ATOM      5  H   UNL     1       0.404  -4.021  -0.913  0.00  0.00    +0.163 HD
ATOM      6  H   UNL     1      -1.637  -1.285  -1.725  0.00  0.00    +0.159 HD
ATOM      7  H   UNL     1      -1.602  -2.978  -1.407  0.00  0.00    +0.159 HD
ATOM      8  H   UNL     1       1.833  -0.749  -1.397  0.00  0.00    +0.159 HD
ATOM      9  H   UNL     1       0.306  -0.026  -1.720  0.00  0.00    +0.159 HD
ENDROOT
BRANCH   1  10
ATOM     10  C   UNL     1       2.375  -3.213  -0.917  0.00  0.00    +0.151 C 
BRANCH  10  11
ATOM     11  C   UNL     1       2.923  -4.194  -1.916  0.00  0.00    -0.028 A 
ATOM     12  C   UNL     1       4.308  -4.350  -2.074  0.00  0.00    +0.005 A 
ATOM     13  C   UNL     1       2.063  -4.973  -2.704  0.00  0.00    +0.005 A 
ATOM     14  C   UNL     1       4.818  -5.283  -2.981  0.00  0.00    +0.000 A 
ATOM     15  C   UNL     1       2.576  -5.903  -3.609  0.00  0.00    +0.000 A 
ATOM     16  C   UNL     1       3.953  -6.059  -3.745  0.00  0.00    +0.000 A 
ENDBRANCH  10  11
ENDBRANCH   1  10
TORSDOF 2
ENDMDL
MODEL 4
REMARK VINA RESULT:    -5.654     15.471     16.860
REMARK INTER + INTRA:          -6.440
REMARK INTER:                  -6.380
REMARK INTRA:                  -0.060
REMARK UNBOUND:                -0.125
REMARK  Name = 1550473
REMARK  2 active torsions:
REMARK  status: ('A' for Active; 'I' for Inactive)
REMARK    1  A    between atoms: N_1  and  C_4
REMARK    2  A    between atoms: C_4  and  C_5
REMARK                            x       y       z     vdW  Elec       q    Type
REMARK                         _______ _______ _______ _____ _____    ______ ____
ROOT
ATOM      1  N   UNL     1       7.520   8.889 -10.785  0.00  0.00    -0.354 N 
ATOM      2  N   UNL     1       7.991  10.930  -9.798  0.00  0.00    -0.372 N 
ATOM      3  N   UNL     1       6.581  10.872 -11.607  0.00  0.00    -0.372 N 
ATOM      4  C   UNL     1       7.359  10.218 -10.739  0.00  0.00    +0.166 C 
ATOM      5  H   UNL     1       8.147   8.456 -10.118  0.00  0.00    +0.163 HD
ATOM      6  H   UNL     1       7.887  11.934  -9.736  0.00  0.00    +0.159 HD
ATOM      7  H   UNL     1       8.582  10.489  -9.103  0.00  0.00    +0.159 HD
ATOM      8  H   UNL     1       6.081  10.394 -12.344  0.00  0.00    +0.159 HD
ATOM      9  H   UNL     1       6.473  11.878 -11.568  0.00  0.00    +0.159 HD
ENDROOT
BRANCH   1  10
ATOM     10  C   UNL     1       6.834   8.015 -11.736  0.00  0.00    +0.151 C 
BRANCH  10  11
ATOM     11  C   UNL     1       5.469   7.682 -11.201  0.00  0.00    -0.028 A 
ATOM     12  C   UNL     1       5.266   7.512  -9.823  0.00  0.00    +0.005 A 
ATOM     13  C   UNL     1       4.373   7.540 -12.065  0.00  0.00    +0.005 A 
ATOM     14  C   UNL     1       3.993   7.231  -9.323  0.00  0.00    +0.000 A 
ATOM     15  C   UNL     1       3.103   7.259 -11.562  0.00  0.00    +0.000 A 
ATOM     16  C   UNL     1       2.913   7.108 -10.190  0.00  0.00    +0.000 A 
ENDBRANCH  10  11
ENDBRANCH   1  10
TORSDOF 2
ENDMDL
MODEL 5
REMARK VINA RESULT:    -5.652      2.699      3.631
REMARK INTER + INTRA:          -6.438
REMARK INTER:                  -6.303
REMARK INTRA:                  -0.135
REMARK UNBOUND:                -0.125
REMARK  Name = 1550473
REMARK  2 active torsions:
REMARK  status: ('A' for Active; 'I' for Inactive)
REMARK    1  A    between atoms: N_1  and  C_4
REMARK    2  A    between atoms: C_4  and  C_5
REMARK                            x       y       z     vdW  Elec       q    Type
REMARK                         _______ _______ _______ _____ _____    ______ ____
ROOT
ATOM      1  N   UNL     1       2.019  -3.656  -1.988  0.00  0.00    -0.354 N 
ATOM      2  N   UNL     1      -0.207  -4.036  -1.475  0.00  0.00    -0.372 N 
ATOM      3  N   UNL     1       1.341  -4.067   0.218  0.00  0.00    -0.372 N 
ATOM      4  C   UNL     1       1.067  -3.918  -1.083  0.00  0.00    +0.166 C 
ATOM      5  H   UNL     1       1.750  -3.584  -2.962  0.00  0.00    +0.163 HD
ATOM      6  H   UNL     1      -0.948  -4.230  -0.814  0.00  0.00    +0.159 HD
ATOM      7  H   UNL     1      -0.480  -3.918  -2.443  0.00  0.00    +0.159 HD
ATOM      8  H   UNL     1       2.284  -3.996   0.578  0.00  0.00    +0.159 HD
ATOM      9  H   UNL     1       0.615  -4.273   0.893  0.00  0.00    +0.159 HD
ENDROOT
BRANCH   1  10
ATOM     10  C   UNL     1       3.429  -3.455  -1.657  0.00  0.00    +0.151 C 
BRANCH  10  11
ATOM     11  C   UNL     1       4.278  -4.194  -2.654  0.00  0.00    -0.028 A 
ATOM     12  C   UNL     1       5.390  -3.573  -3.240  0.00  0.00    +0.005 A 
ATOM     13  C   UNL     1       3.978  -5.517  -3.013  0.00  0.00    +0.005 A 
ATOM     14  C   UNL     1       6.197  -4.269  -4.144  0.00  0.00    +0.000 A 
ATOM     15  C   UNL     1       4.785  -6.208  -3.917  0.00  0.00    +0.000 A 
ATOM     16  C   UNL     1       5.896  -5.584  -4.480  0.00  0.00    +0.000 A 
ENDBRANCH  10  11
ENDBRANCH   1  10
TORSDOF 2
ENDMDL
MODEL 6
REMARK VINA RESULT:    -5.610      2.662      3.426
REMARK INTER + INTRA:          -6.391
REMARK INTER:                  -6.226
REMARK INTRA:                  -0.165
REMARK UNBOUND:                -0.125
REMARK  Name = 1550473
REMARK  2 active torsions:
REMARK  status: ('A' for Active; 'I' for Inactive)
REMARK    1  A    between atoms: N_1  and  C_4
REMARK    2  A    between atoms: C_4  and  C_5
REMARK                            x       y       z     vdW  Elec       q    Type
REMARK                         _______ _______ _______ _____ _____    ______ ____
ROOT
ATOM      1  N   UNL     1       2.002  -4.965  -2.786  0.00  0.00    -0.354 N 
ATOM      2  N   UNL     1       2.012  -4.491  -5.053  0.00  0.00    -0.372 N 
ATOM      3  N   UNL     1       3.130  -6.349  -4.303  0.00  0.00    -0.372 N 
ATOM      4  C   UNL     1       2.383  -5.274  -4.032  0.00  0.00    +0.166 C 
ATOM      5  H   UNL     1       1.461  -4.119  -2.643  0.00  0.00    +0.163 HD
ATOM      6  H   UNL     1       2.282  -4.701  -6.005  0.00  0.00    +0.159 HD
ATOM      7  H   UNL     1       1.433  -3.672  -4.913  0.00  0.00    +0.159 HD
ATOM      8  H   UNL     1       3.448  -6.977  -3.576  0.00  0.00    +0.159 HD
ATOM      9  H   UNL     1       3.420  -6.570  -5.247  0.00  0.00    +0.159 HD
ENDROOT
BRANCH   1  10
ATOM     10  C   UNL     1       2.307  -5.780  -1.611  0.00  0.00    +0.151 C 
BRANCH  10  11
ATOM     11  C   UNL     1       3.408  -5.120  -0.828  0.00  0.00    -0.028 A 
ATOM     12  C   UNL     1       3.402  -3.733  -0.621  0.00  0.00    +0.005 A 
ATOM     13  C   UNL     1       4.457  -5.877  -0.285  0.00  0.00    +0.005 A 
ATOM     14  C   UNL     1       4.408  -3.123   0.132  0.00  0.00    +0.000 A 
ATOM     15  C   UNL     1       5.461  -5.265   0.466  0.00  0.00    +0.000 A 
ATOM     16  C   UNL     1       5.435  -3.888   0.676  0.00  0.00    +0.000 A 
ENDBRANCH  10  11
ENDBRANCH   1  10
TORSDOF 2
ENDMDL
MODEL 7
REMARK VINA RESULT:    -5.586     15.433     16.969
REMARK INTER + INTRA:          -6.365
REMARK INTER:                  -6.193
REMARK INTRA:                  -0.171
REMARK UNBOUND:                -0.125
REMARK  Name = 1550473
REMARK  2 active torsions:
REMARK  status: ('A' for Active; 'I' for Inactive)
REMARK    1  A    between atoms: N_1  and  C_4
REMARK    2  A    between atoms: C_4  and  C_5
REMARK                            x       y       z     vdW  Elec       q    Type
REMARK                         _______ _______ _______ _____ _____    ______ ____
ROOT
ATOM      1  N   UNL     1       6.561   9.839 -12.028  0.00  0.00    -0.354 N 
ATOM      2  N   UNL     1       5.617  11.484 -13.356  0.00  0.00    -0.372 N 
ATOM      3  N   UNL     1       5.451   9.294 -14.019  0.00  0.00    -0.372 N 
ATOM      4  C   UNL     1       5.882  10.193 -13.127  0.00  0.00    +0.166 C 
ATOM      5  H   UNL     1       6.887  10.571 -11.407  0.00  0.00    +0.163 HD
ATOM      6  H   UNL     1       5.104  11.781 -14.175  0.00  0.00    +0.159 HD
ATOM      7  H   UNL     1       5.904  12.210 -12.710  0.00  0.00    +0.159 HD
ATOM      8  H   UNL     1       5.624   8.304 -13.907  0.00  0.00    +0.159 HD
ATOM      9  H   UNL     1       4.946   9.572 -14.850  0.00  0.00    +0.159 HD
ENDROOT
BRANCH   1  10
ATOM     10  C   UNL     1       6.855   8.455 -11.658  0.00  0.00    +0.151 C 
BRANCH  10  11
ATOM     11  C   UNL     1       6.023   8.079 -10.464  0.00  0.00    -0.028 A 
ATOM     12  C   UNL     1       4.703   7.632 -10.628  0.00  0.00    +0.005 A 
ATOM     13  C   UNL     1       6.550   8.160  -9.166  0.00  0.00    +0.005 A 
ATOM     14  C   UNL     1       3.940   7.254  -9.521  0.00  0.00    +0.000 A 
ATOM     15  C   UNL     1       5.784   7.782  -8.063  0.00  0.00    +0.000 A 
ATOM     16  C   UNL     1       4.480   7.327  -8.241  0.00  0.00    +0.000 A 
ENDBRANCH  10  11
ENDBRANCH   1  10
TORSDOF 2
ENDMDL
MODEL 8
REMARK VINA RESULT:    -5.522     14.697     15.740
REMARK INTER + INTRA:          -6.293
REMARK INTER:                  -6.159
REMARK INTRA:                  -0.133
REMARK UNBOUND:                -0.125
REMARK  Name = 1550473
REMARK  2 active torsions:
REMARK  status: ('A' for Active; 'I' for Inactive)
REMARK    1  A    between atoms: N_1  and  C_4
REMARK    2  A    between atoms: C_4  and  C_5
REMARK                            x       y       z     vdW  Elec       q    Type
REMARK                         _______ _______ _______ _____ _____    ______ ____
ROOT
ATOM      1  N   UNL     1       2.642   7.714 -11.770  0.00  0.00    -0.354 N 
ATOM      2  N   UNL     1       1.480   8.739 -13.491  0.00  0.00    -0.372 N 
ATOM      3  N   UNL     1       0.363   8.214 -11.556  0.00  0.00    -0.372 N 
ATOM      4  C   UNL     1       1.500   8.215 -12.259  0.00  0.00    +0.166 C 
ATOM      5  H   UNL     1       3.463   7.717 -12.364  0.00  0.00    +0.163 HD
ATOM      6  H   UNL     1       0.634   9.128 -13.886  0.00  0.00    +0.159 HD
ATOM      7  H   UNL     1       2.313   8.783 -14.065  0.00  0.00    +0.159 HD
ATOM      8  H   UNL     1       0.310   7.828 -10.623  0.00  0.00    +0.159 HD
ATOM      9  H   UNL     1      -0.497   8.588 -11.939  0.00  0.00    +0.159 HD
ENDROOT
BRANCH   1  10
ATOM     10  C   UNL     1       2.784   7.169 -10.421  0.00  0.00    +0.151 C 
BRANCH  10  11
ATOM     11  C   UNL     1       4.140   7.535  -9.883  0.00  0.00    -0.028 A 
ATOM     12  C   UNL     1       5.098   8.134 -10.715  0.00  0.00    +0.005 A 
ATOM     13  C   UNL     1       4.471   7.292  -8.542  0.00  0.00    +0.005 A 
ATOM     14  C   UNL     1       6.347   8.501 -10.209  0.00  0.00    +0.000 A 
ATOM     15  C   UNL     1       5.720   7.660  -8.040  0.00  0.00    +0.000 A 
ATOM     16  C   UNL     1       6.656   8.267  -8.874  0.00  0.00    +0.000 A 
ENDBRANCH  10  11
ENDBRANCH   1  10
TORSDOF 2
ENDMDL
MODEL 9
REMARK VINA RESULT:    -5.326      2.360      3.339
REMARK INTER + INTRA:          -6.074
REMARK INTER:                  -5.907
REMARK INTRA:                  -0.167
REMARK UNBOUND:                -0.125
REMARK  Name = 1550473
REMARK  2 active torsions:
REMARK  status: ('A' for Active; 'I' for Inactive)
REMARK    1  A    between atoms: N_1  and  C_4
REMARK    2  A    between atoms: C_4  and  C_5
REMARK                            x       y       z     vdW  Elec       q    Type
REMARK                         _______ _______ _______ _____ _____    ______ ____
ROOT
ATOM      1  N   UNL     1       2.505  -3.727  -1.998  0.00  0.00    -0.354 N 
ATOM      2  N   UNL     1       2.028  -4.654  -4.066  0.00  0.00    -0.372 N 
ATOM      3  N   UNL     1       1.718  -5.926  -2.182  0.00  0.00    -0.372 N 
ATOM      4  C   UNL     1       2.086  -4.765  -2.734  0.00  0.00    +0.166 C 
ATOM      5  H   UNL     1       2.800  -2.884  -2.479  0.00  0.00    +0.163 HD
ATOM      6  H   UNL     1       1.713  -5.419  -4.647  0.00  0.00    +0.159 HD
ATOM      7  H   UNL     1       2.279  -3.795  -4.541  0.00  0.00    +0.159 HD
ATOM      8  H   UNL     1       1.744  -6.077  -1.183  0.00  0.00    +0.159 HD
ATOM      9  H   UNL     1       1.410  -6.708  -2.748  0.00  0.00    +0.159 HD
ENDROOT
BRANCH   1  10
ATOM     10  C   UNL     1       2.555  -3.727  -0.537  0.00  0.00    +0.151 C 
BRANCH  10  11
ATOM     11  C   UNL     1       3.976  -3.937  -0.094  0.00  0.00    -0.028 A 
ATOM     12  C   UNL     1       4.483  -5.233   0.080  0.00  0.00    +0.005 A 
ATOM     13  C   UNL     1       4.823  -2.845   0.149  0.00  0.00    +0.005 A 
ATOM     14  C   UNL     1       5.812  -5.430   0.463  0.00  0.00    +0.000 A 
ATOM     15  C   UNL     1       6.149  -3.045   0.532  0.00  0.00    +0.000 A 
ATOM     16  C   UNL     1       6.644  -4.337   0.686  0.00  0.00    +0.000 A 
ENDBRANCH  10  11
ENDBRANCH   1  10
TORSDOF 2
ENDMDL
