MODEL 1
REMARK VINA RESULT:    -5.559      0.000      0.000
REMARK INTER + INTRA:          -6.330
REMARK INTER:                  -6.209
REMARK INTRA:                  -0.122
REMARK UNBOUND:                -0.122
REMARK  Name = 1550473
REMARK  2 active torsions:
REMARK  status: ('A' for Active; 'I' for Inactive)
REMARK    1  A    between atoms: N_1  and  C_4
REMARK    2  A    between atoms: C_4  and  C_5
REMARK                            x       y       z     vdW  Elec       q    Type
REMARK                         _______ _______ _______ _____ _____    ______ ____
ROOT
ATOM      1  N   UNL     1       2.397 -11.946 -19.544  0.00  0.00    -0.354 N 
ATOM      2  N   UNL     1       0.881 -11.257 -21.153  0.00  0.00    -0.372 N 
ATOM      3  N   UNL     1       0.708 -13.381 -20.305  0.00  0.00    -0.372 N 
ATOM      4  C   UNL     1       1.338 -12.202 -20.323  0.00  0.00    +0.166 C 
ATOM      5  H   UNL     1       2.849 -11.043 -19.627  0.00  0.00    +0.163 HD
ATOM      6  H   UNL     1       0.081 -11.419 -21.751  0.00  0.00    +0.159 HD
ATOM      7  H   UNL     1       1.306 -10.339 -21.201  0.00  0.00    +0.159 HD
ATOM      8  H   UNL     1       1.007 -14.139 -19.705  0.00  0.00    +0.159 HD
ATOM      9  H   UNL     1      -0.087 -13.567 -20.904  0.00  0.00    +0.159 HD
ENDROOT
BRANCH   1  10
ATOM     10  C   UNL     1       2.940 -12.889 -18.567  0.00  0.00    +0.151 C 
BRANCH  10  11
ATOM     11  C   UNL     1       3.936 -12.174 -17.696  0.00  0.00    -0.028 A 
ATOM     12  C   UNL     1       4.920 -12.893 -17.002  0.00  0.00    +0.005 A 
ATOM     13  C   UNL     1       3.905 -10.777 -17.566  0.00  0.00    +0.005 A 
ATOM     14  C   UNL     1       5.864 -12.226 -16.216  0.00  0.00    +0.000 A 
ATOM     15  C   UNL     1       4.848 -10.115 -16.780  0.00  0.00    +0.000 A 
ATOM     16  C   UNL     1       5.829 -10.840 -16.108  0.00  0.00    +0.000 A 
ENDBRANCH  10  11
ENDBRANCH   1  10
TORSDOF 2
ENDMDL
MODEL 2
REMARK VINA RESULT:    -5.291     12.484     13.278
REMARK INTER + INTRA:          -6.031
REMARK INTER:                  -5.919
REMARK INTRA:                  -0.112
REMARK UNBOUND:                -0.122
REMARK  Name = 1550473
REMARK  2 active torsions:
REMARK  status: ('A' for Active; 'I' for Inactive)
REMARK    1  A    between atoms: N_1  and  C_4
REMARK    2  A    between atoms: C_4  and  C_5
REMARK                            x       y       z     vdW  Elec       q    Type
REMARK                         _______ _______ _______ _____ _____    ______ ____
ROOT
ATOM      1  N   UNL     1      -3.128 -17.945 -11.589  0.00  0.00    -0.354 N 
ATOM      2  N   UNL     1      -1.751 -16.083 -11.652  0.00  0.00    -0.372 N 
ATOM      3  N   UNL     1      -0.796 -18.169 -11.639  0.00  0.00    -0.372 N 
ATOM      4  C   UNL     1      -1.899 -17.413 -11.626  0.00  0.00    +0.166 C 
ATOM      5  H   UNL     1      -3.923 -17.317 -11.550  0.00  0.00    +0.163 HD
ATOM      6  H   UNL     1      -0.837 -15.653 -11.684  0.00  0.00    +0.159 HD
ATOM      7  H   UNL     1      -2.549 -15.459 -11.660  0.00  0.00    +0.159 HD
ATOM      8  H   UNL     1      -0.838 -19.179 -11.615  0.00  0.00    +0.159 HD
ATOM      9  H   UNL     1       0.129 -17.757 -11.659  0.00  0.00    +0.159 HD
ENDROOT
BRANCH   1  10
ATOM     10  C   UNL     1      -3.399 -19.381 -11.612  0.00  0.00    +0.151 C 
BRANCH  10  11
ATOM     11  C   UNL     1      -3.786 -19.830 -10.230  0.00  0.00    -0.028 A 
ATOM     12  C   UNL     1      -2.840 -19.844  -9.195  0.00  0.00    +0.005 A 
ATOM     13  C   UNL     1      -5.099 -20.238  -9.948  0.00  0.00    +0.005 A 
ATOM     14  C   UNL     1      -3.206 -20.233  -7.904  0.00  0.00    +0.000 A 
ATOM     15  C   UNL     1      -5.460 -20.626  -8.659  0.00  0.00    +0.000 A 
ATOM     16  C   UNL     1      -4.515 -20.621  -7.636  0.00  0.00    +0.000 A 
ENDBRANCH  10  11
ENDBRANCH   1  10
TORSDOF 2
ENDMDL
MODEL 3
REMARK VINA RESULT:    -5.015      3.881      5.176
REMARK INTER + INTRA:          -5.723
REMARK INTER:                  -5.600
REMARK INTRA:                  -0.123
REMARK UNBOUND:                -0.122
REMARK  Name = 1550473
REMARK  2 active torsions:
REMARK  status: ('A' for Active; 'I' for Inactive)
REMARK    1  A    between atoms: N_1  and  C_4
REMARK    2  A    between atoms: C_4  and  C_5
REMARK                            x       y       z     vdW  Elec       q    Type
REMARK                         _______ _______ _______ _____ _____    ______ ____
ROOT
ATOM      1  N   UNL     1       6.236  -8.233 -17.080  0.00  0.00    -0.354 N 
ATOM      2  N   UNL     1       7.609  -6.808 -18.283  0.00  0.00    -0.372 N 
ATOM      3  N   UNL     1       5.336  -6.642 -18.546  0.00  0.00    -0.372 N 
ATOM      4  C   UNL     1       6.382  -7.236 -17.963  0.00  0.00    +0.166 C 
ATOM      5  H   UNL     1       7.070  -8.662 -16.696  0.00  0.00    +0.163 HD
ATOM      6  H   UNL     1       7.750  -6.055 -18.944  0.00  0.00    +0.159 HD
ATOM      7  H   UNL     1       8.439  -7.208 -17.864  0.00  0.00    +0.159 HD
ATOM      8  H   UNL     1       4.384  -6.923 -18.352  0.00  0.00    +0.159 HD
ATOM      9  H   UNL     1       5.457  -5.895 -19.219  0.00  0.00    +0.159 HD
ENDROOT
BRANCH   1  10
ATOM     10  C   UNL     1       4.943  -8.738 -16.623  0.00  0.00    +0.151 C 
BRANCH  10  11
ATOM     11  C   UNL     1       4.917 -10.234 -16.775  0.00  0.00    -0.028 A 
ATOM     12  C   UNL     1       3.976 -10.848 -17.614  0.00  0.00    +0.005 A 
ATOM     13  C   UNL     1       5.835 -11.042 -16.087  0.00  0.00    +0.005 A 
ATOM     14  C   UNL     1       3.971 -12.235 -17.779  0.00  0.00    +0.000 A 
ATOM     15  C   UNL     1       5.826 -12.427 -16.253  0.00  0.00    +0.000 A 
ATOM     16  C   UNL     1       4.896 -13.023 -17.101  0.00  0.00    +0.000 A 
ENDBRANCH  10  11
ENDBRANCH   1  10
TORSDOF 2
ENDMDL
MODEL 4
REMARK VINA RESULT:    -5.002     22.561     23.440
REMARK INTER + INTRA:          -5.708
REMARK INTER:                  -5.569
REMARK INTRA:                  -0.139
REMARK UNBOUND:                -0.122
REMARK  Name = 1550473
REMARK  2 active torsions:
REMARK  status: ('A' for Active; 'I' for Inactive)
REMARK    1  A    between atoms: N_1  and  C_4
REMARK    2  A    between atoms: C_4  and  C_5
REMARK                            x       y       z     vdW  Elec       q    Type
REMARK                         _______ _______ _______ _____ _____    ______ ____
ROOT
ATOM      1  N   UNL     1      -0.823   1.369   0.603  0.00  0.00    -0.354 N 
ATOM      2  N   UNL     1      -0.145   3.536   1.059  0.00  0.00    -0.372 N 
ATOM      3  N   UNL     1      -2.206   2.842   1.790  0.00  0.00    -0.372 N 
ATOM      4  C   UNL     1      -1.065   2.568   1.149  0.00  0.00    +0.166 C 
ATOM      5  H   UNL     1       0.049   1.234   0.104  0.00  0.00    +0.163 HD
ATOM      6  H   UNL     1      -0.298   4.450   1.464  0.00  0.00    +0.159 HD
ATOM      7  H   UNL     1       0.745   3.384   0.600  0.00  0.00    +0.159 HD
ATOM      8  H   UNL     1      -2.944   2.157   1.887  0.00  0.00    +0.159 HD
ATOM      9  H   UNL     1      -2.383   3.754   2.191  0.00  0.00    +0.159 HD
ENDROOT
BRANCH   1  10
ATOM     10  C   UNL     1      -1.737   0.231   0.691  0.00  0.00    +0.151 C 
BRANCH  10  11
ATOM     11  C   UNL     1      -0.962  -0.991   1.102  0.00  0.00    -0.028 A 
ATOM     12  C   UNL     1      -1.630  -2.150   1.522  0.00  0.00    +0.005 A 
ATOM     13  C   UNL     1       0.441  -0.997   1.067  0.00  0.00    +0.005 A 
ATOM     14  C   UNL     1      -0.911  -3.295   1.875  0.00  0.00    +0.000 A 
ATOM     15  C   UNL     1       1.155  -2.142   1.420  0.00  0.00    +0.000 A 
ATOM     16  C   UNL     1       0.479  -3.291   1.822  0.00  0.00    +0.000 A 
ENDBRANCH  10  11
ENDBRANCH   1  10
TORSDOF 2
ENDMDL
MODEL 5
REMARK VINA RESULT:    -4.965     11.749     12.747
REMARK INTER + INTRA:          -5.667
REMARK INTER:                  -5.530
REMARK INTRA:                  -0.137
REMARK UNBOUND:                -0.122
REMARK  Name = 1550473
REMARK  2 active torsions:
REMARK  status: ('A' for Active; 'I' for Inactive)
REMARK    1  A    between atoms: N_1  and  C_4
REMARK    2  A    between atoms: C_4  and  C_5
REMARK                            x       y       z     vdW  Elec       q    Type
REMARK                         _______ _______ _______ _____ _____    ______ ____
ROOT
ATOM      1  N   UNL     1      -1.279 -18.707 -11.756  0.00  0.00    -0.354 N 
ATOM      2  N   UNL     1      -0.312 -17.644 -13.572  0.00  0.00    -0.372 N 
ATOM      3  N   UNL     1      -1.433 -16.383 -12.017  0.00  0.00    -0.372 N 
ATOM      4  C   UNL     1      -1.016 -17.583 -12.435  0.00  0.00    +0.166 C 
ATOM      5  H   UNL     1      -0.960 -19.588 -12.142  0.00  0.00    +0.163 HD
ATOM      6  H   UNL     1      -0.096 -16.812 -14.105  0.00  0.00    +0.159 HD
ATOM      7  H   UNL     1       0.044 -18.521 -13.932  0.00  0.00    +0.159 HD
ATOM      8  H   UNL     1      -1.974 -16.270 -11.170  0.00  0.00    +0.159 HD
ATOM      9  H   UNL     1      -1.236 -15.541 -12.542  0.00  0.00    +0.159 HD
ENDROOT
BRANCH   1  10
ATOM     10  C   UNL     1      -1.990 -18.744 -10.480  0.00  0.00    +0.151 C 
BRANCH  10  11
ATOM     11  C   UNL     1      -3.020 -19.839 -10.522  0.00  0.00    -0.028 A 
ATOM     12  C   UNL     1      -3.085 -20.795  -9.499  0.00  0.00    +0.005 A 
ATOM     13  C   UNL     1      -3.937 -19.923 -11.581  0.00  0.00    +0.005 A 
ATOM     14  C   UNL     1      -4.061 -21.795  -9.523  0.00  0.00    +0.000 A 
ATOM     15  C   UNL     1      -4.909 -20.923 -11.602  0.00  0.00    +0.000 A 
ATOM     16  C   UNL     1      -4.972 -21.857 -10.571  0.00  0.00    +0.000 A 
ENDBRANCH  10  11
ENDBRANCH   1  10
TORSDOF 2
ENDMDL
MODEL 6
REMARK VINA RESULT:    -4.889      1.694      2.139
REMARK INTER + INTRA:          -5.583
REMARK INTER:                  -5.400
REMARK INTRA:                  -0.182
REMARK UNBOUND:                -0.122
REMARK  Name = 1550473
REMARK  2 active torsions:
REMARK  status: ('A' for Active; 'I' for Inactive)
REMARK    1  A    between atoms: N_1  and  C_4
REMARK    2  A    between atoms: C_4  and  C_5
REMARK                            x       y       z     vdW  Elec       q    Type
REMARK                         _______ _______ _______ _____ _____    ______ ____
ROOT
ATOM      1  N   UNL     1       2.138  -9.940 -20.722  0.00  0.00    -0.354 N 
ATOM      2  N   UNL     1      -0.170  -9.777 -20.616  0.00  0.00    -0.372 N 
ATOM      3  N   UNL     1       0.823 -11.790 -20.140  0.00  0.00    -0.372 N 
ATOM      4  C   UNL     1       0.946 -10.506 -20.493  0.00  0.00    +0.166 C 
ATOM      5  H   UNL     1       2.162  -8.970 -21.016  0.00  0.00    +0.163 HD
ATOM      6  H   UNL     1      -1.083 -10.175 -20.447  0.00  0.00    +0.159 HD
ATOM      7  H   UNL     1      -0.140  -8.795 -20.865  0.00  0.00    +0.159 HD
ATOM      8  H   UNL     1       1.625 -12.396 -20.035  0.00  0.00    +0.159 HD
ATOM      9  H   UNL     1      -0.084 -12.210 -19.977  0.00  0.00    +0.159 HD
ENDROOT
BRANCH   1  10
ATOM     10  C   UNL     1       3.416 -10.632 -20.563  0.00  0.00    +0.151 C 
BRANCH  10  11
ATOM     11  C   UNL     1       4.003 -10.278 -19.224  0.00  0.00    -0.028 A 
ATOM     12  C   UNL     1       3.938 -11.184 -18.156  0.00  0.00    +0.005 A 
ATOM     13  C   UNL     1       4.632  -9.040 -19.020  0.00  0.00    +0.005 A 
ATOM     14  C   UNL     1       4.509 -10.867 -16.921  0.00  0.00    +0.000 A 
ATOM     15  C   UNL     1       5.201  -8.727 -17.785  0.00  0.00    +0.000 A 
ATOM     16  C   UNL     1       5.142  -9.642 -16.737  0.00  0.00    +0.000 A 
ENDBRANCH  10  11
ENDBRANCH   1  10
TORSDOF 2
ENDMDL
MODEL 7
REMARK VINA RESULT:    -4.867     24.919     26.183
REMARK INTER + INTRA:          -5.557
REMARK INTER:                  -5.405
REMARK INTRA:                  -0.152
REMARK UNBOUND:                -0.122
REMARK  Name = 1550473
REMARK  2 active torsions:
REMARK  status: ('A' for Active; 'I' for Inactive)
REMARK    1  A    between atoms: N_1  and  C_4
REMARK    2  A    between atoms: C_4  and  C_5
REMARK                            x       y       z     vdW  Elec       q    Type
REMARK                         _______ _______ _______ _____ _____    ______ ____
ROOT
ATOM      1  N   UNL     1       0.213   1.326   5.286  0.00  0.00    -0.354 N 
ATOM      2  N   UNL     1      -0.529   2.622   7.056  0.00  0.00    -0.372 N 
ATOM      3  N   UNL     1      -0.667   0.337   7.220  0.00  0.00    -0.372 N 
ATOM      4  C   UNL     1      -0.324   1.417   6.510  0.00  0.00    +0.166 C 
ATOM      5  H   UNL     1       0.423   2.183   4.787  0.00  0.00    +0.163 HD
ATOM      6  H   UNL     1      -0.929   2.722   7.980  0.00  0.00    +0.159 HD
ATOM      7  H   UNL     1      -0.276   3.476   6.574  0.00  0.00    +0.159 HD
ATOM      8  H   UNL     1      -0.543  -0.600   6.862  0.00  0.00    +0.159 HD
ATOM      9  H   UNL     1      -1.080   0.417   8.141  0.00  0.00    +0.159 HD
ENDROOT
BRANCH   1  10
ATOM     10  C   UNL     1       0.527   0.062   4.623  0.00  0.00    +0.151 C 
BRANCH  10  11
ATOM     11  C   UNL     1      -0.202   0.001   3.309  0.00  0.00    -0.028 A 
ATOM     12  C   UNL     1      -1.602   0.088   3.268  0.00  0.00    +0.005 A 
ATOM     13  C   UNL     1       0.500  -0.137   2.103  0.00  0.00    +0.005 A 
ATOM     14  C   UNL     1      -2.278   0.062   2.045  0.00  0.00    +0.000 A 
ATOM     15  C   UNL     1      -0.179  -0.164   0.885  0.00  0.00    +0.000 A 
ATOM     16  C   UNL     1      -1.567  -0.062   0.856  0.00  0.00    +0.000 A 
ENDBRANCH  10  11
ENDBRANCH   1  10
TORSDOF 2
ENDMDL
MODEL 8
REMARK VINA RESULT:    -4.667     22.789     23.877
REMARK INTER + INTRA:          -5.334
REMARK INTER:                  -5.167
REMARK INTRA:                  -0.167
REMARK UNBOUND:                -0.122
REMARK  Name = 1550473
REMARK  2 active torsions:
REMARK  status: ('A' for Active; 'I' for Inactive)
REMARK    1  A    between atoms: N_1  and  C_4
REMARK    2  A    between atoms: C_4  and  C_5
REMARK                            x       y       z     vdW  Elec       q    Type
REMARK                         _______ _______ _______ _____ _____    ______ ____
ROOT
ATOM      1  N   UNL     1      -1.307  -2.972   3.587  0.00  0.00    -0.354 N 
ATOM      2  N   UNL     1      -2.387  -4.950   3.053  0.00  0.00    -0.372 N 
ATOM      3  N   UNL     1      -0.701  -4.204   1.687  0.00  0.00    -0.372 N 
ATOM      4  C   UNL     1      -1.456  -4.029   2.777  0.00  0.00    +0.166 C 
ATOM      5  H   UNL     1      -1.931  -2.882   4.380  0.00  0.00    +0.163 HD
ATOM      6  H   UNL     1      -2.520  -5.760   2.463  0.00  0.00    +0.159 HD
ATOM      7  H   UNL     1      -2.978  -4.881   3.872  0.00  0.00    +0.159 HD
ATOM      8  H   UNL     1       0.015  -3.541   1.420  0.00  0.00    +0.159 HD
ATOM      9  H   UNL     1      -0.827  -5.002   1.077  0.00  0.00    +0.159 HD
ENDROOT
BRANCH   1  10
ATOM     10  C   UNL     1      -0.287  -1.940   3.405  0.00  0.00    +0.151 C 
BRANCH  10  11
ATOM     11  C   UNL     1      -0.875  -0.804   2.614  0.00  0.00    -0.028 A 
ATOM     12  C   UNL     1      -1.931  -0.043   3.137  0.00  0.00    +0.005 A 
ATOM     13  C   UNL     1      -0.375  -0.479   1.343  0.00  0.00    +0.005 A 
ATOM     14  C   UNL     1      -2.457   1.031   2.415  0.00  0.00    +0.000 A 
ATOM     15  C   UNL     1      -0.904   0.594   0.625  0.00  0.00    +0.000 A 
ATOM     16  C   UNL     1      -1.942   1.351   1.163  0.00  0.00    +0.000 A 
ENDBRANCH  10  11
ENDBRANCH   1  10
TORSDOF 2
ENDMDL
MODEL 9
REMARK VINA RESULT:    -4.650     13.241     14.304
REMARK INTER + INTRA:          -5.316
REMARK INTER:                  -5.197
REMARK INTRA:                  -0.118
REMARK UNBOUND:                -0.122
REMARK  Name = 1550473
REMARK  2 active torsions:
REMARK  status: ('A' for Active; 'I' for Inactive)
REMARK    1  A    between atoms: N_1  and  C_4
REMARK    2  A    between atoms: C_4  and  C_5
REMARK                            x       y       z     vdW  Elec       q    Type
REMARK                         _______ _______ _______ _____ _____    ______ ____
ROOT
ATOM      1  N   UNL     1      -3.163 -18.598 -10.498  0.00  0.00    -0.354 N 
ATOM      2  N   UNL     1      -2.271 -17.280 -12.181  0.00  0.00    -0.372 N 
ATOM      3  N   UNL     1      -0.860 -18.590 -10.932  0.00  0.00    -0.372 N 
ATOM      4  C   UNL     1      -2.101 -18.166 -11.191  0.00  0.00    +0.166 C 
ATOM      5  H   UNL     1      -4.074 -18.215 -10.724  0.00  0.00    +0.163 HD
ATOM      6  H   UNL     1      -1.489 -16.939 -12.723  0.00  0.00    +0.159 HD
ATOM      7  H   UNL     1      -3.188 -16.934 -12.435  0.00  0.00    +0.159 HD
ATOM      8  H   UNL     1      -0.665 -19.254 -10.194  0.00  0.00    +0.159 HD
ATOM      9  H   UNL     1      -0.063 -18.251 -11.456  0.00  0.00    +0.159 HD
ENDROOT
BRANCH   1  10
ATOM     10  C   UNL     1      -3.094 -19.601  -9.437  0.00  0.00    +0.151 C 
BRANCH  10  11
ATOM     11  C   UNL     1      -4.156 -20.639  -9.673  0.00  0.00    -0.028 A 
ATOM     12  C   UNL     1      -5.508 -20.272  -9.741  0.00  0.00    +0.005 A 
ATOM     13  C   UNL     1      -3.817 -21.991  -9.836  0.00  0.00    +0.005 A 
ATOM     14  C   UNL     1      -6.493 -21.231  -9.990  0.00  0.00    +0.000 A 
ATOM     15  C   UNL     1      -4.803 -22.946 -10.083  0.00  0.00    +0.000 A 
ATOM     16  C   UNL     1      -6.140 -22.566 -10.163  0.00  0.00    +0.000 A 
ENDBRANCH  10  11
ENDBRANCH   1  10
TORSDOF 2
ENDMDL
