MODEL 1
REMARK VINA RESULT:    -5.302      0.000      0.000
REMARK INTER + INTRA:          -6.102
REMARK INTER:                  -5.921
REMARK INTRA:                  -0.181
REMARK UNBOUND:                -0.181
REMARK  Name = 1550473
REMARK  2 active torsions:
REMARK  status: ('A' for Active; 'I' for Inactive)
REMARK    1  A    between atoms: N_1  and  C_4
REMARK    2  A    between atoms: C_4  and  C_5
REMARK                            x       y       z     vdW  Elec       q    Type
REMARK                         _______ _______ _______ _____ _____    ______ ____
ROOT
ATOM      1  N   UNL     1      10.006  20.264  15.210  0.00  0.00    -0.354 N 
ATOM      2  N   UNL     1      10.385  21.396  13.225  0.00  0.00    -0.372 N 
ATOM      3  N   UNL     1       8.420  20.240  13.485  0.00  0.00    -0.372 N 
ATOM      4  C   UNL     1       9.599  20.625  13.985  0.00  0.00    +0.166 C 
ATOM      5  H   UNL     1      10.924  20.564  15.519  0.00  0.00    +0.163 HD
ATOM      6  H   UNL     1      10.103  21.687  12.298  0.00  0.00    +0.159 HD
ATOM      7  H   UNL     1      11.282  21.732  13.555  0.00  0.00    +0.159 HD
ATOM      8  H   UNL     1       7.783  19.652  14.006  0.00  0.00    +0.159 HD
ATOM      9  H   UNL     1       8.125  20.511  12.555  0.00  0.00    +0.159 HD
ENDROOT
BRANCH   1  10
ATOM     10  C   UNL     1       9.203  19.471  16.138  0.00  0.00    +0.151 C 
BRANCH  10  11
ATOM     11  C   UNL     1       9.724  18.061  16.158  0.00  0.00    -0.028 A 
ATOM     12  C   UNL     1       9.044  17.040  15.477  0.00  0.00    +0.005 A 
ATOM     13  C   UNL     1      10.902  17.739  16.850  0.00  0.00    +0.005 A 
ATOM     14  C   UNL     1       9.544  15.736  15.471  0.00  0.00    +0.000 A 
ATOM     15  C   UNL     1      11.397  16.435  16.842  0.00  0.00    +0.000 A 
ATOM     16  C   UNL     1      10.719  15.435  16.150  0.00  0.00    +0.000 A 
ENDBRANCH  10  11
ENDBRANCH   1  10
TORSDOF 2
ENDMDL
MODEL 2
REMARK VINA RESULT:    -5.187     26.273     27.252
REMARK INTER + INTRA:          -5.974
REMARK INTER:                  -5.803
REMARK INTRA:                  -0.172
REMARK UNBOUND:                -0.181
REMARK  Name = 1550473
REMARK  2 active torsions:
REMARK  status: ('A' for Active; 'I' for Inactive)
REMARK    1  A    between atoms: N_1  and  C_4
REMARK    2  A    between atoms: C_4  and  C_5
REMARK                            x       y       z     vdW  Elec       q    Type
REMARK                         _______ _______ _______ _____ _____    ______ ____
ROOT
ATOM      1  N   UNL     1       2.723   6.878  -8.449  0.00  0.00    -0.354 N 
ATOM      2  N   UNL     1       4.529   5.837  -7.438  0.00  0.00    -0.372 N 
ATOM      3  N   UNL     1       2.531   4.716  -7.564  0.00  0.00    -0.372 N 
ATOM      4  C   UNL     1       3.247   5.815  -7.823  0.00  0.00    +0.166 C 
ATOM      5  H   UNL     1       3.311   7.692  -8.589  0.00  0.00    +0.163 HD
ATOM      6  H   UNL     1       4.953   5.049  -6.967  0.00  0.00    +0.159 HD
ATOM      7  H   UNL     1       5.126   6.635  -7.620  0.00  0.00    +0.159 HD
ATOM      8  H   UNL     1       1.556   4.639  -7.824  0.00  0.00    +0.159 HD
ATOM      9  H   UNL     1       2.934   3.922  -7.083  0.00  0.00    +0.159 HD
ENDROOT
BRANCH   1  10
ATOM     10  C   UNL     1       1.354   6.935  -8.957  0.00  0.00    +0.151 C 
BRANCH  10  11
ATOM     11  C   UNL     1       0.567   7.920  -8.138  0.00  0.00    -0.028 A 
ATOM     12  C   UNL     1       0.019   7.542  -6.903  0.00  0.00    +0.005 A 
ATOM     13  C   UNL     1       0.369   9.234  -8.588  0.00  0.00    +0.005 A 
ATOM     14  C   UNL     1      -0.687   8.465  -6.127  0.00  0.00    +0.000 A 
ATOM     15  C   UNL     1      -0.337  10.152  -7.811  0.00  0.00    +0.000 A 
ATOM     16  C   UNL     1      -0.863   9.768  -6.580  0.00  0.00    +0.000 A 
ENDBRANCH  10  11
ENDBRANCH   1  10
TORSDOF 2
ENDMDL
MODEL 3
REMARK VINA RESULT:    -5.083     23.332     24.427
REMARK INTER + INTRA:          -5.859
REMARK INTER:                  -5.680
REMARK INTRA:                  -0.179
REMARK UNBOUND:                -0.181
REMARK  Name = 1550473
REMARK  2 active torsions:
REMARK  status: ('A' for Active; 'I' for Inactive)
REMARK    1  A    between atoms: N_1  and  C_4
REMARK    2  A    between atoms: C_4  and  C_5
REMARK                            x       y       z     vdW  Elec       q    Type
REMARK                         _______ _______ _______ _____ _____    ______ ____
ROOT
ATOM      1  N   UNL     1       3.336   9.960  -4.769  0.00  0.00    -0.354 N 
ATOM      2  N   UNL     1       3.895  11.433  -3.071  0.00  0.00    -0.372 N 
ATOM      3  N   UNL     1       4.161  12.100  -5.251  0.00  0.00    -0.372 N 
ATOM      4  C   UNL     1       3.794  11.156  -4.377  0.00  0.00    +0.166 C 
ATOM      5  H   UNL     1       3.103   9.277  -4.057  0.00  0.00    +0.163 HD
ATOM      6  H   UNL     1       4.234  12.328  -2.746  0.00  0.00    +0.159 HD
ATOM      7  H   UNL     1       3.618  10.765  -2.362  0.00  0.00    +0.159 HD
ATOM      8  H   UNL     1       4.115  11.951  -6.250  0.00  0.00    +0.159 HD
ATOM      9  H   UNL     1       4.514  12.997  -4.944  0.00  0.00    +0.159 HD
ENDROOT
BRANCH   1  10
ATOM     10  C   UNL     1       3.137   9.578  -6.166  0.00  0.00    +0.151 C 
BRANCH  10  11
ATOM     11  C   UNL     1       1.680   9.718  -6.511  0.00  0.00    -0.028 A 
ATOM     12  C   UNL     1       1.278  10.530  -7.582  0.00  0.00    +0.005 A 
ATOM     13  C   UNL     1       0.698   9.037  -5.776  0.00  0.00    +0.005 A 
ATOM     14  C   UNL     1      -0.073  10.637  -7.922  0.00  0.00    +0.000 A 
ATOM     15  C   UNL     1      -0.649   9.148  -6.118  0.00  0.00    +0.000 A 
ATOM     16  C   UNL     1      -1.034   9.946  -7.193  0.00  0.00    +0.000 A 
ENDBRANCH  10  11
ENDBRANCH   1  10
TORSDOF 2
ENDMDL
MODEL 4
REMARK VINA RESULT:    -4.971     27.071     28.135
REMARK INTER + INTRA:          -5.733
REMARK INTER:                  -5.608
REMARK INTRA:                  -0.125
REMARK UNBOUND:                -0.181
REMARK  Name = 1550473
REMARK  2 active torsions:
REMARK  status: ('A' for Active; 'I' for Inactive)
REMARK    1  A    between atoms: N_1  and  C_4
REMARK    2  A    between atoms: C_4  and  C_5
REMARK                            x       y       z     vdW  Elec       q    Type
REMARK                         _______ _______ _______ _____ _____    ______ ____
ROOT
ATOM      1  N   UNL     1       3.200   4.407  -7.931  0.00  0.00    -0.354 N 
ATOM      2  N   UNL     1       4.797   2.965  -7.072  0.00  0.00    -0.372 N 
ATOM      3  N   UNL     1       4.338   2.900  -9.319  0.00  0.00    -0.372 N 
ATOM      4  C   UNL     1       4.101   3.433  -8.116  0.00  0.00    +0.166 C 
ATOM      5  H   UNL     1       3.046   4.747  -6.989  0.00  0.00    +0.163 HD
ATOM      6  H   UNL     1       5.485   2.233  -7.181  0.00  0.00    +0.159 HD
ATOM      7  H   UNL     1       4.673   3.339  -6.139  0.00  0.00    +0.159 HD
ATOM      8  H   UNL     1       3.842   3.205 -10.147  0.00  0.00    +0.159 HD
ATOM      9  H   UNL     1       5.015   2.158  -9.447  0.00  0.00    +0.159 HD
ENDROOT
BRANCH   1  10
ATOM     10  C   UNL     1       2.429   5.023  -9.010  0.00  0.00    +0.151 C 
BRANCH  10  11
ATOM     11  C   UNL     1       2.294   6.496  -8.738  0.00  0.00    -0.028 A 
ATOM     12  C   UNL     1       3.433   7.295  -8.561  0.00  0.00    +0.005 A 
ATOM     13  C   UNL     1       1.029   7.099  -8.661  0.00  0.00    +0.005 A 
ATOM     14  C   UNL     1       3.309   8.668  -8.338  0.00  0.00    +0.000 A 
ATOM     15  C   UNL     1       0.909   8.471  -8.438  0.00  0.00    +0.000 A 
ATOM     16  C   UNL     1       2.049   9.255  -8.279  0.00  0.00    +0.000 A 
ENDBRANCH  10  11
ENDBRANCH   1  10
TORSDOF 2
ENDMDL
MODEL 5
REMARK VINA RESULT:    -4.933     38.519     39.632
REMARK INTER + INTRA:          -5.691
REMARK INTER:                  -5.516
REMARK INTRA:                  -0.175
REMARK UNBOUND:                -0.181
REMARK  Name = 1550473
REMARK  2 active torsions:
REMARK  status: ('A' for Active; 'I' for Inactive)
REMARK    1  A    between atoms: N_1  and  C_4
REMARK    2  A    between atoms: C_4  and  C_5
REMARK                            x       y       z     vdW  Elec       q    Type
REMARK                         _______ _______ _______ _____ _____    ______ ____
ROOT
ATOM      1  N   UNL     1     -16.523   3.351 -10.923  0.00  0.00    -0.354 N 
ATOM      2  N   UNL     1     -16.666   5.606 -10.415  0.00  0.00    -0.372 N 
ATOM      3  N   UNL     1     -14.600   4.682 -10.791  0.00  0.00    -0.372 N 
ATOM      4  C   UNL     1     -15.926   4.531 -10.713  0.00  0.00    +0.166 C 
ATOM      5  H   UNL     1     -17.530   3.295 -10.820  0.00  0.00    +0.163 HD
ATOM      6  H   UNL     1     -16.244   6.510 -10.254  0.00  0.00    +0.159 HD
ATOM      7  H   UNL     1     -17.676   5.557 -10.357  0.00  0.00    +0.159 HD
ATOM      8  H   UNL     1     -13.984   3.909 -11.007  0.00  0.00    +0.159 HD
ATOM      9  H   UNL     1     -14.157   5.577 -10.622  0.00  0.00    +0.159 HD
ENDROOT
BRANCH   1  10
ATOM     10  C   UNL     1     -15.813   2.132 -11.307  0.00  0.00    +0.151 C 
BRANCH  10  11
ATOM     11  C   UNL     1     -15.789   1.189 -10.135  0.00  0.00    -0.028 A 
ATOM     12  C   UNL     1     -14.638   1.068  -9.343  0.00  0.00    +0.005 A 
ATOM     13  C   UNL     1     -16.915   0.418  -9.809  0.00  0.00    +0.005 A 
ATOM     14  C   UNL     1     -14.625   0.214  -8.237  0.00  0.00    +0.000 A 
ATOM     15  C   UNL     1     -16.898  -0.434  -8.705  0.00  0.00    +0.000 A 
ATOM     16  C   UNL     1     -15.753  -0.533  -7.917  0.00  0.00    +0.000 A 
ENDBRANCH  10  11
ENDBRANCH   1  10
TORSDOF 2
ENDMDL
MODEL 6
REMARK VINA RESULT:    -4.738     39.072     39.984
REMARK INTER + INTRA:          -5.472
REMARK INTER:                  -5.325
REMARK INTRA:                  -0.147
REMARK UNBOUND:                -0.181
REMARK  Name = 1550473
REMARK  2 active torsions:
REMARK  status: ('A' for Active; 'I' for Inactive)
REMARK    1  A    between atoms: N_1  and  C_4
REMARK    2  A    between atoms: C_4  and  C_5
REMARK                            x       y       z     vdW  Elec       q    Type
REMARK                         _______ _______ _______ _____ _____    ______ ____
ROOT
ATOM      1  N   UNL     1     -15.906   1.741 -10.585  0.00  0.00    -0.354 N 
ATOM      2  N   UNL     1     -16.499   3.845 -11.350  0.00  0.00    -0.372 N 
ATOM      3  N   UNL     1     -14.786   3.658  -9.835  0.00  0.00    -0.372 N 
ATOM      4  C   UNL     1     -15.725   3.068 -10.583  0.00  0.00    +0.166 C 
ATOM      5  H   UNL     1     -16.654   1.358 -11.151  0.00  0.00    +0.163 HD
ATOM      6  H   UNL     1     -16.383   4.849 -11.372  0.00  0.00    +0.159 HD
ATOM      7  H   UNL     1     -17.216   3.456 -11.950  0.00  0.00    +0.159 HD
ATOM      8  H   UNL     1     -14.173   3.129  -9.229  0.00  0.00    +0.159 HD
ATOM      9  H   UNL     1     -14.663   4.663  -9.834  0.00  0.00    +0.159 HD
ENDROOT
BRANCH   1  10
ATOM     10  C   UNL     1     -15.081   0.802  -9.827  0.00  0.00    +0.151 C 
BRANCH  10  11
ATOM     11  C   UNL     1     -15.964   0.004  -8.907  0.00  0.00    -0.028 A 
ATOM     12  C   UNL     1     -15.404  -0.835  -7.933  0.00  0.00    +0.005 A 
ATOM     13  C   UNL     1     -17.362   0.088  -9.001  0.00  0.00    +0.005 A 
ATOM     14  C   UNL     1     -16.224  -1.553  -7.059  0.00  0.00    +0.000 A 
ATOM     15  C   UNL     1     -18.177  -0.631  -8.126  0.00  0.00    +0.000 A 
ATOM     16  C   UNL     1     -17.607  -1.449  -7.154  0.00  0.00    +0.000 A 
ENDBRANCH  10  11
ENDBRANCH   1  10
TORSDOF 2
ENDMDL
MODEL 7
REMARK VINA RESULT:    -4.687     41.467     42.501
REMARK INTER + INTRA:          -5.416
REMARK INTER:                  -5.294
REMARK INTRA:                  -0.122
REMARK UNBOUND:                -0.181
REMARK  Name = 1550473
REMARK  2 active torsions:
REMARK  status: ('A' for Active; 'I' for Inactive)
REMARK    1  A    between atoms: N_1  and  C_4
REMARK    2  A    between atoms: C_4  and  C_5
REMARK                            x       y       z     vdW  Elec       q    Type
REMARK                         _______ _______ _______ _____ _____    ______ ____
ROOT
ATOM      1  N   UNL     1       1.279   3.809 -23.821  0.00  0.00    -0.354 N 
ATOM      2  N   UNL     1       3.053   3.815 -25.310  0.00  0.00    -0.372 N 
ATOM      3  N   UNL     1       3.190   5.104 -23.416  0.00  0.00    -0.372 N 
ATOM      4  C   UNL     1       2.497   4.245 -24.171  0.00  0.00    +0.166 C 
ATOM      5  H   UNL     1       0.793   3.182 -24.451  0.00  0.00    +0.163 HD
ATOM      6  H   UNL     1       3.972   4.124 -25.599  0.00  0.00    +0.159 HD
ATOM      7  H   UNL     1       2.584   3.153 -25.916  0.00  0.00    +0.159 HD
ATOM      8  H   UNL     1       2.824   5.470 -22.548  0.00  0.00    +0.159 HD
ATOM      9  H   UNL     1       4.106   5.433 -23.694  0.00  0.00    +0.159 HD
ENDROOT
BRANCH   1  10
ATOM     10  C   UNL     1       0.607   4.174 -22.575  0.00  0.00    +0.151 C 
BRANCH  10  11
ATOM     11  C   UNL     1      -0.609   3.306 -22.401  0.00  0.00    -0.028 A 
ATOM     12  C   UNL     1      -1.642   3.693 -21.534  0.00  0.00    +0.005 A 
ATOM     13  C   UNL     1      -0.737   2.098 -23.104  0.00  0.00    +0.005 A 
ATOM     14  C   UNL     1      -2.785   2.903 -21.395  0.00  0.00    +0.000 A 
ATOM     15  C   UNL     1      -1.880   1.311 -22.961  0.00  0.00    +0.000 A 
ATOM     16  C   UNL     1      -2.904   1.715 -22.109  0.00  0.00    +0.000 A 
ENDBRANCH  10  11
ENDBRANCH   1  10
TORSDOF 2
ENDMDL
MODEL 8
REMARK VINA RESULT:    -4.521     37.499     39.027
REMARK INTER + INTRA:          -5.230
REMARK INTER:                  -5.069
REMARK INTRA:                  -0.162
REMARK UNBOUND:                -0.181
REMARK  Name = 1550473
REMARK  2 active torsions:
REMARK  status: ('A' for Active; 'I' for Inactive)
REMARK    1  A    between atoms: N_1  and  C_4
REMARK    2  A    between atoms: C_4  and  C_5
REMARK                            x       y       z     vdW  Elec       q    Type
REMARK                         _______ _______ _______ _____ _____    ______ ____
ROOT
ATOM      1  N   UNL     1     -17.298  -8.610   3.035  0.00  0.00    -0.354 N 
ATOM      2  N   UNL     1     -16.293  -9.172   1.025  0.00  0.00    -0.372 N 
ATOM      3  N   UNL     1     -15.971 -10.533   2.845  0.00  0.00    -0.372 N 
ATOM      4  C   UNL     1     -16.526  -9.437   2.317  0.00  0.00    +0.166 C 
ATOM      5  H   UNL     1     -17.665  -7.780   2.583  0.00  0.00    +0.163 HD
ATOM      6  H   UNL     1     -15.717  -9.779   0.457  0.00  0.00    +0.159 HD
ATOM      7  H   UNL     1     -16.698  -8.366   0.565  0.00  0.00    +0.159 HD
ATOM      8  H   UNL     1     -16.104 -10.785   3.815  0.00  0.00    +0.159 HD
ATOM      9  H   UNL     1     -15.383 -11.146   2.296  0.00  0.00    +0.159 HD
ENDROOT
BRANCH   1  10
ATOM     10  C   UNL     1     -17.658  -8.837   4.433  0.00  0.00    +0.151 C 
BRANCH  10  11
ATOM     11  C   UNL     1     -16.935  -7.838   5.294  0.00  0.00    -0.028 A 
ATOM     12  C   UNL     1     -17.094  -6.462   5.075  0.00  0.00    +0.005 A 
ATOM     13  C   UNL     1     -16.094  -8.261   6.335  0.00  0.00    +0.005 A 
ATOM     14  C   UNL     1     -16.446  -5.533   5.893  0.00  0.00    +0.000 A 
ATOM     15  C   UNL     1     -15.449  -7.331   7.150  0.00  0.00    +0.000 A 
ATOM     16  C   UNL     1     -15.627  -5.968   6.930  0.00  0.00    +0.000 A 
ENDBRANCH  10  11
ENDBRANCH   1  10
TORSDOF 2
ENDMDL
MODEL 9
REMARK VINA RESULT:    -4.354     40.293     41.722
REMARK INTER + INTRA:          -5.044
REMARK INTER:                  -4.873
REMARK INTRA:                  -0.171
REMARK UNBOUND:                -0.181
REMARK  Name = 1550473
REMARK  2 active torsions:
REMARK  status: ('A' for Active; 'I' for Inactive)
REMARK    1  A    between atoms: N_1  and  C_4
REMARK    2  A    between atoms: C_4  and  C_5
REMARK                            x       y       z     vdW  Elec       q    Type
REMARK                         _______ _______ _______ _____ _____    ______ ____
ROOT
ATOM      1  N   UNL     1     -17.678  -3.419  -8.531  0.00  0.00    -0.354 N 
ATOM      2  N   UNL     1     -19.858  -3.861  -9.178  0.00  0.00    -0.372 N 
ATOM      3  N   UNL     1     -18.143  -4.440 -10.589  0.00  0.00    -0.372 N 
ATOM      4  C   UNL     1     -18.544  -3.905  -9.431  0.00  0.00    +0.166 C 
ATOM      5  H   UNL     1     -18.047  -2.999  -7.686  0.00  0.00    +0.163 HD
ATOM      6  H   UNL     1     -20.535  -4.222  -9.837  0.00  0.00    +0.159 HD
ATOM      7  H   UNL     1     -20.222  -3.482  -8.312  0.00  0.00    +0.159 HD
ATOM      8  H   UNL     1     -17.166  -4.497 -10.843  0.00  0.00    +0.159 HD
ATOM      9  H   UNL     1     -18.807  -4.796 -11.266  0.00  0.00    +0.159 HD
ENDROOT
BRANCH   1  10
ATOM     10  C   UNL     1     -16.225  -3.468  -8.686  0.00  0.00    +0.151 C 
BRANCH  10  11
ATOM     11  C   UNL     1     -15.706  -2.071  -8.885  0.00  0.00    -0.028 A 
ATOM     12  C   UNL     1     -15.180  -1.346  -7.805  0.00  0.00    +0.005 A 
ATOM     13  C   UNL     1     -15.731  -1.468 -10.152  0.00  0.00    +0.005 A 
ATOM     14  C   UNL     1     -14.670  -0.060  -7.995  0.00  0.00    +0.000 A 
ATOM     15  C   UNL     1     -15.221  -0.183 -10.337  0.00  0.00    +0.000 A 
ATOM     16  C   UNL     1     -14.689   0.520  -9.259  0.00  0.00    +0.000 A 
ENDBRANCH  10  11
ENDBRANCH   1  10
TORSDOF 2
ENDMDL
