MODEL 1
REMARK VINA RESULT:    -5.642      0.000      0.000
REMARK INTER + INTRA:          -6.461
REMARK INTER:                  -6.302
REMARK INTRA:                  -0.159
REMARK UNBOUND:                -0.159
REMARK  Name = 1550473
REMARK  2 active torsions:
REMARK  status: ('A' for Active; 'I' for Inactive)
REMARK    1  A    between atoms: N_1  and  C_4
REMARK    2  A    between atoms: C_4  and  C_5
REMARK                            x       y       z     vdW  Elec       q    Type
REMARK                         _______ _______ _______ _____ _____    ______ ____
ROOT
ATOM      1  N   UNL     1      -2.647  -7.671   0.169  0.00  0.00    -0.354 N 
ATOM      2  N   UNL     1      -2.421  -7.480  -2.128  0.00  0.00    -0.372 N 
ATOM      3  N   UNL     1      -3.716  -5.951  -1.010  0.00  0.00    -0.372 N 
ATOM      4  C   UNL     1      -2.932  -7.033  -0.974  0.00  0.00    +0.166 C 
ATOM      5  H   UNL     1      -2.071  -8.503   0.126  0.00  0.00    +0.163 HD
ATOM      6  H   UNL     1      -2.615  -7.018  -3.006  0.00  0.00    +0.159 HD
ATOM      7  H   UNL     1      -1.808  -8.285  -2.162  0.00  0.00    +0.159 HD
ATOM      8  H   UNL     1      -4.138  -5.567  -0.175  0.00  0.00    +0.159 HD
ATOM      9  H   UNL     1      -3.932  -5.481  -1.881  0.00  0.00    +0.159 HD
ENDROOT
BRANCH   1  10
ATOM     10  C   UNL     1      -3.109  -7.233   1.486  0.00  0.00    +0.151 C 
BRANCH  10  11
ATOM     11  C   UNL     1      -1.918  -6.871   2.329  0.00  0.00    -0.028 A 
ATOM     12  C   UNL     1      -1.195  -5.697   2.073  0.00  0.00    +0.005 A 
ATOM     13  C   UNL     1      -1.510  -7.696   3.389  0.00  0.00    +0.005 A 
ATOM     14  C   UNL     1      -0.107  -5.345   2.875  0.00  0.00    +0.000 A 
ATOM     15  C   UNL     1      -0.422  -7.341   4.186  0.00  0.00    +0.000 A 
ATOM     16  C   UNL     1       0.278  -6.164   3.931  0.00  0.00    +0.000 A 
ENDBRANCH  10  11
ENDBRANCH   1  10
TORSDOF 2
ENDMDL
MODEL 2
REMARK VINA RESULT:    -5.445      5.058      6.756
REMARK INTER + INTRA:          -6.241
REMARK INTER:                  -6.125
REMARK INTRA:                  -0.116
REMARK UNBOUND:                -0.159
REMARK  Name = 1550473
REMARK  2 active torsions:
REMARK  status: ('A' for Active; 'I' for Inactive)
REMARK    1  A    between atoms: N_1  and  C_4
REMARK    2  A    between atoms: C_4  and  C_5
REMARK                            x       y       z     vdW  Elec       q    Type
REMARK                         _______ _______ _______ _____ _____    ______ ____
ROOT
ATOM      1  N   UNL     1      -0.007  -7.334   7.371  0.00  0.00    -0.354 N 
ATOM      2  N   UNL     1      -0.140  -7.402   9.682  0.00  0.00    -0.372 N 
ATOM      3  N   UNL     1       1.781  -8.129   8.660  0.00  0.00    -0.372 N 
ATOM      4  C   UNL     1       0.548  -7.623   8.556  0.00  0.00    +0.166 C 
ATOM      5  H   UNL     1      -0.956  -6.980   7.358  0.00  0.00    +0.163 HD
ATOM      6  H   UNL     1       0.254  -7.607  10.591  0.00  0.00    +0.159 HD
ATOM      7  H   UNL     1      -1.072  -7.006   9.669  0.00  0.00    +0.159 HD
ATOM      8  H   UNL     1       2.351  -8.324   7.848  0.00  0.00    +0.159 HD
ATOM      9  H   UNL     1       2.188  -8.352   9.560  0.00  0.00    +0.159 HD
ENDROOT
BRANCH   1  10
ATOM     10  C   UNL     1       0.678  -7.486   6.089  0.00  0.00    +0.151 C 
BRANCH  10  11
ATOM     11  C   UNL     1      -0.117  -6.786   5.021  0.00  0.00    -0.028 A 
ATOM     12  C   UNL     1       0.521  -6.257   3.890  0.00  0.00    +0.005 A 
ATOM     13  C   UNL     1      -1.510  -6.653   5.133  0.00  0.00    +0.005 A 
ATOM     14  C   UNL     1      -0.221  -5.634   2.883  0.00  0.00    +0.000 A 
ATOM     15  C   UNL     1      -2.246  -6.029   4.127  0.00  0.00    +0.000 A 
ATOM     16  C   UNL     1      -1.602  -5.521   3.001  0.00  0.00    +0.000 A 
ENDBRANCH  10  11
ENDBRANCH   1  10
TORSDOF 2
ENDMDL
MODEL 3
REMARK VINA RESULT:    -5.436     21.947     22.726
REMARK INTER + INTRA:          -6.230
REMARK INTER:                  -6.104
REMARK INTRA:                  -0.126
REMARK UNBOUND:                -0.159
REMARK  Name = 1550473
REMARK  2 active torsions:
REMARK  status: ('A' for Active; 'I' for Inactive)
REMARK    1  A    between atoms: N_1  and  C_4
REMARK    2  A    between atoms: C_4  and  C_5
REMARK                            x       y       z     vdW  Elec       q    Type
REMARK                         _______ _______ _______ _____ _____    ______ ____
ROOT
ATOM      1  N   UNL     1       8.417  -3.964 -18.949  0.00  0.00    -0.354 N 
ATOM      2  N   UNL     1       7.946  -1.807 -19.649  0.00  0.00    -0.372 N 
ATOM      3  N   UNL     1       7.637  -3.542 -21.118  0.00  0.00    -0.372 N 
ATOM      4  C   UNL     1       8.003  -3.120 -19.903  0.00  0.00    +0.166 C 
ATOM      5  H   UNL     1       8.709  -3.578 -18.059  0.00  0.00    +0.163 HD
ATOM      6  H   UNL     1       7.634  -1.146 -20.348  0.00  0.00    +0.159 HD
ATOM      7  H   UNL     1       8.195  -1.428 -18.743  0.00  0.00    +0.159 HD
ATOM      8  H   UNL     1       7.663  -4.519 -21.376  0.00  0.00    +0.159 HD
ATOM      9  H   UNL     1       7.334  -2.894 -21.835  0.00  0.00    +0.159 HD
ENDROOT
BRANCH   1  10
ATOM     10  C   UNL     1       8.465  -5.416 -19.107  0.00  0.00    +0.151 C 
BRANCH  10  11
ATOM     11  C   UNL     1       9.302  -6.003 -18.004  0.00  0.00    -0.028 A 
ATOM     12  C   UNL     1       9.948  -5.169 -17.080  0.00  0.00    +0.005 A 
ATOM     13  C   UNL     1       9.450  -7.393 -17.875  0.00  0.00    +0.005 A 
ATOM     14  C   UNL     1      10.702  -5.714 -16.038  0.00  0.00    +0.000 A 
ATOM     15  C   UNL     1      10.204  -7.933 -16.834  0.00  0.00    +0.000 A 
ATOM     16  C   UNL     1      10.828  -7.094 -15.914  0.00  0.00    +0.000 A 
ENDBRANCH  10  11
ENDBRANCH   1  10
TORSDOF 2
ENDMDL
MODEL 4
REMARK VINA RESULT:    -5.311      4.937      6.523
REMARK INTER + INTRA:          -6.091
REMARK INTER:                  -5.959
REMARK INTRA:                  -0.132
REMARK UNBOUND:                -0.159
REMARK  Name = 1550473
REMARK  2 active torsions:
REMARK  status: ('A' for Active; 'I' for Inactive)
REMARK    1  A    between atoms: N_1  and  C_4
REMARK    2  A    between atoms: C_4  and  C_5
REMARK                            x       y       z     vdW  Elec       q    Type
REMARK                         _______ _______ _______ _____ _____    ______ ____
ROOT
ATOM      1  N   UNL     1       0.073  -7.708   7.038  0.00  0.00    -0.354 N 
ATOM      2  N   UNL     1       1.636  -8.083   8.705  0.00  0.00    -0.372 N 
ATOM      3  N   UNL     1      -0.482  -7.426   9.298  0.00  0.00    -0.372 N 
ATOM      4  C   UNL     1       0.397  -7.735   8.338  0.00  0.00    +0.166 C 
ATOM      5  H   UNL     1       0.792  -7.924   6.358  0.00  0.00    +0.163 HD
ATOM      6  H   UNL     1       1.908  -8.116   9.679  0.00  0.00    +0.159 HD
ATOM      7  H   UNL     1       2.340  -8.343   8.026  0.00  0.00    +0.159 HD
ATOM      8  H   UNL     1      -1.431  -7.150   9.086  0.00  0.00    +0.159 HD
ATOM      9  H   UNL     1      -0.224  -7.442  10.277  0.00  0.00    +0.159 HD
ENDROOT
BRANCH   1  10
ATOM     10  C   UNL     1      -1.264  -7.395   6.535  0.00  0.00    +0.151 C 
BRANCH  10  11
ATOM     11  C   UNL     1      -1.139  -6.716   5.199  0.00  0.00    -0.028 A 
ATOM     12  C   UNL     1      -2.282  -6.285   4.510  0.00  0.00    +0.005 A 
ATOM     13  C   UNL     1       0.120  -6.494   4.620  0.00  0.00    +0.005 A 
ATOM     14  C   UNL     1      -2.165  -5.628   3.283  0.00  0.00    +0.000 A 
ATOM     15  C   UNL     1       0.232  -5.838   3.394  0.00  0.00    +0.000 A 
ATOM     16  C   UNL     1      -0.910  -5.402   2.728  0.00  0.00    +0.000 A 
ENDBRANCH  10  11
ENDBRANCH   1  10
TORSDOF 2
ENDMDL
MODEL 5
REMARK VINA RESULT:    -5.126      5.670      7.444
REMARK INTER + INTRA:          -5.884
REMARK INTER:                  -5.767
REMARK INTRA:                  -0.117
REMARK UNBOUND:                -0.159
REMARK  Name = 1550473
REMARK  2 active torsions:
REMARK  status: ('A' for Active; 'I' for Inactive)
REMARK    1  A    between atoms: N_1  and  C_4
REMARK    2  A    between atoms: C_4  and  C_5
REMARK                            x       y       z     vdW  Elec       q    Type
REMARK                         _______ _______ _______ _____ _____    ______ ____
ROOT
ATOM      1  N   UNL     1      -0.047  -8.844   8.218  0.00  0.00    -0.354 N 
ATOM      2  N   UNL     1      -1.271  -9.516  10.067  0.00  0.00    -0.372 N 
ATOM      3  N   UNL     1       0.137  -7.714  10.263  0.00  0.00    -0.372 N 
ATOM      4  C   UNL     1      -0.384  -8.685   9.505  0.00  0.00    +0.166 C 
ATOM      5  H   UNL     1      -0.454  -9.619   7.706  0.00  0.00    +0.163 HD
ATOM      6  H   UNL     1      -1.547  -9.418  11.034  0.00  0.00    +0.159 HD
ATOM      7  H   UNL     1      -1.711 -10.260   9.540  0.00  0.00    +0.159 HD
ATOM      8  H   UNL     1       0.816  -7.058   9.901  0.00  0.00    +0.159 HD
ATOM      9  H   UNL     1      -0.119  -7.607  11.237  0.00  0.00    +0.159 HD
ENDROOT
BRANCH   1  10
ATOM     10  C   UNL     1       0.869  -7.961   7.497  0.00  0.00    +0.151 C 
BRANCH  10  11
ATOM     11  C   UNL     1       0.140  -7.341   6.337  0.00  0.00    -0.028 A 
ATOM     12  C   UNL     1      -1.261  -7.302   6.315  0.00  0.00    +0.005 A 
ATOM     13  C   UNL     1       0.847  -6.786   5.259  0.00  0.00    +0.005 A 
ATOM     14  C   UNL     1      -1.938  -6.700   5.251  0.00  0.00    +0.000 A 
ATOM     15  C   UNL     1       0.168  -6.186   4.199  0.00  0.00    +0.000 A 
ATOM     16  C   UNL     1      -1.224  -6.141   4.196  0.00  0.00    +0.000 A 
ENDBRANCH  10  11
ENDBRANCH   1  10
TORSDOF 2
ENDMDL
MODEL 6
REMARK VINA RESULT:    -5.119      3.100      4.366
REMARK INTER + INTRA:          -5.876
REMARK INTER:                  -5.773
REMARK INTRA:                  -0.103
REMARK UNBOUND:                -0.159
REMARK  Name = 1550473
REMARK  2 active torsions:
REMARK  status: ('A' for Active; 'I' for Inactive)
REMARK    1  A    between atoms: N_1  and  C_4
REMARK    2  A    between atoms: C_4  and  C_5
REMARK                            x       y       z     vdW  Elec       q    Type
REMARK                         _______ _______ _______ _____ _____    ______ ____
ROOT
ATOM      1  N   UNL     1      -3.365  -6.157  -1.022  0.00  0.00    -0.354 N 
ATOM      2  N   UNL     1      -2.506  -7.767  -2.447  0.00  0.00    -0.372 N 
ATOM      3  N   UNL     1      -2.633  -8.226  -0.203  0.00  0.00    -0.372 N 
ATOM      4  C   UNL     1      -2.840  -7.374  -1.212  0.00  0.00    +0.166 C 
ATOM      5  H   UNL     1      -3.469  -5.546  -1.825  0.00  0.00    +0.163 HD
ATOM      6  H   UNL     1      -2.110  -8.681  -2.622  0.00  0.00    +0.159 HD
ATOM      7  H   UNL     1      -2.653  -7.173  -3.254  0.00  0.00    +0.159 HD
ATOM      8  H   UNL     1      -2.858  -7.988   0.754  0.00  0.00    +0.159 HD
ATOM      9  H   UNL     1      -2.227  -9.141  -0.356  0.00  0.00    +0.159 HD
ENDROOT
BRANCH   1  10
ATOM     10  C   UNL     1      -3.813  -5.652   0.275  0.00  0.00    +0.151 C 
BRANCH  10  11
ATOM     11  C   UNL     1      -3.597  -4.165   0.324  0.00  0.00    -0.028 A 
ATOM     12  C   UNL     1      -2.716  -3.604   1.260  0.00  0.00    +0.005 A 
ATOM     13  C   UNL     1      -4.267  -3.311  -0.566  0.00  0.00    +0.005 A 
ATOM     14  C   UNL     1      -2.492  -2.225   1.287  0.00  0.00    +0.000 A 
ATOM     15  C   UNL     1      -4.041  -1.935  -0.535  0.00  0.00    +0.000 A 
ATOM     16  C   UNL     1      -3.152  -1.393   0.390  0.00  0.00    +0.000 A 
ENDBRANCH  10  11
ENDBRANCH   1  10
TORSDOF 2
ENDMDL
MODEL 7
REMARK VINA RESULT:    -5.072     23.605     24.417
REMARK INTER + INTRA:          -5.824
REMARK INTER:                  -5.707
REMARK INTRA:                  -0.117
REMARK UNBOUND:                -0.159
REMARK  Name = 1550473
REMARK  2 active torsions:
REMARK  status: ('A' for Active; 'I' for Inactive)
REMARK    1  A    between atoms: N_1  and  C_4
REMARK    2  A    between atoms: C_4  and  C_5
REMARK                            x       y       z     vdW  Elec       q    Type
REMARK                         _______ _______ _______ _____ _____    ______ ____
ROOT
ATOM      1  N   UNL     1       6.233   3.063  22.379  0.00  0.00    -0.354 N 
ATOM      2  N   UNL     1       5.697   0.809  22.373  0.00  0.00    -0.372 N 
ATOM      3  N   UNL     1       4.012   2.350  22.605  0.00  0.00    -0.372 N 
ATOM      4  C   UNL     1       5.315   2.090  22.453  0.00  0.00    +0.166 C 
ATOM      5  H   UNL     1       7.208   2.799  22.294  0.00  0.00    +0.163 HD
ATOM      6  H   UNL     1       5.027   0.054  22.423  0.00  0.00    +0.159 HD
ATOM      7  H   UNL     1       6.667   0.550  22.242  0.00  0.00    +0.159 HD
ATOM      8  H   UNL     1       3.660   3.295  22.678  0.00  0.00    +0.159 HD
ATOM      9  H   UNL     1       3.327   1.607  22.669  0.00  0.00    +0.159 HD
ENDROOT
BRANCH   1  10
ATOM     10  C   UNL     1       5.916   4.489  22.401  0.00  0.00    +0.151 C 
BRANCH  10  11
ATOM     11  C   UNL     1       6.660   5.176  21.289  0.00  0.00    -0.028 A 
ATOM     12  C   UNL     1       8.018   5.497  21.433  0.00  0.00    +0.005 A 
ATOM     13  C   UNL     1       6.015   5.501  20.086  0.00  0.00    +0.005 A 
ATOM     14  C   UNL     1       8.717   6.108  20.389  0.00  0.00    +0.000 A 
ATOM     15  C   UNL     1       6.717   6.111  19.046  0.00  0.00    +0.000 A 
ATOM     16  C   UNL     1       8.068   6.412  19.197  0.00  0.00    +0.000 A 
ENDBRANCH  10  11
ENDBRANCH   1  10
TORSDOF 2
ENDMDL
MODEL 8
REMARK VINA RESULT:    -4.938      1.491      2.384
REMARK INTER + INTRA:          -5.675
REMARK INTER:                  -5.543
REMARK INTRA:                  -0.132
REMARK UNBOUND:                -0.159
REMARK  Name = 1550473
REMARK  2 active torsions:
REMARK  status: ('A' for Active; 'I' for Inactive)
REMARK    1  A    between atoms: N_1  and  C_4
REMARK    2  A    between atoms: C_4  and  C_5
REMARK                            x       y       z     vdW  Elec       q    Type
REMARK                         _______ _______ _______ _____ _____    ______ ____
ROOT
ATOM      1  N   UNL     1      -3.228  -4.978   1.069  0.00  0.00    -0.354 N 
ATOM      2  N   UNL     1      -3.889  -3.322  -0.408  0.00  0.00    -0.372 N 
ATOM      3  N   UNL     1      -4.019  -5.515  -1.071  0.00  0.00    -0.372 N 
ATOM      4  C   UNL     1      -3.708  -4.618  -0.129  0.00  0.00    +0.166 C 
ATOM      5  H   UNL     1      -2.983  -4.249   1.729  0.00  0.00    +0.163 HD
ATOM      6  H   UNL     1      -4.253  -3.020  -1.302  0.00  0.00    +0.159 HD
ATOM      7  H   UNL     1      -3.686  -2.597   0.270  0.00  0.00    +0.159 HD
ATOM      8  H   UNL     1      -3.900  -6.508  -0.925  0.00  0.00    +0.159 HD
ATOM      9  H   UNL     1      -4.374  -5.231  -1.976  0.00  0.00    +0.159 HD
ENDROOT
BRANCH   1  10
ATOM     10  C   UNL     1      -3.044  -6.365   1.493  0.00  0.00    +0.151 C 
BRANCH  10  11
ATOM     11  C   UNL     1      -1.869  -6.442   2.428  0.00  0.00    -0.028 A 
ATOM     12  C   UNL     1      -1.700  -7.551   3.269  0.00  0.00    +0.005 A 
ATOM     13  C   UNL     1      -0.918  -5.411   2.473  0.00  0.00    +0.005 A 
ATOM     14  C   UNL     1      -0.592  -7.637   4.116  0.00  0.00    +0.000 A 
ATOM     15  C   UNL     1       0.186  -5.500   3.321  0.00  0.00    +0.000 A 
ATOM     16  C   UNL     1       0.350  -6.614   4.141  0.00  0.00    +0.000 A 
ENDBRANCH  10  11
ENDBRANCH   1  10
TORSDOF 2
ENDMDL
MODEL 9
REMARK VINA RESULT:    -4.766      2.733      4.072
REMARK INTER + INTRA:          -5.482
REMARK INTER:                  -5.380
REMARK INTRA:                  -0.102
REMARK UNBOUND:                -0.159
REMARK  Name = 1550473
REMARK  2 active torsions:
REMARK  status: ('A' for Active; 'I' for Inactive)
REMARK    1  A    between atoms: N_1  and  C_4
REMARK    2  A    between atoms: C_4  and  C_5
REMARK                            x       y       z     vdW  Elec       q    Type
REMARK                         _______ _______ _______ _____ _____    ______ ____
ROOT
ATOM      1  N   UNL     1      -0.977  -7.038   3.486  0.00  0.00    -0.354 N 
ATOM      2  N   UNL     1      -2.743  -7.505   2.064  0.00  0.00    -0.372 N 
ATOM      3  N   UNL     1      -1.696  -5.470   1.900  0.00  0.00    -0.372 N 
ATOM      4  C   UNL     1      -1.793  -6.665   2.492  0.00  0.00    +0.166 C 
ATOM      5  H   UNL     1      -1.121  -7.946   3.914  0.00  0.00    +0.163 HD
ATOM      6  H   UNL     1      -3.372  -7.253   1.313  0.00  0.00    +0.159 HD
ATOM      7  H   UNL     1      -2.856  -8.430   2.461  0.00  0.00    +0.159 HD
ATOM      8  H   UNL     1      -1.004  -4.788   2.181  0.00  0.00    +0.159 HD
ATOM      9  H   UNL     1      -2.324  -5.195   1.155  0.00  0.00    +0.159 HD
ENDROOT
BRANCH   1  10
ATOM     10  C   UNL     1       0.125  -6.220   3.990  0.00  0.00    +0.151 C 
BRANCH  10  11
ATOM     11  C   UNL     1       0.913  -7.018   4.992  0.00  0.00    -0.028 A 
ATOM     12  C   UNL     1       1.051  -6.567   6.312  0.00  0.00    +0.005 A 
ATOM     13  C   UNL     1       1.518  -8.231   4.627  0.00  0.00    +0.005 A 
ATOM     14  C   UNL     1       1.757  -7.324   7.250  0.00  0.00    +0.000 A 
ATOM     15  C   UNL     1       2.223  -8.983   5.567  0.00  0.00    +0.000 A 
ATOM     16  C   UNL     1       2.341  -8.530   6.879  0.00  0.00    +0.000 A 
ENDBRANCH  10  11
ENDBRANCH   1  10
TORSDOF 2
ENDMDL
