MODEL 1
REMARK VINA RESULT:    -5.351      0.000      0.000
REMARK INTER + INTRA:          -6.127
REMARK INTER:                  -5.977
REMARK INTRA:                  -0.150
REMARK UNBOUND:                -0.150
REMARK  Name = 1550473
REMARK  2 active torsions:
REMARK  status: ('A' for Active; 'I' for Inactive)
REMARK    1  A    between atoms: N_1  and  C_4
REMARK    2  A    between atoms: C_4  and  C_5
REMARK                            x       y       z     vdW  Elec       q    Type
REMARK                         _______ _______ _______ _____ _____    ______ ____
ROOT
ATOM      1  N   UNL     1       3.923   1.472  19.268  0.00  0.00    -0.354 N 
ATOM      2  N   UNL     1       3.965   0.958  17.010  0.00  0.00    -0.372 N 
ATOM      3  N   UNL     1       1.936   1.191  18.057  0.00  0.00    -0.372 N 
ATOM      4  C   UNL     1       3.271   1.210  18.127  0.00  0.00    +0.166 C 
ATOM      5  H   UNL     1       4.936   1.441  19.262  0.00  0.00    +0.163 HD
ATOM      6  H   UNL     1       3.501   0.760  16.134  0.00  0.00    +0.159 HD
ATOM      7  H   UNL     1       4.977   0.973  16.997  0.00  0.00    +0.159 HD
ATOM      8  H   UNL     1       1.355   1.367  18.866  0.00  0.00    +0.159 HD
ATOM      9  H   UNL     1       1.453   0.984  17.192  0.00  0.00    +0.159 HD
ENDROOT
BRANCH   1  10
ATOM     10  C   UNL     1       3.262   1.812  20.527  0.00  0.00    +0.151 C 
BRANCH  10  11
ATOM     11  C   UNL     1       3.062   3.301  20.590  0.00  0.00    -0.028 A 
ATOM     12  C   UNL     1       1.773   3.849  20.533  0.00  0.00    +0.005 A 
ATOM     13  C   UNL     1       4.158   4.169  20.713  0.00  0.00    +0.005 A 
ATOM     14  C   UNL     1       1.584   5.231  20.622  0.00  0.00    +0.000 A 
ATOM     15  C   UNL     1       3.966   5.547  20.800  0.00  0.00    +0.000 A 
ATOM     16  C   UNL     1       2.679   6.078  20.757  0.00  0.00    +0.000 A 
ENDBRANCH  10  11
ENDBRANCH   1  10
TORSDOF 2
ENDMDL
MODEL 2
REMARK VINA RESULT:    -5.280      1.879      2.415
REMARK INTER + INTRA:          -6.047
REMARK INTER:                  -5.928
REMARK INTRA:                  -0.119
REMARK UNBOUND:                -0.150
REMARK  Name = 1550473
REMARK  2 active torsions:
REMARK  status: ('A' for Active; 'I' for Inactive)
REMARK    1  A    between atoms: N_1  and  C_4
REMARK    2  A    between atoms: C_4  and  C_5
REMARK                            x       y       z     vdW  Elec       q    Type
REMARK                         _______ _______ _______ _____ _____    ______ ____
ROOT
ATOM      1  N   UNL     1       3.354   1.463  19.396  0.00  0.00    -0.354 N 
ATOM      2  N   UNL     1       4.665   1.568  17.489  0.00  0.00    -0.372 N 
ATOM      3  N   UNL     1       2.799   2.896  17.626  0.00  0.00    -0.372 N 
ATOM      4  C   UNL     1       3.596   1.977  18.182  0.00  0.00    +0.166 C 
ATOM      5  H   UNL     1       3.979   0.748  19.748  0.00  0.00    +0.163 HD
ATOM      6  H   UNL     1       4.875   1.940  16.573  0.00  0.00    +0.159 HD
ATOM      7  H   UNL     1       5.314   0.887  17.864  0.00  0.00    +0.159 HD
ATOM      8  H   UNL     1       1.972   3.242  18.095  0.00  0.00    +0.159 HD
ATOM      9  H   UNL     1       2.986   3.272  16.705  0.00  0.00    +0.159 HD
ENDROOT
BRANCH   1  10
ATOM     10  C   UNL     1       2.247   1.880  20.254  0.00  0.00    +0.151 C 
BRANCH  10  11
ATOM     11  C   UNL     1       2.791   2.681  21.404  0.00  0.00    -0.028 A 
ATOM     12  C   UNL     1       4.175   2.773  21.616  0.00  0.00    +0.005 A 
ATOM     13  C   UNL     1       1.929   3.355  22.283  0.00  0.00    +0.005 A 
ATOM     14  C   UNL     1       4.682   3.542  22.666  0.00  0.00    +0.000 A 
ATOM     15  C   UNL     1       2.440   4.121  23.330  0.00  0.00    +0.000 A 
ATOM     16  C   UNL     1       3.816   4.216  23.520  0.00  0.00    +0.000 A 
ENDBRANCH  10  11
ENDBRANCH   1  10
TORSDOF 2
ENDMDL
MODEL 3
REMARK VINA RESULT:    -5.157      9.972     11.429
REMARK INTER + INTRA:          -5.910
REMARK INTER:                  -5.780
REMARK INTRA:                  -0.130
REMARK UNBOUND:                -0.150
REMARK  Name = 1550473
REMARK  2 active torsions:
REMARK  status: ('A' for Active; 'I' for Inactive)
REMARK    1  A    between atoms: N_1  and  C_4
REMARK    2  A    between atoms: C_4  and  C_5
REMARK                            x       y       z     vdW  Elec       q    Type
REMARK                         _______ _______ _______ _____ _____    ______ ____
ROOT
ATOM      1  N   UNL     1       3.866  13.442  18.662  0.00  0.00    -0.354 N 
ATOM      2  N   UNL     1       4.911  14.251  20.564  0.00  0.00    -0.372 N 
ATOM      3  N   UNL     1       3.950  15.741  19.108  0.00  0.00    -0.372 N 
ATOM      4  C   UNL     1       4.235  14.475  19.431  0.00  0.00    +0.166 C 
ATOM      5  H   UNL     1       4.139  12.509  18.947  0.00  0.00    +0.163 HD
ATOM      6  H   UNL     1       5.199  15.011  21.166  0.00  0.00    +0.159 HD
ATOM      7  H   UNL     1       5.142  13.314  20.870  0.00  0.00    +0.159 HD
ATOM      8  H   UNL     1       3.447  15.978  18.263  0.00  0.00    +0.159 HD
ATOM      9  H   UNL     1       4.240  16.516  19.691  0.00  0.00    +0.159 HD
ENDROOT
BRANCH   1  10
ATOM     10  C   UNL     1       3.080  13.575  17.436  0.00  0.00    +0.151 C 
BRANCH  10  11
ATOM     11  C   UNL     1       3.796  12.871  16.316  0.00  0.00    -0.028 A 
ATOM     12  C   UNL     1       3.954  13.495  15.070  0.00  0.00    +0.005 A 
ATOM     13  C   UNL     1       4.322  11.583  16.496  0.00  0.00    +0.005 A 
ATOM     14  C   UNL     1       4.645  12.854  14.038  0.00  0.00    +0.000 A 
ATOM     15  C   UNL     1       5.010  10.946  15.463  0.00  0.00    +0.000 A 
ATOM     16  C   UNL     1       5.174  11.583  14.235  0.00  0.00    +0.000 A 
ENDBRANCH  10  11
ENDBRANCH   1  10
TORSDOF 2
ENDMDL
MODEL 4
REMARK VINA RESULT:    -4.688      2.991      4.684
REMARK INTER + INTRA:          -5.386
REMARK INTER:                  -5.254
REMARK INTRA:                  -0.131
REMARK UNBOUND:                -0.150
REMARK  Name = 1550473
REMARK  2 active torsions:
REMARK  status: ('A' for Active; 'I' for Inactive)
REMARK    1  A    between atoms: N_1  and  C_4
REMARK    2  A    between atoms: C_4  and  C_5
REMARK                            x       y       z     vdW  Elec       q    Type
REMARK                         _______ _______ _______ _____ _____    ______ ____
ROOT
ATOM      1  N   UNL     1       2.018   5.616  20.595  0.00  0.00    -0.354 N 
ATOM      2  N   UNL     1       3.545   7.230  21.249  0.00  0.00    -0.372 N 
ATOM      3  N   UNL     1       3.235   5.390  22.585  0.00  0.00    -0.372 N 
ATOM      4  C   UNL     1       2.923   6.066  21.475  0.00  0.00    +0.166 C 
ATOM      5  H   UNL     1       1.804   6.190  19.788  0.00  0.00    +0.163 HD
ATOM      6  H   UNL     1       4.235   7.593  21.893  0.00  0.00    +0.159 HD
ATOM      7  H   UNL     1       3.362   7.779  20.419  0.00  0.00    +0.159 HD
ATOM      8  H   UNL     1       2.797   4.508  22.817  0.00  0.00    +0.159 HD
ATOM      9  H   UNL     1       3.914   5.743  23.248  0.00  0.00    +0.159 HD
ENDROOT
BRANCH   1  10
ATOM     10  C   UNL     1       1.324   4.335  20.720  0.00  0.00    +0.151 C 
BRANCH  10  11
ATOM     11  C   UNL     1       2.186   3.250  20.137  0.00  0.00    -0.028 A 
ATOM     12  C   UNL     1       2.634   3.332  18.811  0.00  0.00    +0.005 A 
ATOM     13  C   UNL     1       2.563   2.140  20.908  0.00  0.00    +0.005 A 
ATOM     14  C   UNL     1       3.460   2.339  18.278  0.00  0.00    +0.000 A 
ATOM     15  C   UNL     1       3.387   1.150  20.372  0.00  0.00    +0.000 A 
ATOM     16  C   UNL     1       3.837   1.251  19.058  0.00  0.00    +0.000 A 
ENDBRANCH  10  11
ENDBRANCH   1  10
TORSDOF 2
ENDMDL
MODEL 5
REMARK VINA RESULT:    -4.653      3.088      4.228
REMARK INTER + INTRA:          -5.347
REMARK INTER:                  -5.390
REMARK INTRA:                   0.043
REMARK UNBOUND:                -0.150
REMARK  Name = 1550473
REMARK  2 active torsions:
REMARK  status: ('A' for Active; 'I' for Inactive)
REMARK    1  A    between atoms: N_1  and  C_4
REMARK    2  A    between atoms: C_4  and  C_5
REMARK                            x       y       z     vdW  Elec       q    Type
REMARK                         _______ _______ _______ _____ _____    ______ ____
ROOT
ATOM      1  N   UNL     1       3.794   5.689  21.011  0.00  0.00    -0.354 N 
ATOM      2  N   UNL     1       3.165   6.846  19.106  0.00  0.00    -0.372 N 
ATOM      3  N   UNL     1       1.541   5.854  20.387  0.00  0.00    -0.372 N 
ATOM      4  C   UNL     1       2.835   6.121  20.181  0.00  0.00    +0.166 C 
ATOM      5  H   UNL     1       4.759   5.900  20.783  0.00  0.00    +0.163 HD
ATOM      6  H   UNL     1       2.463   7.189  18.464  0.00  0.00    +0.159 HD
ATOM      7  H   UNL     1       4.126   7.094  18.905  0.00  0.00    +0.159 HD
ATOM      8  H   UNL     1       1.226   5.307  21.177  0.00  0.00    +0.159 HD
ATOM      9  H   UNL     1       0.825   6.179  19.750  0.00  0.00    +0.159 HD
ENDROOT
BRANCH   1  10
ATOM     10  C   UNL     1       3.536   4.939  22.239  0.00  0.00    +0.151 C 
BRANCH  10  11
ATOM     11  C   UNL     1       3.166   3.525  21.882  0.00  0.00    -0.028 A 
ATOM     12  C   UNL     1       2.054   2.909  22.474  0.00  0.00    +0.005 A 
ATOM     13  C   UNL     1       3.920   2.799  20.947  0.00  0.00    +0.005 A 
ATOM     14  C   UNL     1       1.692   1.607  22.120  0.00  0.00    +0.000 A 
ATOM     15  C   UNL     1       3.556   1.499  20.598  0.00  0.00    +0.000 A 
ATOM     16  C   UNL     1       2.441   0.904  21.182  0.00  0.00    +0.000 A 
ENDBRANCH  10  11
ENDBRANCH   1  10
TORSDOF 2
ENDMDL
MODEL 6
REMARK VINA RESULT:    -4.652     28.336     31.121
REMARK INTER + INTRA:          -5.346
REMARK INTER:                  -5.200
REMARK INTRA:                  -0.146
REMARK UNBOUND:                -0.150
REMARK  Name = 1550473
REMARK  2 active torsions:
REMARK  status: ('A' for Active; 'I' for Inactive)
REMARK    1  A    between atoms: N_1  and  C_4
REMARK    2  A    between atoms: C_4  and  C_5
REMARK                            x       y       z     vdW  Elec       q    Type
REMARK                         _______ _______ _______ _____ _____    ______ ____
ROOT
ATOM      1  N   UNL     1       1.806 -12.163  -5.394  0.00  0.00    -0.354 N 
ATOM      2  N   UNL     1       2.782 -12.878  -3.419  0.00  0.00    -0.372 N 
ATOM      3  N   UNL     1       0.769 -11.781  -3.327  0.00  0.00    -0.372 N 
ATOM      4  C   UNL     1       1.777 -12.268  -4.058  0.00  0.00    +0.166 C 
ATOM      5  H   UNL     1       2.613 -12.526  -5.888  0.00  0.00    +0.163 HD
ATOM      6  H   UNL     1       2.786 -12.975  -2.412  0.00  0.00    +0.159 HD
ATOM      7  H   UNL     1       3.565 -13.281  -3.919  0.00  0.00    +0.159 HD
ATOM      8  H   UNL     1      -0.017 -11.304  -3.749  0.00  0.00    +0.159 HD
ATOM      9  H   UNL     1       0.761 -11.858  -2.318  0.00  0.00    +0.159 HD
ENDROOT
BRANCH   1  10
ATOM     10  C   UNL     1       0.736 -11.565  -6.190  0.00  0.00    +0.151 C 
BRANCH  10  11
ATOM     11  C   UNL     1       0.230 -12.582  -7.176  0.00  0.00    -0.028 A 
ATOM     12  C   UNL     1      -1.053 -12.460  -7.730  0.00  0.00    +0.005 A 
ATOM     13  C   UNL     1       1.032 -13.666  -7.565  0.00  0.00    +0.005 A 
ATOM     14  C   UNL     1      -1.511 -13.387  -8.668  0.00  0.00    +0.000 A 
ATOM     15  C   UNL     1       0.570 -14.590  -8.502  0.00  0.00    +0.000 A 
ATOM     16  C   UNL     1      -0.701 -14.449  -9.055  0.00  0.00    +0.000 A 
ENDBRANCH  10  11
ENDBRANCH   1  10
TORSDOF 2
ENDMDL
MODEL 7
REMARK VINA RESULT:    -4.598     32.240     33.633
REMARK INTER + INTRA:          -5.286
REMARK INTER:                  -5.167
REMARK INTRA:                  -0.119
REMARK UNBOUND:                -0.150
REMARK  Name = 1550473
REMARK  2 active torsions:
REMARK  status: ('A' for Active; 'I' for Inactive)
REMARK    1  A    between atoms: N_1  and  C_4
REMARK    2  A    between atoms: C_4  and  C_5
REMARK                            x       y       z     vdW  Elec       q    Type
REMARK                         _______ _______ _______ _____ _____    ______ ____
ROOT
ATOM      1  N   UNL     1      -0.294 -13.335  -8.757  0.00  0.00    -0.354 N 
ATOM      2  N   UNL     1       1.981 -13.709  -8.984  0.00  0.00    -0.372 N 
ATOM      3  N   UNL     1       1.269 -11.958  -7.683  0.00  0.00    -0.372 N 
ATOM      4  C   UNL     1       0.971 -12.996  -8.472  0.00  0.00    +0.166 C 
ATOM      5  H   UNL     1      -0.453 -14.114  -9.386  0.00  0.00    +0.163 HD
ATOM      6  H   UNL     1       2.945 -13.480  -8.783  0.00  0.00    +0.159 HD
ATOM      7  H   UNL     1       1.818 -14.515  -9.575  0.00  0.00    +0.159 HD
ATOM      8  H   UNL     1       0.553 -11.376  -7.270  0.00  0.00    +0.159 HD
ATOM      9  H   UNL     1       2.228 -11.706  -7.480  0.00  0.00    +0.159 HD
ENDROOT
BRANCH   1  10
ATOM     10  C   UNL     1      -1.466 -12.656  -8.208  0.00  0.00    +0.151 C 
BRANCH  10  11
ATOM     11  C   UNL     1      -2.706 -13.381  -8.653  0.00  0.00    -0.028 A 
ATOM     12  C   UNL     1      -2.656 -14.744  -8.980  0.00  0.00    +0.005 A 
ATOM     13  C   UNL     1      -3.936 -12.711  -8.744  0.00  0.00    +0.005 A 
ATOM     14  C   UNL     1      -3.814 -15.424  -9.365  0.00  0.00    +0.000 A 
ATOM     15  C   UNL     1      -5.090 -13.394  -9.129  0.00  0.00    +0.000 A 
ATOM     16  C   UNL     1      -5.029 -14.751  -9.437  0.00  0.00    +0.000 A 
ENDBRANCH  10  11
ENDBRANCH   1  10
TORSDOF 2
ENDMDL
MODEL 8
REMARK VINA RESULT:    -4.489      3.257      4.586
REMARK INTER + INTRA:          -5.164
REMARK INTER:                  -5.136
REMARK INTRA:                  -0.028
REMARK UNBOUND:                -0.150
REMARK  Name = 1550473
REMARK  2 active torsions:
REMARK  status: ('A' for Active; 'I' for Inactive)
REMARK    1  A    between atoms: N_1  and  C_4
REMARK    2  A    between atoms: C_4  and  C_5
REMARK                            x       y       z     vdW  Elec       q    Type
REMARK                         _______ _______ _______ _____ _____    ______ ____
ROOT
ATOM      1  N   UNL     1       2.361   3.621  22.662  0.00  0.00    -0.354 N 
ATOM      2  N   UNL     1       3.587   5.382  23.533  0.00  0.00    -0.372 N 
ATOM      3  N   UNL     1       4.650   3.393  23.109  0.00  0.00    -0.372 N 
ATOM      4  C   UNL     1       3.527   4.119  23.096  0.00  0.00    +0.166 C 
ATOM      5  H   UNL     1       1.539   4.212  22.706  0.00  0.00    +0.163 HD
ATOM      6  H   UNL     1       4.453   5.787  23.862  0.00  0.00    +0.159 HD
ATOM      7  H   UNL     1       2.774   5.986  23.532  0.00  0.00    +0.159 HD
ATOM      8  H   UNL     1       4.670   2.431  22.798  0.00  0.00    +0.159 HD
ATOM      9  H   UNL     1       5.524   3.777  23.447  0.00  0.00    +0.159 HD
ENDROOT
BRANCH   1  10
ATOM     10  C   UNL     1       2.199   2.274  22.116  0.00  0.00    +0.151 C 
BRANCH  10  11
ATOM     11  C   UNL     1       2.682   2.261  20.692  0.00  0.00    -0.028 A 
ATOM     12  C   UNL     1       3.431   1.180  20.205  0.00  0.00    +0.005 A 
ATOM     13  C   UNL     1       2.388   3.323  19.823  0.00  0.00    +0.005 A 
ATOM     14  C   UNL     1       3.854   1.153  18.873  0.00  0.00    +0.000 A 
ATOM     15  C   UNL     1       2.813   3.292  18.495  0.00  0.00    +0.000 A 
ATOM     16  C   UNL     1       3.544   2.206  18.020  0.00  0.00    +0.000 A 
ENDBRANCH  10  11
ENDBRANCH   1  10
TORSDOF 2
ENDMDL
MODEL 9
REMARK VINA RESULT:    -4.433     18.423     20.409
REMARK INTER + INTRA:          -5.101
REMARK INTER:                  -4.929
REMARK INTRA:                  -0.172
REMARK UNBOUND:                -0.150
REMARK  Name = 1550473
REMARK  2 active torsions:
REMARK  status: ('A' for Active; 'I' for Inactive)
REMARK    1  A    between atoms: N_1  and  C_4
REMARK    2  A    between atoms: C_4  and  C_5
REMARK                            x       y       z     vdW  Elec       q    Type
REMARK                         _______ _______ _______ _____ _____    ______ ____
ROOT
ATOM      1  N   UNL     1       2.227  -2.130   2.268  0.00  0.00    -0.354 N 
ATOM      2  N   UNL     1       2.162   0.132   1.777  0.00  0.00    -0.372 N 
ATOM      3  N   UNL     1       4.178  -0.962   1.702  0.00  0.00    -0.372 N 
ATOM      4  C   UNL     1       2.859  -1.002   1.919  0.00  0.00    +0.166 C 
ATOM      5  H   UNL     1       1.231  -2.088   2.448  0.00  0.00    +0.163 HD
ATOM      6  H   UNL     1       2.611   0.998   1.510  0.00  0.00    +0.159 HD
ATOM      7  H   UNL     1       1.159   0.161   1.912  0.00  0.00    +0.159 HD
ATOM      8  H   UNL     1       4.762  -1.782   1.798  0.00  0.00    +0.159 HD
ATOM      9  H   UNL     1       4.647  -0.102   1.446  0.00  0.00    +0.159 HD
ENDROOT
BRANCH   1  10
ATOM     10  C   UNL     1       2.885  -3.430   2.397  0.00  0.00    +0.151 C 
BRANCH  10  11
ATOM     11  C   UNL     1       2.546  -4.273   1.199  0.00  0.00    -0.028 A 
ATOM     12  C   UNL     1       1.470  -5.171   1.242  0.00  0.00    +0.005 A 
ATOM     13  C   UNL     1       3.294  -4.174   0.015  0.00  0.00    +0.005 A 
ATOM     14  C   UNL     1       1.136  -5.932   0.119  0.00  0.00    +0.000 A 
ATOM     15  C   UNL     1       2.958  -4.937  -1.103  0.00  0.00    +0.000 A 
ATOM     16  C   UNL     1       1.877  -5.814  -1.052  0.00  0.00    +0.000 A 
ENDBRANCH  10  11
ENDBRANCH   1  10
TORSDOF 2
ENDMDL
