MODEL 1
REMARK VINA RESULT:    -6.023      0.000      0.000
REMARK INTER + INTRA:          -6.868
REMARK INTER:                  -6.727
REMARK INTRA:                  -0.140
REMARK UNBOUND:                -0.140
REMARK  Name = 1550473
REMARK  2 active torsions:
REMARK  status: ('A' for Active; 'I' for Inactive)
REMARK    1  A    between atoms: N_1  and  C_4
REMARK    2  A    between atoms: C_4  and  C_5
REMARK                            x       y       z     vdW  Elec       q    Type
REMARK                         _______ _______ _______ _____ _____    ______ ____
ROOT
ATOM      1  N   UNL     1       6.514   5.645   5.393  0.00  0.00    -0.354 N 
ATOM      2  N   UNL     1       4.218   5.933   5.488  0.00  0.00    -0.372 N 
ATOM      3  N   UNL     1       5.082   4.392   4.025  0.00  0.00    -0.372 N 
ATOM      4  C   UNL     1       5.286   5.320   4.966  0.00  0.00    +0.166 C 
ATOM      5  H   UNL     1       6.603   6.378   6.087  0.00  0.00    +0.163 HD
ATOM      6  H   UNL     1       3.279   5.706   5.188  0.00  0.00    +0.159 HD
ATOM      7  H   UNL     1       4.307   6.633   6.215  0.00  0.00    +0.159 HD
ATOM      8  H   UNL     1       5.847   3.897   3.586  0.00  0.00    +0.159 HD
ATOM      9  H   UNL     1       4.151   4.159   3.703  0.00  0.00    +0.159 HD
ENDROOT
BRANCH   1  10
ATOM     10  C   UNL     1       7.740   4.999   4.928  0.00  0.00    +0.151 C 
BRANCH  10  11
ATOM     11  C   UNL     1       8.414   4.329   6.092  0.00  0.00    -0.028 A 
ATOM     12  C   UNL     1       8.548   2.933   6.130  0.00  0.00    +0.005 A 
ATOM     13  C   UNL     1       8.926   5.083   7.159  0.00  0.00    +0.005 A 
ATOM     14  C   UNL     1       9.201   2.312   7.197  0.00  0.00    +0.000 A 
ATOM     15  C   UNL     1       9.577   4.459   8.223  0.00  0.00    +0.000 A 
ATOM     16  C   UNL     1       9.716   3.074   8.241  0.00  0.00    +0.000 A 
ENDBRANCH  10  11
ENDBRANCH   1  10
TORSDOF 2
ENDMDL
MODEL 2
REMARK VINA RESULT:    -5.622      4.132      7.571
REMARK INTER + INTRA:          -6.419
REMARK INTER:                  -6.329
REMARK INTRA:                  -0.091
REMARK UNBOUND:                -0.140
REMARK  Name = 1550473
REMARK  2 active torsions:
REMARK  status: ('A' for Active; 'I' for Inactive)
REMARK    1  A    between atoms: N_1  and  C_4
REMARK    2  A    between atoms: C_4  and  C_5
REMARK                            x       y       z     vdW  Elec       q    Type
REMARK                         _______ _______ _______ _____ _____    ______ ____
ROOT
ATOM      1  N   UNL     1       3.816   6.021   5.227  0.00  0.00    -0.354 N 
ATOM      2  N   UNL     1       5.999   5.799   5.970  0.00  0.00    -0.372 N 
ATOM      3  N   UNL     1       5.280   4.484   4.233  0.00  0.00    -0.372 N 
ATOM      4  C   UNL     1       5.017   5.434   5.137  0.00  0.00    +0.166 C 
ATOM      5  H   UNL     1       3.672   6.712   5.954  0.00  0.00    +0.163 HD
ATOM      6  H   UNL     1       6.917   5.377   5.923  0.00  0.00    +0.159 HD
ATOM      7  H   UNL     1       5.866   6.524   6.665  0.00  0.00    +0.159 HD
ATOM      8  H   UNL     1       4.580   4.159   3.579  0.00  0.00    +0.159 HD
ATOM      9  H   UNL     1       6.188   4.041   4.178  0.00  0.00    +0.159 HD
ENDROOT
BRANCH   1  10
ATOM     10  C   UNL     1       2.697   5.734   4.333  0.00  0.00    +0.151 C 
BRANCH  10  11
ATOM     11  C   UNL     1       1.555   6.655   4.663  0.00  0.00    -0.028 A 
ATOM     12  C   UNL     1       1.466   7.921   4.065  0.00  0.00    +0.005 A 
ATOM     13  C   UNL     1       0.557   6.267   5.569  0.00  0.00    +0.005 A 
ATOM     14  C   UNL     1       0.390   8.765   4.349  0.00  0.00    +0.000 A 
ATOM     15  C   UNL     1      -0.516   7.113   5.851  0.00  0.00    +0.000 A 
ATOM     16  C   UNL     1      -0.600   8.361   5.239  0.00  0.00    +0.000 A 
ENDBRANCH  10  11
ENDBRANCH   1  10
TORSDOF 2
ENDMDL
MODEL 3
REMARK VINA RESULT:    -5.421     17.118     18.328
REMARK INTER + INTRA:          -6.195
REMARK INTER:                  -6.027
REMARK INTRA:                  -0.168
REMARK UNBOUND:                -0.140
REMARK  Name = 1550473
REMARK  2 active torsions:
REMARK  status: ('A' for Active; 'I' for Inactive)
REMARK    1  A    between atoms: N_1  and  C_4
REMARK    2  A    between atoms: C_4  and  C_5
REMARK                            x       y       z     vdW  Elec       q    Type
REMARK                         _______ _______ _______ _____ _____    ______ ____
ROOT
ATOM      1  N   UNL     1      -7.880  -5.431   5.705  0.00  0.00    -0.354 N 
ATOM      2  N   UNL     1      -7.418  -6.864   3.945  0.00  0.00    -0.372 N 
ATOM      3  N   UNL     1      -6.019  -5.085   4.324  0.00  0.00    -0.372 N 
ATOM      4  C   UNL     1      -7.107  -5.782   4.669  0.00  0.00    +0.166 C 
ATOM      5  H   UNL     1      -8.708  -5.983   5.896  0.00  0.00    +0.163 HD
ATOM      6  H   UNL     1      -6.851  -7.155   3.159  0.00  0.00    +0.159 HD
ATOM      7  H   UNL     1      -8.221  -7.440   4.166  0.00  0.00    +0.159 HD
ATOM      8  H   UNL     1      -5.732  -4.256   4.827  0.00  0.00    +0.159 HD
ATOM      9  H   UNL     1      -5.445  -5.354   3.534  0.00  0.00    +0.159 HD
ENDROOT
BRANCH   1  10
ATOM     10  C   UNL     1      -7.599  -4.302   6.590  0.00  0.00    +0.151 C 
BRANCH  10  11
ATOM     11  C   UNL     1      -8.449  -3.132   6.179  0.00  0.00    -0.028 A 
ATOM     12  C   UNL     1      -9.744  -2.977   6.694  0.00  0.00    +0.005 A 
ATOM     13  C   UNL     1      -7.962  -2.171   5.279  0.00  0.00    +0.005 A 
ATOM     14  C   UNL     1     -10.523  -1.873   6.335  0.00  0.00    +0.000 A 
ATOM     15  C   UNL     1      -8.743  -1.072   4.923  0.00  0.00    +0.000 A 
ATOM     16  C   UNL     1     -10.022  -0.922   5.453  0.00  0.00    +0.000 A 
ENDBRANCH  10  11
ENDBRANCH   1  10
TORSDOF 2
ENDMDL
MODEL 4
REMARK VINA RESULT:    -5.232     15.320     16.257
REMARK INTER + INTRA:          -5.984
REMARK INTER:                  -5.862
REMARK INTRA:                  -0.122
REMARK UNBOUND:                -0.140
REMARK  Name = 1550473
REMARK  2 active torsions:
REMARK  status: ('A' for Active; 'I' for Inactive)
REMARK    1  A    between atoms: N_1  and  C_4
REMARK    2  A    between atoms: C_4  and  C_5
REMARK                            x       y       z     vdW  Elec       q    Type
REMARK                         _______ _______ _______ _____ _____    ______ ____
ROOT
ATOM      1  N   UNL     1      11.771  20.191   8.146  0.00  0.00    -0.354 N 
ATOM      2  N   UNL     1      11.772  21.758   6.441  0.00  0.00    -0.372 N 
ATOM      3  N   UNL     1      11.098  19.614   5.977  0.00  0.00    -0.372 N 
ATOM      4  C   UNL     1      11.547  20.509   6.864  0.00  0.00    +0.166 C 
ATOM      5  H   UNL     1      12.140  20.907   8.762  0.00  0.00    +0.163 HD
ATOM      6  H   UNL     1      11.609  22.028   5.480  0.00  0.00    +0.159 HD
ATOM      7  H   UNL     1      12.097  22.483   7.069  0.00  0.00    +0.159 HD
ATOM      8  H   UNL     1      10.914  18.653   6.232  0.00  0.00    +0.159 HD
ATOM      9  H   UNL     1      10.940  19.862   5.008  0.00  0.00    +0.159 HD
ENDROOT
BRANCH   1  10
ATOM     10  C   UNL     1      11.506  18.873   8.721  0.00  0.00    +0.151 C 
BRANCH  10  11
ATOM     11  C   UNL     1      11.226  19.026  10.190  0.00  0.00    -0.028 A 
ATOM     12  C   UNL     1      11.792  18.140  11.119  0.00  0.00    +0.005 A 
ATOM     13  C   UNL     1      10.399  20.057  10.661  0.00  0.00    +0.005 A 
ATOM     14  C   UNL     1      11.556  18.299  12.486  0.00  0.00    +0.000 A 
ATOM     15  C   UNL     1      10.166  20.212  12.028  0.00  0.00    +0.000 A 
ATOM     16  C   UNL     1      10.746  19.334  12.940  0.00  0.00    +0.000 A 
ENDBRANCH  10  11
ENDBRANCH   1  10
TORSDOF 2
ENDMDL
MODEL 5
REMARK VINA RESULT:    -5.178      4.010      5.678
REMARK INTER + INTRA:          -5.924
REMARK INTER:                  -5.827
REMARK INTRA:                  -0.097
REMARK UNBOUND:                -0.140
REMARK  Name = 1550473
REMARK  2 active torsions:
REMARK  status: ('A' for Active; 'I' for Inactive)
REMARK    1  A    between atoms: N_1  and  C_4
REMARK    2  A    between atoms: C_4  and  C_5
REMARK                            x       y       z     vdW  Elec       q    Type
REMARK                         _______ _______ _______ _____ _____    ______ ____
ROOT
ATOM      1  N   UNL     1       5.767   6.509   3.908  0.00  0.00    -0.354 N 
ATOM      2  N   UNL     1       4.782   5.683   5.834  0.00  0.00    -0.372 N 
ATOM      3  N   UNL     1       4.827   4.363   3.958  0.00  0.00    -0.372 N 
ATOM      4  C   UNL     1       5.131   5.522   4.552  0.00  0.00    +0.166 C 
ATOM      5  H   UNL     1       5.942   7.375   4.405  0.00  0.00    +0.163 HD
ATOM      6  H   UNL     1       4.304   4.955   6.347  0.00  0.00    +0.159 HD
ATOM      7  H   UNL     1       4.998   6.532   6.343  0.00  0.00    +0.159 HD
ATOM      8  H   UNL     1       5.058   4.181   2.990  0.00  0.00    +0.159 HD
ATOM      9  H   UNL     1       4.339   3.626   4.452  0.00  0.00    +0.159 HD
ENDROOT
BRANCH   1  10
ATOM     10  C   UNL     1       6.239   6.414   2.527  0.00  0.00    +0.151 C 
BRANCH  10  11
ATOM     11  C   UNL     1       7.167   7.563   2.245  0.00  0.00    -0.028 A 
ATOM     12  C   UNL     1       8.453   7.593   2.805  0.00  0.00    +0.005 A 
ATOM     13  C   UNL     1       6.770   8.621   1.414  0.00  0.00    +0.005 A 
ATOM     14  C   UNL     1       9.327   8.645   2.519  0.00  0.00    +0.000 A 
ATOM     15  C   UNL     1       7.645   9.670   1.131  0.00  0.00    +0.000 A 
ATOM     16  C   UNL     1       8.924   9.680   1.682  0.00  0.00    +0.000 A 
ENDBRANCH  10  11
ENDBRANCH   1  10
TORSDOF 2
ENDMDL
MODEL 6
REMARK VINA RESULT:    -5.174     14.892     16.193
REMARK INTER + INTRA:          -5.919
REMARK INTER:                  -5.759
REMARK INTRA:                  -0.161
REMARK UNBOUND:                -0.140
REMARK  Name = 1550473
REMARK  2 active torsions:
REMARK  status: ('A' for Active; 'I' for Inactive)
REMARK    1  A    between atoms: N_1  and  C_4
REMARK    2  A    between atoms: C_4  and  C_5
REMARK                            x       y       z     vdW  Elec       q    Type
REMARK                         _______ _______ _______ _____ _____    ______ ____
ROOT
ATOM      1  N   UNL     1      13.905   1.658  20.027  0.00  0.00    -0.354 N 
ATOM      2  N   UNL     1      14.815   1.797  17.901  0.00  0.00    -0.372 N 
ATOM      3  N   UNL     1      15.480   3.309  19.494  0.00  0.00    -0.372 N 
ATOM      4  C   UNL     1      14.729   2.256  19.156  0.00  0.00    +0.166 C 
ATOM      5  H   UNL     1      13.340   0.883  19.700  0.00  0.00    +0.163 HD
ATOM      6  H   UNL     1      15.430   2.226  17.223  0.00  0.00    +0.159 HD
ATOM      7  H   UNL     1      14.283   0.993  17.590  0.00  0.00    +0.159 HD
ATOM      8  H   UNL     1      15.457   3.708  20.423  0.00  0.00    +0.159 HD
ATOM      9  H   UNL     1      16.093   3.759  18.825  0.00  0.00    +0.159 HD
ENDROOT
BRANCH   1  10
ATOM     10  C   UNL     1      13.777   2.046  21.430  0.00  0.00    +0.151 C 
BRANCH  10  11
ATOM     11  C   UNL     1      12.483   2.789  21.619  0.00  0.00    -0.028 A 
ATOM     12  C   UNL     1      12.371   3.788  22.596  0.00  0.00    +0.005 A 
ATOM     13  C   UNL     1      11.367   2.501  20.818  0.00  0.00    +0.005 A 
ATOM     14  C   UNL     1      11.179   4.499  22.751  0.00  0.00    +0.000 A 
ATOM     15  C   UNL     1      10.177   3.212  20.977  0.00  0.00    +0.000 A 
ATOM     16  C   UNL     1      10.085   4.213  21.942  0.00  0.00    +0.000 A 
ENDBRANCH  10  11
ENDBRANCH   1  10
TORSDOF 2
ENDMDL
MODEL 7
REMARK VINA RESULT:    -4.968      3.350      4.321
REMARK INTER + INTRA:          -5.689
REMARK INTER:                  -5.571
REMARK INTRA:                  -0.118
REMARK UNBOUND:                -0.140
REMARK  Name = 1550473
REMARK  2 active torsions:
REMARK  status: ('A' for Active; 'I' for Inactive)
REMARK    1  A    between atoms: N_1  and  C_4
REMARK    2  A    between atoms: C_4  and  C_5
REMARK                            x       y       z     vdW  Elec       q    Type
REMARK                         _______ _______ _______ _____ _____    ______ ____
ROOT
ATOM      1  N   UNL     1       9.311   4.762   4.901  0.00  0.00    -0.354 N 
ATOM      2  N   UNL     1       8.396   2.635   4.937  0.00  0.00    -0.372 N 
ATOM      3  N   UNL     1       7.113   4.382   4.182  0.00  0.00    -0.372 N 
ATOM      4  C   UNL     1       8.277   3.942   4.672  0.00  0.00    +0.166 C 
ATOM      5  H   UNL     1      10.156   4.372   5.302  0.00  0.00    +0.163 HD
ATOM      6  H   UNL     1       7.634   1.991   4.772  0.00  0.00    +0.159 HD
ATOM      7  H   UNL     1       9.257   2.240   5.295  0.00  0.00    +0.159 HD
ATOM      8  H   UNL     1       6.958   5.357   3.966  0.00  0.00    +0.159 HD
ATOM      9  H   UNL     1       6.335   3.755   4.020  0.00  0.00    +0.159 HD
ENDROOT
BRANCH   1  10
ATOM     10  C   UNL     1       9.303   6.192   4.596  0.00  0.00    +0.151 C 
BRANCH  10  11
ATOM     11  C   UNL     1      10.426   6.859   5.342  0.00  0.00    -0.028 A 
ATOM     12  C   UNL     1      11.155   7.900   4.748  0.00  0.00    +0.005 A 
ATOM     13  C   UNL     1      10.761   6.459   6.644  0.00  0.00    +0.005 A 
ATOM     14  C   UNL     1      12.178   8.540   5.452  0.00  0.00    +0.000 A 
ATOM     15  C   UNL     1      11.784   7.101   7.343  0.00  0.00    +0.000 A 
ATOM     16  C   UNL     1      12.490   8.143   6.748  0.00  0.00    +0.000 A 
ENDBRANCH  10  11
ENDBRANCH   1  10
TORSDOF 2
ENDMDL
MODEL 8
REMARK VINA RESULT:    -4.852      5.071      6.613
REMARK INTER + INTRA:          -5.559
REMARK INTER:                  -5.426
REMARK INTRA:                  -0.134
REMARK UNBOUND:                -0.140
REMARK  Name = 1550473
REMARK  2 active torsions:
REMARK  status: ('A' for Active; 'I' for Inactive)
REMARK    1  A    between atoms: N_1  and  C_4
REMARK    2  A    between atoms: C_4  and  C_5
REMARK                            x       y       z     vdW  Elec       q    Type
REMARK                         _______ _______ _______ _____ _____    ______ ____
ROOT
ATOM      1  N   UNL     1      12.008   5.675  10.782  0.00  0.00    -0.354 N 
ATOM      2  N   UNL     1      12.064   7.575  12.106  0.00  0.00    -0.372 N 
ATOM      3  N   UNL     1      13.641   7.324  10.458  0.00  0.00    -0.372 N 
ATOM      4  C   UNL     1      12.573   6.846  11.105  0.00  0.00    +0.166 C 
ATOM      5  H   UNL     1      11.219   5.354  11.331  0.00  0.00    +0.163 HD
ATOM      6  H   UNL     1      12.467   8.464  12.370  0.00  0.00    +0.159 HD
ATOM      7  H   UNL     1      11.247   7.273  12.623  0.00  0.00    +0.159 HD
ATOM      8  H   UNL     1      14.077   6.820   9.698  0.00  0.00    +0.159 HD
ATOM      9  H   UNL     1      14.066   8.206  10.716  0.00  0.00    +0.159 HD
ENDROOT
BRANCH   1  10
ATOM     10  C   UNL     1      12.452   4.831   9.675  0.00  0.00    +0.151 C 
BRANCH  10  11
ATOM     11  C   UNL     1      11.252   4.380   8.888  0.00  0.00    -0.028 A 
ATOM     12  C   UNL     1      10.373   5.320   8.331  0.00  0.00    +0.005 A 
ATOM     13  C   UNL     1      10.993   3.015   8.692  0.00  0.00    +0.005 A 
ATOM     14  C   UNL     1       9.274   4.902   7.575  0.00  0.00    +0.000 A 
ATOM     15  C   UNL     1       9.895   2.603   7.937  0.00  0.00    +0.000 A 
ATOM     16  C   UNL     1       9.037   3.546   7.377  0.00  0.00    +0.000 A 
ENDBRANCH  10  11
ENDBRANCH   1  10
TORSDOF 2
ENDMDL
MODEL 9
REMARK VINA RESULT:    -4.817     15.513     16.788
REMARK INTER + INTRA:          -5.521
REMARK INTER:                  -5.386
REMARK INTRA:                  -0.134
REMARK UNBOUND:                -0.140
REMARK  Name = 1550473
REMARK  2 active torsions:
REMARK  status: ('A' for Active; 'I' for Inactive)
REMARK    1  A    between atoms: N_1  and  C_4
REMARK    2  A    between atoms: C_4  and  C_5
REMARK                            x       y       z     vdW  Elec       q    Type
REMARK                         _______ _______ _______ _____ _____    ______ ____
ROOT
ATOM      1  N   UNL     1      14.129   1.568  20.820  0.00  0.00    -0.354 N 
ATOM      2  N   UNL     1      16.136   1.211  21.919  0.00  0.00    -0.372 N 
ATOM      3  N   UNL     1      15.695   3.294  21.065  0.00  0.00    -0.372 N 
ATOM      4  C   UNL     1      15.307   2.029  21.260  0.00  0.00    +0.166 C 
ATOM      5  H   UNL     1      13.907   0.591  20.973  0.00  0.00    +0.163 HD
ATOM      6  H   UNL     1      17.030   1.531  22.266  0.00  0.00    +0.159 HD
ATOM      7  H   UNL     1      15.892   0.247  22.111  0.00  0.00    +0.159 HD
ATOM      8  H   UNL     1      15.118   3.961  20.570  0.00  0.00    +0.159 HD
ATOM      9  H   UNL     1      16.591   3.631  21.395  0.00  0.00    +0.159 HD
ENDROOT
BRANCH   1  10
ATOM     10  C   UNL     1      13.131   2.391  20.138  0.00  0.00    +0.151 C 
BRANCH  10  11
ATOM     11  C   UNL     1      11.842   2.339  20.910  0.00  0.00    -0.028 A 
ATOM     12  C   UNL     1      11.773   1.662  22.136  0.00  0.00    +0.005 A 
ATOM     13  C   UNL     1      10.686   2.970  20.423  0.00  0.00    +0.005 A 
ATOM     14  C   UNL     1      10.583   1.639  22.868  0.00  0.00    +0.000 A 
ATOM     15  C   UNL     1       9.500   2.944  21.156  0.00  0.00    +0.000 A 
ATOM     16  C   UNL     1       9.449   2.280  22.379  0.00  0.00    +0.000 A 
ENDBRANCH  10  11
ENDBRANCH   1  10
TORSDOF 2
ENDMDL
