MODEL 1
REMARK VINA RESULT:    -5.654      0.000      0.000
REMARK INTER + INTRA:          -6.465
REMARK INTER:                  -6.315
REMARK INTRA:                  -0.150
REMARK UNBOUND:                -0.150
REMARK  Name = 1550473
REMARK  2 active torsions:
REMARK  status: ('A' for Active; 'I' for Inactive)
REMARK    1  A    between atoms: N_1  and  C_4
REMARK    2  A    between atoms: C_4  and  C_5
REMARK                            x       y       z     vdW  Elec       q    Type
REMARK                         _______ _______ _______ _____ _____    ______ ____
ROOT
ATOM      1  N   UNL     1      -3.719  13.466   1.217  0.00  0.00    -0.354 N 
ATOM      2  N   UNL     1      -4.543  15.380   0.207  0.00  0.00    -0.372 N 
ATOM      3  N   UNL     1      -5.462  13.352  -0.346  0.00  0.00    -0.372 N 
ATOM      4  C   UNL     1      -4.571  14.051   0.365  0.00  0.00    +0.166 C 
ATOM      5  H   UNL     1      -3.048  14.049   1.703  0.00  0.00    +0.163 HD
ATOM      6  H   UNL     1      -5.176  15.851  -0.426  0.00  0.00    +0.159 HD
ATOM      7  H   UNL     1      -3.902  15.965   0.729  0.00  0.00    +0.159 HD
ATOM      8  H   UNL     1      -5.530  12.345  -0.277  0.00  0.00    +0.159 HD
ATOM      9  H   UNL     1      -6.096  13.803  -0.993  0.00  0.00    +0.159 HD
ENDROOT
BRANCH   1  10
ATOM     10  C   UNL     1      -3.703  12.032   1.501  0.00  0.00    +0.151 C 
BRANCH  10  11
ATOM     11  C   UNL     1      -4.225  11.801   2.893  0.00  0.00    -0.028 A 
ATOM     12  C   UNL     1      -5.585  11.979   3.182  0.00  0.00    +0.005 A 
ATOM     13  C   UNL     1      -3.364  11.398   3.925  0.00  0.00    +0.005 A 
ATOM     14  C   UNL     1      -6.075  11.736   4.467  0.00  0.00    +0.000 A 
ATOM     15  C   UNL     1      -3.857  11.158   5.207  0.00  0.00    +0.000 A 
ATOM     16  C   UNL     1      -5.213  11.324   5.478  0.00  0.00    +0.000 A 
ENDBRANCH  10  11
ENDBRANCH   1  10
TORSDOF 2
ENDMDL
MODEL 2
REMARK VINA RESULT:    -5.331     25.488     26.769
REMARK INTER + INTRA:          -6.104
REMARK INTER:                  -5.953
REMARK INTRA:                  -0.150
REMARK UNBOUND:                -0.150
REMARK  Name = 1550473
REMARK  2 active torsions:
REMARK  status: ('A' for Active; 'I' for Inactive)
REMARK    1  A    between atoms: N_1  and  C_4
REMARK    2  A    between atoms: C_4  and  C_5
REMARK                            x       y       z     vdW  Elec       q    Type
REMARK                         _______ _______ _______ _____ _____    ______ ____
ROOT
ATOM      1  N   UNL     1      19.945   4.629   3.874  0.00  0.00    -0.354 N 
ATOM      2  N   UNL     1      20.756   6.709   3.255  0.00  0.00    -0.372 N 
ATOM      3  N   UNL     1      19.173   5.698   1.937  0.00  0.00    -0.372 N 
ATOM      4  C   UNL     1      19.951   5.664   3.024  0.00  0.00    +0.166 C 
ATOM      5  H   UNL     1      20.581   4.652   4.664  0.00  0.00    +0.163 HD
ATOM      6  H   UNL     1      20.779   7.506   2.633  0.00  0.00    +0.159 HD
ATOM      7  H   UNL     1      21.356   6.749   4.070  0.00  0.00    +0.159 HD
ATOM      8  H   UNL     1      18.548   4.938   1.702  0.00  0.00    +0.159 HD
ATOM      9  H   UNL     1      19.191   6.481   1.296  0.00  0.00    +0.159 HD
ENDROOT
BRANCH   1  10
ATOM     10  C   UNL     1      19.068   3.468   3.743  0.00  0.00    +0.151 C 
BRANCH  10  11
ATOM     11  C   UNL     1      19.909   2.230   3.598  0.00  0.00    -0.028 A 
ATOM     12  C   UNL     1      20.341   1.526   4.732  0.00  0.00    +0.005 A 
ATOM     13  C   UNL     1      20.274   1.752   2.330  0.00  0.00    +0.005 A 
ATOM     14  C   UNL     1      21.098   0.360   4.598  0.00  0.00    +0.000 A 
ATOM     15  C   UNL     1      21.030   0.587   2.201  0.00  0.00    +0.000 A 
ATOM     16  C   UNL     1      21.440  -0.110   3.334  0.00  0.00    +0.000 A 
ENDBRANCH  10  11
ENDBRANCH   1  10
TORSDOF 2
ENDMDL
MODEL 3
REMARK VINA RESULT:    -5.320     11.947     12.883
REMARK INTER + INTRA:          -6.092
REMARK INTER:                  -5.977
REMARK INTRA:                  -0.115
REMARK UNBOUND:                -0.150
REMARK  Name = 1550473
REMARK  2 active torsions:
REMARK  status: ('A' for Active; 'I' for Inactive)
REMARK    1  A    between atoms: N_1  and  C_4
REMARK    2  A    between atoms: C_4  and  C_5
REMARK                            x       y       z     vdW  Elec       q    Type
REMARK                         _______ _______ _______ _____ _____    ______ ____
ROOT
ATOM      1  N   UNL     1      -0.899  19.991  11.017  0.00  0.00    -0.354 N 
ATOM      2  N   UNL     1      -2.676  20.775  12.279  0.00  0.00    -0.372 N 
ATOM      3  N   UNL     1      -2.454  18.514  11.960  0.00  0.00    -0.372 N 
ATOM      4  C   UNL     1      -1.999  19.752  11.744  0.00  0.00    +0.166 C 
ATOM      5  H   UNL     1      -0.623  20.955  10.865  0.00  0.00    +0.163 HD
ATOM      6  H   UNL     1      -3.507  20.625  12.835  0.00  0.00    +0.159 HD
ATOM      7  H   UNL     1      -2.372  21.734  12.164  0.00  0.00    +0.159 HD
ATOM      8  H   UNL     1      -1.992  17.699  11.579  0.00  0.00    +0.159 HD
ATOM      9  H   UNL     1      -3.291  18.344  12.504  0.00  0.00    +0.159 HD
ENDROOT
BRANCH   1  10
ATOM     10  C   UNL     1      -0.060  18.946  10.436  0.00  0.00    +0.151 C 
BRANCH  10  11
ATOM     11  C   UNL     1       1.361  19.434  10.374  0.00  0.00    -0.028 A 
ATOM     12  C   UNL     1       2.427  18.557  10.622  0.00  0.00    +0.005 A 
ATOM     13  C   UNL     1       1.649  20.772  10.062  0.00  0.00    +0.005 A 
ATOM     14  C   UNL     1       3.748  19.003  10.535  0.00  0.00    +0.000 A 
ATOM     15  C   UNL     1       2.969  21.213   9.977  0.00  0.00    +0.000 A 
ATOM     16  C   UNL     1       4.018  20.328  10.211  0.00  0.00    +0.000 A 
ENDBRANCH  10  11
ENDBRANCH   1  10
TORSDOF 2
ENDMDL
MODEL 4
REMARK VINA RESULT:    -5.252     12.162     13.070
REMARK INTER + INTRA:          -6.016
REMARK INTER:                  -5.868
REMARK INTRA:                  -0.149
REMARK UNBOUND:                -0.150
REMARK  Name = 1550473
REMARK  2 active torsions:
REMARK  status: ('A' for Active; 'I' for Inactive)
REMARK    1  A    between atoms: N_1  and  C_4
REMARK    2  A    between atoms: C_4  and  C_5
REMARK                            x       y       z     vdW  Elec       q    Type
REMARK                         _______ _______ _______ _____ _____    ______ ____
ROOT
ATOM      1  N   UNL     1       0.694  18.083  11.028  0.00  0.00    -0.354 N 
ATOM      2  N   UNL     1      -1.573  18.276  11.459  0.00  0.00    -0.372 N 
ATOM      3  N   UNL     1      -0.773  18.931   9.410  0.00  0.00    -0.372 N 
ATOM      4  C   UNL     1      -0.536  18.430  10.627  0.00  0.00    +0.166 C 
ATOM      5  H   UNL     1       0.813  17.737  11.974  0.00  0.00    +0.163 HD
ATOM      6  H   UNL     1      -2.513  18.526  11.182  0.00  0.00    +0.159 HD
ATOM      7  H   UNL     1      -1.459  17.887  12.387  0.00  0.00    +0.159 HD
ATOM      8  H   UNL     1      -0.033  19.078   8.737  0.00  0.00    +0.159 HD
ATOM      9  H   UNL     1      -1.706  19.198   9.119  0.00  0.00    +0.159 HD
ENDROOT
BRANCH   1  10
ATOM     10  C   UNL     1       1.883  18.161  10.181  0.00  0.00    +0.151 C 
BRANCH  10  11
ATOM     11  C   UNL     1       2.678  19.380  10.560  0.00  0.00    -0.028 A 
ATOM     12  C   UNL     1       2.333  20.641  10.051  0.00  0.00    +0.005 A 
ATOM     13  C   UNL     1       3.773  19.282  11.431  0.00  0.00    +0.005 A 
ATOM     14  C   UNL     1       3.052  21.778  10.426  0.00  0.00    +0.000 A 
ATOM     15  C   UNL     1       4.489  20.420  11.803  0.00  0.00    +0.000 A 
ATOM     16  C   UNL     1       4.126  21.668  11.302  0.00  0.00    +0.000 A 
ENDBRANCH  10  11
ENDBRANCH   1  10
TORSDOF 2
ENDMDL
MODEL 5
REMARK VINA RESULT:    -5.248     13.093     14.031
REMARK INTER + INTRA:          -6.011
REMARK INTER:                  -5.842
REMARK INTRA:                  -0.170
REMARK UNBOUND:                -0.150
REMARK  Name = 1550473
REMARK  2 active torsions:
REMARK  status: ('A' for Active; 'I' for Inactive)
REMARK    1  A    between atoms: N_1  and  C_4
REMARK    2  A    between atoms: C_4  and  C_5
REMARK                            x       y       z     vdW  Elec       q    Type
REMARK                         _______ _______ _______ _____ _____    ______ ____
ROOT
ATOM      1  N   UNL     1       3.497  20.651  12.560  0.00  0.00    -0.354 N 
ATOM      2  N   UNL     1       3.198  21.870  14.506  0.00  0.00    -0.372 N 
ATOM      3  N   UNL     1       3.113  22.961  12.489  0.00  0.00    -0.372 N 
ATOM      4  C   UNL     1       3.271  21.822  13.170  0.00  0.00    +0.166 C 
ATOM      5  H   UNL     1       3.638  19.828  13.134  0.00  0.00    +0.163 HD
ATOM      6  H   UNL     1       3.025  22.739  14.994  0.00  0.00    +0.159 HD
ATOM      7  H   UNL     1       3.294  21.038  15.075  0.00  0.00    +0.159 HD
ATOM      8  H   UNL     1       3.163  22.993  11.480  0.00  0.00    +0.159 HD
ATOM      9  H   UNL     1       2.951  23.843  12.961  0.00  0.00    +0.159 HD
ENDROOT
BRANCH   1  10
ATOM     10  C   UNL     1       3.541  20.480  11.109  0.00  0.00    +0.151 C 
BRANCH  10  11
ATOM     11  C   UNL     1       2.304  19.752  10.661  0.00  0.00    -0.028 A 
ATOM     12  C   UNL     1       2.336  18.369  10.432  0.00  0.00    +0.005 A 
ATOM     13  C   UNL     1       1.095  20.439  10.470  0.00  0.00    +0.005 A 
ATOM     14  C   UNL     1       1.179  17.687  10.046  0.00  0.00    +0.000 A 
ATOM     15  C   UNL     1      -0.057  19.755  10.084  0.00  0.00    +0.000 A 
ATOM     16  C   UNL     1      -0.015  18.379   9.874  0.00  0.00    +0.000 A 
ENDBRANCH  10  11
ENDBRANCH   1  10
TORSDOF 2
ENDMDL
MODEL 6
REMARK VINA RESULT:    -5.198      1.400      2.093
REMARK INTER + INTRA:          -5.956
REMARK INTER:                  -5.851
REMARK INTRA:                  -0.105
REMARK UNBOUND:                -0.150
REMARK  Name = 1550473
REMARK  2 active torsions:
REMARK  status: ('A' for Active; 'I' for Inactive)
REMARK    1  A    between atoms: N_1  and  C_4
REMARK    2  A    between atoms: C_4  and  C_5
REMARK                            x       y       z     vdW  Elec       q    Type
REMARK                         _______ _______ _______ _____ _____    ______ ____
ROOT
ATOM      1  N   UNL     1      -5.064  12.511   0.008  0.00  0.00    -0.354 N 
ATOM      2  N   UNL     1      -5.787  12.264  -2.178  0.00  0.00    -0.372 N 
ATOM      3  N   UNL     1      -6.613  14.001  -0.926  0.00  0.00    -0.372 N 
ATOM      4  C   UNL     1      -5.818  12.929  -1.017  0.00  0.00    +0.166 C 
ATOM      5  H   UNL     1      -4.506  11.674  -0.115  0.00  0.00    +0.163 HD
ATOM      6  H   UNL     1      -6.343  12.558  -2.970  0.00  0.00    +0.159 HD
ATOM      7  H   UNL     1      -5.194  11.454  -2.313  0.00  0.00    +0.159 HD
ATOM      8  H   UNL     1      -6.686  14.543  -0.075  0.00  0.00    +0.159 HD
ATOM      9  H   UNL     1      -7.185  14.304  -1.704  0.00  0.00    +0.159 HD
ENDROOT
BRANCH   1  10
ATOM     10  C   UNL     1      -4.984  13.195   1.297  0.00  0.00    +0.151 C 
BRANCH  10  11
ATOM     11  C   UNL     1      -4.486  12.229   2.337  0.00  0.00    -0.028 A 
ATOM     12  C   UNL     1      -5.174  12.070   3.548  0.00  0.00    +0.005 A 
ATOM     13  C   UNL     1      -3.330  11.465   2.113  0.00  0.00    +0.005 A 
ATOM     14  C   UNL     1      -4.729  11.150   4.501  0.00  0.00    +0.000 A 
ATOM     15  C   UNL     1      -2.889  10.549   3.067  0.00  0.00    +0.000 A 
ATOM     16  C   UNL     1      -3.590  10.390   4.260  0.00  0.00    +0.000 A 
ENDBRANCH  10  11
ENDBRANCH   1  10
TORSDOF 2
ENDMDL
MODEL 7
REMARK VINA RESULT:    -5.156      1.938      2.864
REMARK INTER + INTRA:          -5.908
REMARK INTER:                  -5.731
REMARK INTRA:                  -0.177
REMARK UNBOUND:                -0.150
REMARK  Name = 1550473
REMARK  2 active torsions:
REMARK  status: ('A' for Active; 'I' for Inactive)
REMARK    1  A    between atoms: N_1  and  C_4
REMARK    2  A    between atoms: C_4  and  C_5
REMARK                            x       y       z     vdW  Elec       q    Type
REMARK                         _______ _______ _______ _____ _____    ______ ____
ROOT
ATOM      1  N   UNL     1      -6.158  11.663   0.822  0.00  0.00    -0.354 N 
ATOM      2  N   UNL     1      -7.093  10.205  -0.715  0.00  0.00    -0.372 N 
ATOM      3  N   UNL     1      -4.864  10.722  -0.890  0.00  0.00    -0.372 N 
ATOM      4  C   UNL     1      -6.030  10.873  -0.252  0.00  0.00    +0.166 C 
ATOM      5  H   UNL     1      -7.075  11.759   1.243  0.00  0.00    +0.163 HD
ATOM      6  H   UNL     1      -7.026   9.599  -1.522  0.00  0.00    +0.159 HD
ATOM      7  H   UNL     1      -7.998  10.267  -0.265  0.00  0.00    +0.159 HD
ATOM      8  H   UNL     1      -4.025  11.203  -0.594  0.00  0.00    +0.159 HD
ATOM      9  H   UNL     1      -4.779  10.129  -1.706  0.00  0.00    +0.159 HD
ENDROOT
BRANCH   1  10
ATOM     10  C   UNL     1      -5.051  12.392   1.439  0.00  0.00    +0.151 C 
BRANCH  10  11
ATOM     11  C   UNL     1      -4.664  11.706   2.720  0.00  0.00    -0.028 A 
ATOM     12  C   UNL     1      -3.624  10.764   2.737  0.00  0.00    +0.005 A 
ATOM     13  C   UNL     1      -5.329  11.997   3.921  0.00  0.00    +0.005 A 
ATOM     14  C   UNL     1      -3.244  10.149   3.932  0.00  0.00    +0.000 A 
ATOM     15  C   UNL     1      -4.947  11.380   5.112  0.00  0.00    +0.000 A 
ATOM     16  C   UNL     1      -3.903  10.458   5.118  0.00  0.00    +0.000 A 
ENDBRANCH  10  11
ENDBRANCH   1  10
TORSDOF 2
ENDMDL
MODEL 8
REMARK VINA RESULT:    -5.068     26.676     28.074
REMARK INTER + INTRA:          -5.811
REMARK INTER:                  -5.703
REMARK INTRA:                  -0.108
REMARK UNBOUND:                -0.150
REMARK  Name = 1550473
REMARK  2 active torsions:
REMARK  status: ('A' for Active; 'I' for Inactive)
REMARK    1  A    between atoms: N_1  and  C_4
REMARK    2  A    between atoms: C_4  and  C_5
REMARK                            x       y       z     vdW  Elec       q    Type
REMARK                         _______ _______ _______ _____ _____    ______ ____
ROOT
ATOM      1  N   UNL     1      20.804   0.006   4.739  0.00  0.00    -0.354 N 
ATOM      2  N   UNL     1      21.431  -1.227   6.597  0.00  0.00    -0.372 N 
ATOM      3  N   UNL     1      22.323  -1.769   4.554  0.00  0.00    -0.372 N 
ATOM      4  C   UNL     1      21.516  -0.990   5.282  0.00  0.00    +0.166 C 
ATOM      5  H   UNL     1      20.188   0.541   5.340  0.00  0.00    +0.163 HD
ATOM      6  H   UNL     1      21.959  -1.969   7.036  0.00  0.00    +0.159 HD
ATOM      7  H   UNL     1      20.849  -0.661   7.203  0.00  0.00    +0.159 HD
ATOM      8  H   UNL     1      22.428  -1.646   3.556  0.00  0.00    +0.159 HD
ATOM      9  H   UNL     1      22.851  -2.525   4.973  0.00  0.00    +0.159 HD
ENDROOT
BRANCH   1  10
ATOM     10  C   UNL     1      20.867   0.381   3.327  0.00  0.00    +0.151 C 
BRANCH  10  11
ATOM     11  C   UNL     1      20.527   1.839   3.191  0.00  0.00    -0.028 A 
ATOM     12  C   UNL     1      21.324   2.685   2.405  0.00  0.00    +0.005 A 
ATOM     13  C   UNL     1      19.406   2.380   3.839  0.00  0.00    +0.005 A 
ATOM     14  C   UNL     1      20.991   4.034   2.254  0.00  0.00    +0.000 A 
ATOM     15  C   UNL     1      19.078   3.727   3.686  0.00  0.00    +0.000 A 
ATOM     16  C   UNL     1      19.869   4.553   2.891  0.00  0.00    +0.000 A 
ENDBRANCH  10  11
ENDBRANCH   1  10
TORSDOF 2
ENDMDL
MODEL 9
REMARK VINA RESULT:    -4.999     26.017     26.825
REMARK INTER + INTRA:          -5.733
REMARK INTER:                  -5.582
REMARK INTRA:                  -0.150
REMARK UNBOUND:                -0.150
REMARK  Name = 1550473
REMARK  2 active torsions:
REMARK  status: ('A' for Active; 'I' for Inactive)
REMARK    1  A    between atoms: N_1  and  C_4
REMARK    2  A    between atoms: C_4  and  C_5
REMARK                            x       y       z     vdW  Elec       q    Type
REMARK                         _______ _______ _______ _____ _____    ______ ____
ROOT
ATOM      1  N   UNL     1      20.095   2.368   2.237  0.00  0.00    -0.354 N 
ATOM      2  N   UNL     1      21.389   0.587   1.516  0.00  0.00    -0.372 N 
ATOM      3  N   UNL     1      20.530   0.545   3.644  0.00  0.00    -0.372 N 
ATOM      4  C   UNL     1      20.662   1.177   2.473  0.00  0.00    +0.166 C 
ATOM      5  H   UNL     1      20.257   2.809   1.339  0.00  0.00    +0.163 HD
ATOM      6  H   UNL     1      21.826  -0.312   1.665  0.00  0.00    +0.159 HD
ATOM      7  H   UNL     1      21.512   1.009   0.604  0.00  0.00    +0.159 HD
ATOM      8  H   UNL     1      20.000   0.940   4.409  0.00  0.00    +0.159 HD
ATOM      9  H   UNL     1      20.971  -0.350   3.815  0.00  0.00    +0.159 HD
ENDROOT
BRANCH   1  10
ATOM     10  C   UNL     1      19.240   3.070   3.192  0.00  0.00    +0.151 C 
BRANCH  10  11
ATOM     11  C   UNL     1      19.913   4.350   3.604  0.00  0.00    -0.028 A 
ATOM     12  C   UNL     1      20.092   5.390   2.680  0.00  0.00    +0.005 A 
ATOM     13  C   UNL     1      20.368   4.532   4.919  0.00  0.00    +0.005 A 
ATOM     14  C   UNL     1      20.690   6.591   3.070  0.00  0.00    +0.000 A 
ATOM     15  C   UNL     1      20.965   5.732   5.305  0.00  0.00    +0.000 A 
ATOM     16  C   UNL     1      21.124   6.762   4.381  0.00  0.00    +0.000 A 
ENDBRANCH  10  11
ENDBRANCH   1  10
TORSDOF 2
ENDMDL
