MODEL 1
REMARK VINA RESULT:    -5.993      0.000      0.000
REMARK INTER + INTRA:          -6.875
REMARK INTER:                  -6.694
REMARK INTRA:                  -0.181
REMARK UNBOUND:                -0.181
REMARK  Name = 1550473
REMARK  2 active torsions:
REMARK  status: ('A' for Active; 'I' for Inactive)
REMARK    1  A    between atoms: N_1  and  C_4
REMARK    2  A    between atoms: C_4  and  C_5
REMARK                            x       y       z     vdW  Elec       q    Type
REMARK                         _______ _______ _______ _____ _____    ______ ____
ROOT
ATOM      1  N   UNL     1       1.141  -3.722   2.192  0.00  0.00    -0.354 N 
ATOM      2  N   UNL     1      -0.207  -2.911   0.493  0.00  0.00    -0.372 N 
ATOM      3  N   UNL     1       1.988  -2.247   0.580  0.00  0.00    -0.372 N 
ATOM      4  C   UNL     1       0.985  -2.964   1.099  0.00  0.00    +0.166 C 
ATOM      5  H   UNL     1       0.334  -4.217   2.554  0.00  0.00    +0.163 HD
ATOM      6  H   UNL     1      -0.354  -2.351  -0.336  0.00  0.00    +0.159 HD
ATOM      7  H   UNL     1      -1.000  -3.443   0.829  0.00  0.00    +0.159 HD
ATOM      8  H   UNL     1       2.910  -2.239   0.994  0.00  0.00    +0.159 HD
ATOM      9  H   UNL     1       1.857  -1.671  -0.242  0.00  0.00    +0.159 HD
ENDROOT
BRANCH   1  10
ATOM     10  C   UNL     1       2.411  -3.890   2.896  0.00  0.00    +0.151 C 
BRANCH  10  11
ATOM     11  C   UNL     1       3.078  -5.148   2.412  0.00  0.00    -0.028 A 
ATOM     12  C   UNL     1       4.239  -5.082   1.628  0.00  0.00    +0.005 A 
ATOM     13  C   UNL     1       2.556  -6.410   2.737  0.00  0.00    +0.005 A 
ATOM     14  C   UNL     1       4.876  -6.251   1.203  0.00  0.00    +0.000 A 
ATOM     15  C   UNL     1       3.194  -7.574   2.310  0.00  0.00    +0.000 A 
ATOM     16  C   UNL     1       4.355  -7.494   1.545  0.00  0.00    +0.000 A 
ENDBRANCH  10  11
ENDBRANCH   1  10
TORSDOF 2
ENDMDL
MODEL 2
REMARK VINA RESULT:    -5.883     21.206     22.348
REMARK INTER + INTRA:          -6.752
REMARK INTER:                  -6.643
REMARK INTRA:                  -0.109
REMARK UNBOUND:                -0.181
REMARK  Name = 1550473
REMARK  2 active torsions:
REMARK  status: ('A' for Active; 'I' for Inactive)
REMARK    1  A    between atoms: N_1  and  C_4
REMARK    2  A    between atoms: C_4  and  C_5
REMARK                            x       y       z     vdW  Elec       q    Type
REMARK                         _______ _______ _______ _____ _____    ______ ____
ROOT
ATOM      1  N   UNL     1       0.566  -0.073 -20.204  0.00  0.00    -0.354 N 
ATOM      2  N   UNL     1      -1.706   0.365 -20.103  0.00  0.00    -0.372 N 
ATOM      3  N   UNL     1      -0.886  -1.491 -19.033  0.00  0.00    -0.372 N 
ATOM      4  C   UNL     1      -0.661  -0.405 -19.779  0.00  0.00    +0.166 C 
ATOM      5  H   UNL     1       0.666   0.746 -20.793  0.00  0.00    +0.163 HD
ATOM      6  H   UNL     1      -2.643   0.141 -19.795  0.00  0.00    +0.159 HD
ATOM      7  H   UNL     1      -1.597   1.208 -20.653  0.00  0.00    +0.159 HD
ATOM      8  H   UNL     1      -0.140  -2.117 -18.759  0.00  0.00    +0.159 HD
ATOM      9  H   UNL     1      -1.818  -1.738 -18.723  0.00  0.00    +0.159 HD
ENDROOT
BRANCH   1  10
ATOM     10  C   UNL     1       1.778  -0.814 -19.862  0.00  0.00    +0.151 C 
BRANCH  10  11
ATOM     11  C   UNL     1       2.933   0.146 -19.776  0.00  0.00    -0.028 A 
ATOM     12  C   UNL     1       3.797   0.124 -18.672  0.00  0.00    +0.005 A 
ATOM     13  C   UNL     1       3.172   1.076 -20.800  0.00  0.00    +0.005 A 
ATOM     14  C   UNL     1       4.887   0.995 -18.606  0.00  0.00    +0.000 A 
ATOM     15  C   UNL     1       4.261   1.945 -20.730  0.00  0.00    +0.000 A 
ATOM     16  C   UNL     1       5.120   1.902 -19.634  0.00  0.00    +0.000 A 
ENDBRANCH  10  11
ENDBRANCH   1  10
TORSDOF 2
ENDMDL
MODEL 3
REMARK VINA RESULT:    -5.757      1.906      2.901
REMARK INTER + INTRA:          -6.611
REMARK INTER:                  -6.456
REMARK INTRA:                  -0.155
REMARK UNBOUND:                -0.181
REMARK  Name = 1550473
REMARK  2 active torsions:
REMARK  status: ('A' for Active; 'I' for Inactive)
REMARK    1  A    between atoms: N_1  and  C_4
REMARK    2  A    between atoms: C_4  and  C_5
REMARK                            x       y       z     vdW  Elec       q    Type
REMARK                         _______ _______ _______ _____ _____    ______ ____
ROOT
ATOM      1  N   UNL     1       4.563  -2.642   2.185  0.00  0.00    -0.354 N 
ATOM      2  N   UNL     1       4.165  -0.872   3.624  0.00  0.00    -0.372 N 
ATOM      3  N   UNL     1       2.851  -1.100   1.757  0.00  0.00    -0.372 N 
ATOM      4  C   UNL     1       3.860  -1.549   2.511  0.00  0.00    +0.166 C 
ATOM      5  H   UNL     1       5.336  -2.913   2.782  0.00  0.00    +0.163 HD
ATOM      6  H   UNL     1       3.650  -0.045   3.898  0.00  0.00    +0.159 HD
ATOM      7  H   UNL     1       4.908  -1.171   4.244  0.00  0.00    +0.159 HD
ATOM      8  H   UNL     1       2.575  -1.562   0.901  0.00  0.00    +0.159 HD
ATOM      9  H   UNL     1       2.331  -0.268   2.008  0.00  0.00    +0.159 HD
ENDROOT
BRANCH   1  10
ATOM     10  C   UNL     1       4.278  -3.481   1.022  0.00  0.00    +0.151 C 
BRANCH  10  11
ATOM     11  C   UNL     1       3.927  -4.866   1.490  0.00  0.00    -0.028 A 
ATOM     12  C   UNL     1       2.737  -5.099   2.196  0.00  0.00    +0.005 A 
ATOM     13  C   UNL     1       4.777  -5.951   1.227  0.00  0.00    +0.005 A 
ATOM     14  C   UNL     1       2.396  -6.391   2.605  0.00  0.00    +0.000 A 
ATOM     15  C   UNL     1       4.433  -7.239   1.638  0.00  0.00    +0.000 A 
ATOM     16  C   UNL     1       3.241  -7.459   2.324  0.00  0.00    +0.000 A 
ENDBRANCH  10  11
ENDBRANCH   1  10
TORSDOF 2
ENDMDL
MODEL 4
REMARK VINA RESULT:    -5.613      3.090      3.888
REMARK INTER + INTRA:          -6.451
REMARK INTER:                  -6.338
REMARK INTRA:                  -0.113
REMARK UNBOUND:                -0.181
REMARK  Name = 1550473
REMARK  2 active torsions:
REMARK  status: ('A' for Active; 'I' for Inactive)
REMARK    1  A    between atoms: N_1  and  C_4
REMARK    2  A    between atoms: C_4  and  C_5
REMARK                            x       y       z     vdW  Elec       q    Type
REMARK                         _______ _______ _______ _____ _____    ______ ____
ROOT
ATOM      1  N   UNL     1       5.449  -1.813   1.806  0.00  0.00    -0.354 N 
ATOM      2  N   UNL     1       6.971  -0.116   2.214  0.00  0.00    -0.372 N 
ATOM      3  N   UNL     1       4.911   0.423   1.360  0.00  0.00    -0.372 N 
ATOM      4  C   UNL     1       5.765  -0.512   1.790  0.00  0.00    +0.166 C 
ATOM      5  H   UNL     1       6.152  -2.475   2.115  0.00  0.00    +0.163 HD
ATOM      6  H   UNL     1       7.237   0.860   2.217  0.00  0.00    +0.159 HD
ATOM      7  H   UNL     1       7.655  -0.775   2.566  0.00  0.00    +0.159 HD
ATOM      8  H   UNL     1       3.988   0.190   1.021  0.00  0.00    +0.159 HD
ATOM      9  H   UNL     1       5.163   1.404   1.344  0.00  0.00    +0.159 HD
ENDROOT
BRANCH   1  10
ATOM     10  C   UNL     1       4.144  -2.343   1.416  0.00  0.00    +0.151 C 
BRANCH  10  11
ATOM     11  C   UNL     1       3.971  -3.712   2.013  0.00  0.00    -0.028 A 
ATOM     12  C   UNL     1       3.618  -4.802   1.204  0.00  0.00    +0.005 A 
ATOM     13  C   UNL     1       4.163  -3.927   3.386  0.00  0.00    +0.005 A 
ATOM     14  C   UNL     1       3.486  -6.080   1.754  0.00  0.00    +0.000 A 
ATOM     15  C   UNL     1       4.030  -5.204   3.931  0.00  0.00    +0.000 A 
ATOM     16  C   UNL     1       3.694  -6.280   3.114  0.00  0.00    +0.000 A 
ENDBRANCH  10  11
ENDBRANCH   1  10
TORSDOF 2
ENDMDL
MODEL 5
REMARK VINA RESULT:    -5.529     27.409     28.371
REMARK INTER + INTRA:          -6.356
REMARK INTER:                  -6.196
REMARK INTRA:                  -0.160
REMARK UNBOUND:                -0.181
REMARK  Name = 1550473
REMARK  2 active torsions:
REMARK  status: ('A' for Active; 'I' for Inactive)
REMARK    1  A    between atoms: N_1  and  C_4
REMARK    2  A    between atoms: C_4  and  C_5
REMARK                            x       y       z     vdW  Elec       q    Type
REMARK                         _______ _______ _______ _____ _____    ______ ____
ROOT
ATOM      1  N   UNL     1      -0.106 -10.080 -25.499  0.00  0.00    -0.354 N 
ATOM      2  N   UNL     1       0.613 -11.428 -23.758  0.00  0.00    -0.372 N 
ATOM      3  N   UNL     1      -1.205 -12.087 -24.994  0.00  0.00    -0.372 N 
ATOM      4  C   UNL     1      -0.240 -11.191 -24.763  0.00  0.00    +0.166 C 
ATOM      5  H   UNL     1       0.628  -9.425 -25.254  0.00  0.00    +0.163 HD
ATOM      6  H   UNL     1       0.539 -12.259 -23.188  0.00  0.00    +0.159 HD
ATOM      7  H   UNL     1       1.374 -10.795 -23.545  0.00  0.00    +0.159 HD
ATOM      8  H   UNL     1      -1.884 -11.964 -25.733  0.00  0.00    +0.159 HD
ATOM      9  H   UNL     1      -1.303 -12.919 -24.426  0.00  0.00    +0.159 HD
ENDROOT
BRANCH   1  10
ATOM     10  C   UNL     1      -0.948  -9.754 -26.649  0.00  0.00    +0.151 C 
BRANCH  10  11
ATOM     11  C   UNL     1      -1.902  -8.657 -26.264  0.00  0.00    -0.028 A 
ATOM     12  C   UNL     1      -3.050  -8.944 -25.511  0.00  0.00    +0.005 A 
ATOM     13  C   UNL     1      -1.660  -7.328 -26.643  0.00  0.00    +0.005 A 
ATOM     14  C   UNL     1      -3.921  -7.921 -25.128  0.00  0.00    +0.000 A 
ATOM     15  C   UNL     1      -2.532  -6.310 -26.259  0.00  0.00    +0.000 A 
ATOM     16  C   UNL     1      -3.661  -6.606 -25.499  0.00  0.00    +0.000 A 
ENDBRANCH  10  11
ENDBRANCH   1  10
TORSDOF 2
ENDMDL
MODEL 6
REMARK VINA RESULT:    -5.418      3.679      4.889
REMARK INTER + INTRA:          -6.232
REMARK INTER:                  -6.101
REMARK INTRA:                  -0.131
REMARK UNBOUND:                -0.181
REMARK  Name = 1550473
REMARK  2 active torsions:
REMARK  status: ('A' for Active; 'I' for Inactive)
REMARK    1  A    between atoms: N_1  and  C_4
REMARK    2  A    between atoms: C_4  and  C_5
REMARK                            x       y       z     vdW  Elec       q    Type
REMARK                         _______ _______ _______ _____ _____    ______ ____
ROOT
ATOM      1  N   UNL     1       5.670  -0.878   1.454  0.00  0.00    -0.354 N 
ATOM      2  N   UNL     1       7.649   0.029   2.247  0.00  0.00    -0.372 N 
ATOM      3  N   UNL     1       5.707   1.228   2.483  0.00  0.00    -0.372 N 
ATOM      4  C   UNL     1       6.327   0.123   2.057  0.00  0.00    +0.166 C 
ATOM      5  H   UNL     1       6.203  -1.675   1.127  0.00  0.00    +0.163 HD
ATOM      6  H   UNL     1       8.171   0.766   2.701  0.00  0.00    +0.159 HD
ATOM      7  H   UNL     1       8.171  -0.790   1.960  0.00  0.00    +0.159 HD
ATOM      8  H   UNL     1       4.712   1.363   2.364  0.00  0.00    +0.159 HD
ATOM      9  H   UNL     1       6.214   1.982   2.930  0.00  0.00    +0.159 HD
ENDROOT
BRANCH   1  10
ATOM     10  C   UNL     1       4.223  -0.898   1.247  0.00  0.00    +0.151 C 
BRANCH  10  11
ATOM     11  C   UNL     1       3.653  -2.135   1.885  0.00  0.00    -0.028 A 
ATOM     12  C   UNL     1       4.128  -2.579   3.127  0.00  0.00    +0.005 A 
ATOM     13  C   UNL     1       2.633  -2.863   1.254  0.00  0.00    +0.005 A 
ATOM     14  C   UNL     1       3.578  -3.711   3.734  0.00  0.00    +0.000 A 
ATOM     15  C   UNL     1       2.087  -3.993   1.863  0.00  0.00    +0.000 A 
ATOM     16  C   UNL     1       2.558  -4.415   3.103  0.00  0.00    +0.000 A 
ENDBRANCH  10  11
ENDBRANCH   1  10
TORSDOF 2
ENDMDL
MODEL 7
REMARK VINA RESULT:    -5.391     27.738     28.594
REMARK INTER + INTRA:          -6.202
REMARK INTER:                  -6.105
REMARK INTRA:                  -0.097
REMARK UNBOUND:                -0.181
REMARK  Name = 1550473
REMARK  2 active torsions:
REMARK  status: ('A' for Active; 'I' for Inactive)
REMARK    1  A    between atoms: N_1  and  C_4
REMARK    2  A    between atoms: C_4  and  C_5
REMARK                            x       y       z     vdW  Elec       q    Type
REMARK                         _______ _______ _______ _____ _____    ______ ____
ROOT
ATOM      1  N   UNL     1      -1.305 -12.420 -25.438  0.00  0.00    -0.354 N 
ATOM      2  N   UNL     1      -1.705 -14.700 -25.374  0.00  0.00    -0.372 N 
ATOM      3  N   UNL     1      -0.330 -13.771 -23.790  0.00  0.00    -0.372 N 
ATOM      4  C   UNL     1      -1.109 -13.615 -24.866  0.00  0.00    +0.166 C 
ATOM      5  H   UNL     1      -1.883 -12.373 -26.269  0.00  0.00    +0.163 HD
ATOM      6  H   UNL     1      -1.579 -15.615 -24.962  0.00  0.00    +0.159 HD
ATOM      7  H   UNL     1      -2.319 -14.643 -26.178  0.00  0.00    +0.159 HD
ATOM      8  H   UNL     1       0.154 -12.992 -23.362  0.00  0.00    +0.159 HD
ATOM      9  H   UNL     1      -0.181 -14.680 -23.371  0.00  0.00    +0.159 HD
ENDROOT
BRANCH   1  10
ATOM     10  C   UNL     1      -0.746 -11.168 -24.931  0.00  0.00    +0.151 C 
BRANCH  10  11
ATOM     11  C   UNL     1      -1.555 -10.017 -25.461  0.00  0.00    -0.028 A 
ATOM     12  C   UNL     1      -2.742  -9.628 -24.823  0.00  0.00    +0.005 A 
ATOM     13  C   UNL     1      -1.137  -9.308 -26.597  0.00  0.00    +0.005 A 
ATOM     14  C   UNL     1      -3.479  -8.540 -25.298  0.00  0.00    +0.000 A 
ATOM     15  C   UNL     1      -1.876  -8.222 -27.068  0.00  0.00    +0.000 A 
ATOM     16  C   UNL     1      -3.045  -7.838 -26.417  0.00  0.00    +0.000 A 
ENDBRANCH  10  11
ENDBRANCH   1  10
TORSDOF 2
ENDMDL
MODEL 8
REMARK VINA RESULT:    -5.359     17.541     18.360
REMARK INTER + INTRA:          -6.166
REMARK INTER:                  -6.061
REMARK INTRA:                  -0.105
REMARK UNBOUND:                -0.181
REMARK  Name = 1550473
REMARK  2 active torsions:
REMARK  status: ('A' for Active; 'I' for Inactive)
REMARK    1  A    between atoms: N_1  and  C_4
REMARK    2  A    between atoms: C_4  and  C_5
REMARK                            x       y       z     vdW  Elec       q    Type
REMARK                         _______ _______ _______ _____ _____    ______ ____
ROOT
ATOM      1  N   UNL     1      16.833   6.102  -3.110  0.00  0.00    -0.354 N 
ATOM      2  N   UNL     1      16.495   8.220  -3.981  0.00  0.00    -0.372 N 
ATOM      3  N   UNL     1      14.684   7.029  -3.228  0.00  0.00    -0.372 N 
ATOM      4  C   UNL     1      16.003   7.102  -3.434  0.00  0.00    +0.166 C 
ATOM      5  H   UNL     1      17.819   6.207  -3.319  0.00  0.00    +0.163 HD
ATOM      6  H   UNL     1      15.894   8.994  -4.233  0.00  0.00    +0.159 HD
ATOM      7  H   UNL     1      17.486   8.341  -4.147  0.00  0.00    +0.159 HD
ATOM      8  H   UNL     1      14.250   6.210  -2.823  0.00  0.00    +0.159 HD
ATOM      9  H   UNL     1      14.065   7.788  -3.484  0.00  0.00    +0.159 HD
ENDROOT
BRANCH   1  10
ATOM     10  C   UNL     1      16.406   4.864  -2.459  0.00  0.00    +0.151 C 
BRANCH  10  11
ATOM     11  C   UNL     1      17.444   4.456  -1.451  0.00  0.00    -0.028 A 
ATOM     12  C   UNL     1      17.250   4.712  -0.085  0.00  0.00    +0.005 A 
ATOM     13  C   UNL     1      18.622   3.808  -1.853  0.00  0.00    +0.005 A 
ATOM     14  C   UNL     1      18.200   4.307   0.855  0.00  0.00    +0.000 A 
ATOM     15  C   UNL     1      19.569   3.405  -0.911  0.00  0.00    +0.000 A 
ATOM     16  C   UNL     1      19.356   3.653   0.443  0.00  0.00    +0.000 A 
ENDBRANCH  10  11
ENDBRANCH   1  10
TORSDOF 2
ENDMDL
MODEL 9
REMARK VINA RESULT:    -5.322     10.419     12.557
REMARK INTER + INTRA:          -6.125
REMARK INTER:                  -5.961
REMARK INTRA:                  -0.164
REMARK UNBOUND:                -0.181
REMARK  Name = 1550473
REMARK  2 active torsions:
REMARK  status: ('A' for Active; 'I' for Inactive)
REMARK    1  A    between atoms: N_1  and  C_4
REMARK    2  A    between atoms: C_4  and  C_5
REMARK                            x       y       z     vdW  Elec       q    Type
REMARK                         _______ _______ _______ _____ _____    ______ ____
ROOT
ATOM      1  N   UNL     1      -6.993   0.725  -1.520  0.00  0.00    -0.354 N 
ATOM      2  N   UNL     1      -5.144  -0.059  -2.675  0.00  0.00    -0.372 N 
ATOM      3  N   UNL     1      -5.410  -0.649  -0.473  0.00  0.00    -0.372 N 
ATOM      4  C   UNL     1      -5.860   0.009  -1.546  0.00  0.00    +0.166 C 
ATOM      5  H   UNL     1      -7.264   1.226  -2.358  0.00  0.00    +0.163 HD
ATOM      6  H   UNL     1      -4.288  -0.594  -2.725  0.00  0.00    +0.159 HD
ATOM      7  H   UNL     1      -5.442   0.405  -3.524  0.00  0.00    +0.159 HD
ATOM      8  H   UNL     1      -5.900  -0.633   0.411  0.00  0.00    +0.159 HD
ATOM      9  H   UNL     1      -4.548  -1.181  -0.500  0.00  0.00    +0.159 HD
ENDROOT
BRANCH   1  10
ATOM     10  C   UNL     1      -7.873   0.821  -0.357  0.00  0.00    +0.151 C 
BRANCH  10  11
ATOM     11  C   UNL     1      -8.928  -0.248  -0.451  0.00  0.00    -0.028 A 
ATOM     12  C   UNL     1      -8.869  -1.380   0.375  0.00  0.00    +0.005 A 
ATOM     13  C   UNL     1      -9.991  -0.131  -1.359  0.00  0.00    +0.005 A 
ATOM     14  C   UNL     1      -9.865  -2.358   0.310  0.00  0.00    +0.000 A 
ATOM     15  C   UNL     1     -10.983  -1.110  -1.421  0.00  0.00    +0.000 A 
ATOM     16  C   UNL     1     -10.920  -2.222  -0.585  0.00  0.00    +0.000 A 
ENDBRANCH  10  11
ENDBRANCH   1  10
TORSDOF 2
ENDMDL
