MODEL 1
REMARK VINA RESULT:    -4.280      0.000      0.000
REMARK INTER + INTRA:          -4.914
REMARK INTER:                  -4.781
REMARK INTRA:                  -0.133
REMARK UNBOUND:                -0.133
REMARK  Name = 1550473
REMARK  2 active torsions:
REMARK  status: ('A' for Active; 'I' for Inactive)
REMARK    1  A    between atoms: N_1  and  C_4
REMARK    2  A    between atoms: C_4  and  C_5
REMARK                            x       y       z     vdW  Elec       q    Type
REMARK                         _______ _______ _______ _____ _____    ______ ____
ROOT
ATOM      1  N   UNL     1      -1.500  -9.193  -5.937  0.00  0.00    -0.354 N 
ATOM      2  N   UNL     1      -1.455 -11.179  -7.128  0.00  0.00    -0.372 N 
ATOM      3  N   UNL     1      -0.595 -11.142  -5.001  0.00  0.00    -0.372 N 
ATOM      4  C   UNL     1      -1.182 -10.493  -6.012  0.00  0.00    +0.166 C 
ATOM      5  H   UNL     1      -1.916  -8.752  -6.749  0.00  0.00    +0.163 HD
ATOM      6  H   UNL     1      -1.230 -12.161  -7.213  0.00  0.00    +0.159 HD
ATOM      7  H   UNL     1      -1.913 -10.747  -7.922  0.00  0.00    +0.159 HD
ATOM      8  H   UNL     1      -0.358 -10.679  -4.134  0.00  0.00    +0.159 HD
ATOM      9  H   UNL     1      -0.352 -12.122  -5.071  0.00  0.00    +0.159 HD
ENDROOT
BRANCH   1  10
ATOM     10  C   UNL     1      -1.295  -8.369  -4.748  0.00  0.00    +0.151 C 
BRANCH  10  11
ATOM     11  C   UNL     1      -2.526  -8.432  -3.887  0.00  0.00    -0.028 A 
ATOM     12  C   UNL     1      -3.802  -8.460  -4.470  0.00  0.00    +0.005 A 
ATOM     13  C   UNL     1      -2.425  -8.471  -2.488  0.00  0.00    +0.005 A 
ATOM     14  C   UNL     1      -4.945  -8.550  -3.672  0.00  0.00    +0.000 A 
ATOM     15  C   UNL     1      -3.568  -8.560  -1.695  0.00  0.00    +0.000 A 
ATOM     16  C   UNL     1      -4.828  -8.602  -2.287  0.00  0.00    +0.000 A 
ENDBRANCH  10  11
ENDBRANCH   1  10
TORSDOF 2
ENDMDL
MODEL 2
REMARK VINA RESULT:    -4.270     10.256     11.332
REMARK INTER + INTRA:          -4.902
REMARK INTER:                  -4.741
REMARK INTRA:                  -0.161
REMARK UNBOUND:                -0.133
REMARK  Name = 1550473
REMARK  2 active torsions:
REMARK  status: ('A' for Active; 'I' for Inactive)
REMARK    1  A    between atoms: N_1  and  C_4
REMARK    2  A    between atoms: C_4  and  C_5
REMARK                            x       y       z     vdW  Elec       q    Type
REMARK                         _______ _______ _______ _____ _____    ______ ____
ROOT
ATOM      1  N   UNL     1       1.631   0.782  -0.327  0.00  0.00    -0.354 N 
ATOM      2  N   UNL     1       3.358   0.556  -1.854  0.00  0.00    -0.372 N 
ATOM      3  N   UNL     1       1.688  -1.018  -1.827  0.00  0.00    -0.372 N 
ATOM      4  C   UNL     1       2.213   0.106  -1.326  0.00  0.00    +0.166 C 
ATOM      5  H   UNL     1       2.095   1.610   0.028  0.00  0.00    +0.163 HD
ATOM      6  H   UNL     1       3.818   0.069  -2.611  0.00  0.00    +0.159 HD
ATOM      7  H   UNL     1       3.796   1.409  -1.528  0.00  0.00    +0.159 HD
ATOM      8  H   UNL     1       0.829  -1.413  -1.469  0.00  0.00    +0.159 HD
ATOM      9  H   UNL     1       2.140  -1.526  -2.577  0.00  0.00    +0.159 HD
ENDROOT
BRANCH   1  10
ATOM     10  C   UNL     1       0.356   0.406   0.281  0.00  0.00    +0.151 C 
BRANCH  10  11
ATOM     11  C   UNL     1       0.618  -0.245   1.611  0.00  0.00    -0.028 A 
ATOM     12  C   UNL     1       1.717   0.145   2.390  0.00  0.00    +0.005 A 
ATOM     13  C   UNL     1      -0.231  -1.250   2.099  0.00  0.00    +0.005 A 
ATOM     14  C   UNL     1       1.944  -0.439   3.639  0.00  0.00    +0.000 A 
ATOM     15  C   UNL     1      -0.000  -1.831   3.346  0.00  0.00    +0.000 A 
ATOM     16  C   UNL     1       1.086  -1.423   4.116  0.00  0.00    +0.000 A 
ENDBRANCH  10  11
ENDBRANCH   1  10
TORSDOF 2
ENDMDL
MODEL 3
REMARK VINA RESULT:    -4.189     34.083     35.186
REMARK INTER + INTRA:          -4.812
REMARK INTER:                  -4.661
REMARK INTRA:                  -0.152
REMARK UNBOUND:                -0.133
REMARK  Name = 1550473
REMARK  2 active torsions:
REMARK  status: ('A' for Active; 'I' for Inactive)
REMARK    1  A    between atoms: N_1  and  C_4
REMARK    2  A    between atoms: C_4  and  C_5
REMARK                            x       y       z     vdW  Elec       q    Type
REMARK                         _______ _______ _______ _____ _____    ______ ____
ROOT
ATOM      1  N   UNL     1      15.709   9.551  20.527  0.00  0.00    -0.354 N 
ATOM      2  N   UNL     1      17.123   9.672  22.357  0.00  0.00    -0.372 N 
ATOM      3  N   UNL     1      15.906  11.527  21.771  0.00  0.00    -0.372 N 
ATOM      4  C   UNL     1      16.236  10.252  21.539  0.00  0.00    +0.166 C 
ATOM      5  H   UNL     1      16.023   8.597  20.387  0.00  0.00    +0.163 HD
ATOM      6  H   UNL     1      17.535  10.175  23.131  0.00  0.00    +0.159 HD
ATOM      7  H   UNL     1      17.401   8.705  22.242  0.00  0.00    +0.159 HD
ATOM      8  H   UNL     1      15.247  12.024  21.187  0.00  0.00    +0.159 HD
ATOM      9  H   UNL     1      16.317  12.051  22.534  0.00  0.00    +0.159 HD
ENDROOT
BRANCH   1  10
ATOM     10  C   UNL     1      14.695  10.072  19.612  0.00  0.00    +0.151 C 
BRANCH  10  11
ATOM     11  C   UNL     1      13.441   9.253  19.750  0.00  0.00    -0.028 A 
ATOM     12  C   UNL     1      13.273   8.078  19.003  0.00  0.00    +0.005 A 
ATOM     13  C   UNL     1      12.420   9.644  20.630  0.00  0.00    +0.005 A 
ATOM     14  C   UNL     1      12.122   7.300  19.153  0.00  0.00    +0.000 A 
ATOM     15  C   UNL     1      11.272   8.865  20.776  0.00  0.00    +0.000 A 
ATOM     16  C   UNL     1      11.125   7.692  20.039  0.00  0.00    +0.000 A 
ENDBRANCH  10  11
ENDBRANCH   1  10
TORSDOF 2
ENDMDL
MODEL 4
REMARK VINA RESULT:    -4.186      8.003      9.360
REMARK INTER + INTRA:          -4.809
REMARK INTER:                  -4.658
REMARK INTRA:                  -0.151
REMARK UNBOUND:                -0.133
REMARK  Name = 1550473
REMARK  2 active torsions:
REMARK  status: ('A' for Active; 'I' for Inactive)
REMARK    1  A    between atoms: N_1  and  C_4
REMARK    2  A    between atoms: C_4  and  C_5
REMARK                            x       y       z     vdW  Elec       q    Type
REMARK                         _______ _______ _______ _____ _____    ______ ____
ROOT
ATOM      1  N   UNL     1     -10.000 -10.178  -1.826  0.00  0.00    -0.354 N 
ATOM      2  N   UNL     1      -8.577 -11.516  -0.582  0.00  0.00    -0.372 N 
ATOM      3  N   UNL     1      -8.164 -11.240  -2.822  0.00  0.00    -0.372 N 
ATOM      4  C   UNL     1      -8.922 -10.969  -1.754  0.00  0.00    +0.166 C 
ATOM      5  H   UNL     1     -10.550 -10.037  -0.986  0.00  0.00    +0.163 HD
ATOM      6  H   UNL     1      -7.766 -12.114  -0.496  0.00  0.00    +0.159 HD
ATOM      7  H   UNL     1      -9.102 -11.336   0.265  0.00  0.00    +0.159 HD
ATOM      8  H   UNL     1      -8.374 -10.863  -3.737  0.00  0.00    +0.159 HD
ATOM      9  H   UNL     1      -7.356 -11.846  -2.759  0.00  0.00    +0.159 HD
ENDROOT
BRANCH   1  10
ATOM     10  C   UNL     1     -10.431  -9.491  -3.042  0.00  0.00    +0.151 C 
BRANCH  10  11
ATOM     11  C   UNL     1     -11.699 -10.128  -3.543  0.00  0.00    -0.028 A 
ATOM     12  C   UNL     1     -12.091  -9.977  -4.881  0.00  0.00    +0.005 A 
ATOM     13  C   UNL     1     -12.509 -10.888  -2.685  0.00  0.00    +0.005 A 
ATOM     14  C   UNL     1     -13.252 -10.592  -5.354  0.00  0.00    +0.000 A 
ATOM     15  C   UNL     1     -13.668 -11.500  -3.161  0.00  0.00    +0.000 A 
ATOM     16  C   UNL     1     -14.038 -11.354  -4.496  0.00  0.00    +0.000 A 
ENDBRANCH  10  11
ENDBRANCH   1  10
TORSDOF 2
ENDMDL
MODEL 5
REMARK VINA RESULT:    -4.171     21.063     22.217
REMARK INTER + INTRA:          -4.792
REMARK INTER:                  -4.655
REMARK INTRA:                  -0.137
REMARK UNBOUND:                -0.133
REMARK  Name = 1550473
REMARK  2 active torsions:
REMARK  status: ('A' for Active; 'I' for Inactive)
REMARK    1  A    between atoms: N_1  and  C_4
REMARK    2  A    between atoms: C_4  and  C_5
REMARK                            x       y       z     vdW  Elec       q    Type
REMARK                         _______ _______ _______ _____ _____    ______ ____
ROOT
ATOM      1  N   UNL     1     -13.911 -22.325 -14.809  0.00  0.00    -0.354 N 
ATOM      2  N   UNL     1     -13.466 -20.702 -13.217  0.00  0.00    -0.372 N 
ATOM      3  N   UNL     1     -14.653 -20.120 -15.092  0.00  0.00    -0.372 N 
ATOM      4  C   UNL     1     -14.014 -21.058 -14.385  0.00  0.00    +0.166 C 
ATOM      5  H   UNL     1     -13.388 -22.981 -14.241  0.00  0.00    +0.163 HD
ATOM      6  H   UNL     1     -13.530 -19.755 -12.870  0.00  0.00    +0.159 HD
ATOM      7  H   UNL     1     -12.983 -21.371 -12.629  0.00  0.00    +0.159 HD
ATOM      8  H   UNL     1     -15.083 -20.322 -15.984  0.00  0.00    +0.159 HD
ATOM      9  H   UNL     1     -14.718 -19.163 -14.767  0.00  0.00    +0.159 HD
ENDROOT
BRANCH   1  10
ATOM     10  C   UNL     1     -14.518 -22.827 -16.040  0.00  0.00    +0.151 C 
BRANCH  10  11
ATOM     11  C   UNL     1     -15.350 -24.038 -15.718  0.00  0.00    -0.028 A 
ATOM     12  C   UNL     1     -15.792 -24.890 -16.741  0.00  0.00    +0.005 A 
ATOM     13  C   UNL     1     -15.696 -24.342 -14.392  0.00  0.00    +0.005 A 
ATOM     14  C   UNL     1     -16.540 -26.031 -16.440  0.00  0.00    +0.000 A 
ATOM     15  C   UNL     1     -16.443 -25.481 -14.096  0.00  0.00    +0.000 A 
ATOM     16  C   UNL     1     -16.862 -26.327 -15.120  0.00  0.00    +0.000 A 
ENDBRANCH  10  11
ENDBRANCH   1  10
TORSDOF 2
ENDMDL
MODEL 6
REMARK VINA RESULT:    -3.940     20.860     21.957
REMARK INTER + INTRA:          -4.534
REMARK INTER:                  -4.406
REMARK INTRA:                  -0.127
REMARK UNBOUND:                -0.133
REMARK  Name = 1550473
REMARK  2 active torsions:
REMARK  status: ('A' for Active; 'I' for Inactive)
REMARK    1  A    between atoms: N_1  and  C_4
REMARK    2  A    between atoms: C_4  and  C_5
REMARK                            x       y       z     vdW  Elec       q    Type
REMARK                         _______ _______ _______ _____ _____    ______ ____
ROOT
ATOM      1  N   UNL     1       7.924   4.510   6.205  0.00  0.00    -0.354 N 
ATOM      2  N   UNL     1       6.313   2.906   5.761  0.00  0.00    -0.372 N 
ATOM      3  N   UNL     1       7.547   3.750   4.021  0.00  0.00    -0.372 N 
ATOM      4  C   UNL     1       7.273   3.733   5.329  0.00  0.00    +0.166 C 
ATOM      5  H   UNL     1       7.648   4.472   7.180  0.00  0.00    +0.163 HD
ATOM      6  H   UNL     1       5.807   2.305   5.124  0.00  0.00    +0.159 HD
ATOM      7  H   UNL     1       6.071   2.837   6.742  0.00  0.00    +0.159 HD
ATOM      8  H   UNL     1       8.256   4.357   3.630  0.00  0.00    +0.159 HD
ATOM      9  H   UNL     1       7.043   3.165   3.365  0.00  0.00    +0.159 HD
ENDROOT
BRANCH   1  10
ATOM     10  C   UNL     1       9.021   5.406   5.846  0.00  0.00    +0.151 C 
BRANCH  10  11
ATOM     11  C   UNL     1       9.838   5.700   7.074  0.00  0.00    -0.028 A 
ATOM     12  C   UNL     1      10.816   6.704   7.055  0.00  0.00    +0.005 A 
ATOM     13  C   UNL     1       9.633   4.981   8.262  0.00  0.00    +0.005 A 
ATOM     14  C   UNL     1      11.554   6.998   8.204  0.00  0.00    +0.000 A 
ATOM     15  C   UNL     1      10.373   5.277   9.407  0.00  0.00    +0.000 A 
ATOM     16  C   UNL     1      11.331   6.287   9.378  0.00  0.00    +0.000 A 
ENDBRANCH  10  11
ENDBRANCH   1  10
TORSDOF 2
ENDMDL
MODEL 7
REMARK VINA RESULT:    -3.910     27.878     29.044
REMARK INTER + INTRA:          -4.500
REMARK INTER:                  -4.368
REMARK INTRA:                  -0.133
REMARK UNBOUND:                -0.133
REMARK  Name = 1550473
REMARK  2 active torsions:
REMARK  status: ('A' for Active; 'I' for Inactive)
REMARK    1  A    between atoms: N_1  and  C_4
REMARK    2  A    between atoms: C_4  and  C_5
REMARK                            x       y       z     vdW  Elec       q    Type
REMARK                         _______ _______ _______ _____ _____    ______ ____
ROOT
ATOM      1  N   UNL     1       6.434   8.977  17.980  0.00  0.00    -0.354 N 
ATOM      2  N   UNL     1       6.267   7.609  19.841  0.00  0.00    -0.372 N 
ATOM      3  N   UNL     1       7.536   6.910  18.061  0.00  0.00    -0.372 N 
ATOM      4  C   UNL     1       6.748   7.839  18.613  0.00  0.00    +0.166 C 
ATOM      5  H   UNL     1       5.807   9.627  18.440  0.00  0.00    +0.163 HD
ATOM      6  H   UNL     1       6.490   6.761  20.345  0.00  0.00    +0.159 HD
ATOM      7  H   UNL     1       5.679   8.281  20.318  0.00  0.00    +0.159 HD
ATOM      8  H   UNL     1       7.926   7.021  17.135  0.00  0.00    +0.159 HD
ATOM      9  H   UNL     1       7.761   6.050  18.545  0.00  0.00    +0.159 HD
ENDROOT
BRANCH   1  10
ATOM     10  C   UNL     1       6.948   9.348  16.663  0.00  0.00    +0.151 C 
BRANCH  10  11
ATOM     11  C   UNL     1       5.791   9.603  15.737  0.00  0.00    -0.028 A 
ATOM     12  C   UNL     1       4.761  10.480  16.109  0.00  0.00    +0.005 A 
ATOM     13  C   UNL     1       5.720   8.975  14.484  0.00  0.00    +0.005 A 
ATOM     14  C   UNL     1       3.701  10.740  15.237  0.00  0.00    +0.000 A 
ATOM     15  C   UNL     1       4.660   9.237  13.617  0.00  0.00    +0.000 A 
ATOM     16  C   UNL     1       3.652  10.121  13.993  0.00  0.00    +0.000 A 
ENDBRANCH  10  11
ENDBRANCH   1  10
TORSDOF 2
ENDMDL
MODEL 8
REMARK VINA RESULT:    -3.894     38.693     39.817
REMARK INTER + INTRA:          -4.483
REMARK INTER:                  -4.340
REMARK INTRA:                  -0.144
REMARK UNBOUND:                -0.133
REMARK  Name = 1550473
REMARK  2 active torsions:
REMARK  status: ('A' for Active; 'I' for Inactive)
REMARK    1  A    between atoms: N_1  and  C_4
REMARK    2  A    between atoms: C_4  and  C_5
REMARK                            x       y       z     vdW  Elec       q    Type
REMARK                         _______ _______ _______ _____ _____    ______ ____
ROOT
ATOM      1  N   UNL     1       5.517  20.987  17.695  0.00  0.00    -0.354 N 
ATOM      2  N   UNL     1       5.247  21.357  15.425  0.00  0.00    -0.372 N 
ATOM      3  N   UNL     1       6.996  20.052  16.136  0.00  0.00    -0.372 N 
ATOM      4  C   UNL     1       5.924  20.795  16.434  0.00  0.00    +0.166 C 
ATOM      5  H   UNL     1       4.715  21.585  17.856  0.00  0.00    +0.163 HD
ATOM      6  H   UNL     1       5.529  21.227  14.463  0.00  0.00    +0.159 HD
ATOM      7  H   UNL     1       4.419  21.917  15.586  0.00  0.00    +0.159 HD
ATOM      8  H   UNL     1       7.553  19.606  16.852  0.00  0.00    +0.159 HD
ATOM      9  H   UNL     1       7.300  19.920  15.180  0.00  0.00    +0.159 HD
ENDROOT
BRANCH   1  10
ATOM     10  C   UNL     1       6.151  20.376  18.862  0.00  0.00    +0.151 C 
BRANCH  10  11
ATOM     11  C   UNL     1       6.523  21.455  19.841  0.00  0.00    -0.028 A 
ATOM     12  C   UNL     1       5.745  21.676  20.986  0.00  0.00    +0.005 A 
ATOM     13  C   UNL     1       7.656  22.256  19.632  0.00  0.00    +0.005 A 
ATOM     14  C   UNL     1       6.107  22.659  21.911  0.00  0.00    +0.000 A 
ATOM     15  C   UNL     1       8.014  23.236  20.557  0.00  0.00    +0.000 A 
ATOM     16  C   UNL     1       7.240  23.436  21.698  0.00  0.00    +0.000 A 
ENDBRANCH  10  11
ENDBRANCH   1  10
TORSDOF 2
ENDMDL
MODEL 9
REMARK VINA RESULT:    -3.878     48.826     49.807
REMARK INTER + INTRA:          -4.465
REMARK INTER:                  -4.344
REMARK INTRA:                  -0.121
REMARK UNBOUND:                -0.133
REMARK  Name = 1550473
REMARK  2 active torsions:
REMARK  status: ('A' for Active; 'I' for Inactive)
REMARK    1  A    between atoms: N_1  and  C_4
REMARK    2  A    between atoms: C_4  and  C_5
REMARK                            x       y       z     vdW  Elec       q    Type
REMARK                         _______ _______ _______ _____ _____    ______ ____
ROOT
ATOM      1  N   UNL     1      29.022  23.425  12.984  0.00  0.00    -0.354 N 
ATOM      2  N   UNL     1      28.478  22.498  10.933  0.00  0.00    -0.372 N 
ATOM      3  N   UNL     1      28.922  24.746  11.051  0.00  0.00    -0.372 N 
ATOM      4  C   UNL     1      28.811  23.565  11.669  0.00  0.00    +0.166 C 
ATOM      5  H   UNL     1      28.893  22.509  13.398  0.00  0.00    +0.163 HD
ATOM      6  H   UNL     1      28.316  22.572   9.937  0.00  0.00    +0.159 HD
ATOM      7  H   UNL     1      28.394  21.575  11.340  0.00  0.00    +0.159 HD
ATOM      8  H   UNL     1      29.164  25.591  11.551  0.00  0.00    +0.159 HD
ATOM      9  H   UNL     1      28.752  24.843  10.058  0.00  0.00    +0.159 HD
ENDROOT
BRANCH   1  10
ATOM     10  C   UNL     1      29.441  24.514  13.865  0.00  0.00    +0.151 C 
BRANCH  10  11
ATOM     11  C   UNL     1      30.007  23.931  15.131  0.00  0.00    -0.028 A 
ATOM     12  C   UNL     1      30.690  22.705  15.107  0.00  0.00    +0.005 A 
ATOM     13  C   UNL     1      29.870  24.602  16.356  0.00  0.00    +0.005 A 
ATOM     14  C   UNL     1      31.242  22.178  16.277  0.00  0.00    +0.000 A 
ATOM     15  C   UNL     1      30.422  24.071  17.522  0.00  0.00    +0.000 A 
ATOM     16  C   UNL     1      31.110  22.861  17.482  0.00  0.00    +0.000 A 
ENDBRANCH  10  11
ENDBRANCH   1  10
TORSDOF 2
ENDMDL
