MODEL 1
REMARK VINA RESULT:    -5.500      0.000      0.000
REMARK INTER + INTRA:          -6.320
REMARK INTER:                  -6.143
REMARK INTRA:                  -0.177
REMARK UNBOUND:                -0.177
REMARK  Name = 1550473
REMARK  2 active torsions:
REMARK  status: ('A' for Active; 'I' for Inactive)
REMARK    1  A    between atoms: N_1  and  C_4
REMARK    2  A    between atoms: C_4  and  C_5
REMARK                            x       y       z     vdW  Elec       q    Type
REMARK                         _______ _______ _______ _____ _____    ______ ____
ROOT
ATOM      1  N   UNL     1     -11.588   9.586   2.702  0.00  0.00    -0.354 N 
ATOM      2  N   UNL     1     -13.840   9.429   2.184  0.00  0.00    -0.372 N 
ATOM      3  N   UNL     1     -12.875   7.776   3.450  0.00  0.00    -0.372 N 
ATOM      4  C   UNL     1     -12.753   8.929   2.783  0.00  0.00    +0.166 C 
ATOM      5  H   UNL     1     -11.555  10.440   2.156  0.00  0.00    +0.163 HD
ATOM      6  H   UNL     1     -14.733   8.957   2.231  0.00  0.00    +0.159 HD
ATOM      7  H   UNL     1     -13.814  10.305   1.678  0.00  0.00    +0.159 HD
ATOM      8  H   UNL     1     -12.090   7.343   3.919  0.00  0.00    +0.159 HD
ATOM      9  H   UNL     1     -13.757   7.283   3.498  0.00  0.00    +0.159 HD
ENDROOT
BRANCH   1  10
ATOM     10  C   UNL     1     -10.358   9.156   3.363  0.00  0.00    +0.151 C 
BRANCH  10  11
ATOM     11  C   UNL     1      -9.485   8.448   2.364  0.00  0.00    -0.028 A 
ATOM     12  C   UNL     1      -8.695   9.179   1.465  0.00  0.00    +0.005 A 
ATOM     13  C   UNL     1      -9.440   7.046   2.314  0.00  0.00    +0.005 A 
ATOM     14  C   UNL     1      -7.861   8.522   0.557  0.00  0.00    +0.000 A 
ATOM     15  C   UNL     1      -8.607   6.394   1.405  0.00  0.00    +0.000 A 
ATOM     16  C   UNL     1      -7.816   7.132   0.528  0.00  0.00    +0.000 A 
ENDBRANCH  10  11
ENDBRANCH   1  10
TORSDOF 2
ENDMDL
MODEL 2
REMARK VINA RESULT:    -5.410     16.731     18.523
REMARK INTER + INTRA:          -6.220
REMARK INTER:                  -6.066
REMARK INTRA:                  -0.154
REMARK UNBOUND:                -0.177
REMARK  Name = 1550473
REMARK  2 active torsions:
REMARK  status: ('A' for Active; 'I' for Inactive)
REMARK    1  A    between atoms: N_1  and  C_4
REMARK    2  A    between atoms: C_4  and  C_5
REMARK                            x       y       z     vdW  Elec       q    Type
REMARK                         _______ _______ _______ _____ _____    ______ ____
ROOT
ATOM      1  N   UNL     1       4.368   2.390  -4.319  0.00  0.00    -0.354 N 
ATOM      2  N   UNL     1       2.764   3.975  -3.790  0.00  0.00    -0.372 N 
ATOM      3  N   UNL     1       2.084   1.918  -4.547  0.00  0.00    -0.372 N 
ATOM      4  C   UNL     1       3.081   2.749  -4.223  0.00  0.00    +0.166 C 
ATOM      5  H   UNL     1       5.077   3.076  -4.087  0.00  0.00    +0.163 HD
ATOM      6  H   UNL     1       1.802   4.272  -3.703  0.00  0.00    +0.159 HD
ATOM      7  H   UNL     1       3.474   4.643  -3.515  0.00  0.00    +0.159 HD
ATOM      8  H   UNL     1       2.256   0.981  -4.886  0.00  0.00    +0.159 HD
ATOM      9  H   UNL     1       1.114   2.202  -4.479  0.00  0.00    +0.159 HD
ENDROOT
BRANCH   1  10
ATOM     10  C   UNL     1       4.818   1.061  -4.729  0.00  0.00    +0.151 C 
BRANCH  10  11
ATOM     11  C   UNL     1       5.533   1.169  -6.048  0.00  0.00    -0.028 A 
ATOM     12  C   UNL     1       5.592   0.070  -6.917  0.00  0.00    +0.005 A 
ATOM     13  C   UNL     1       6.147   2.370  -6.436  0.00  0.00    +0.005 A 
ATOM     14  C   UNL     1       6.230   0.179  -8.155  0.00  0.00    +0.000 A 
ATOM     15  C   UNL     1       6.784   2.474  -7.673  0.00  0.00    +0.000 A 
ATOM     16  C   UNL     1       6.823   1.380  -8.533  0.00  0.00    +0.000 A 
ENDBRANCH  10  11
ENDBRANCH   1  10
TORSDOF 2
ENDMDL
MODEL 3
REMARK VINA RESULT:    -5.378     16.144     17.756
REMARK INTER + INTRA:          -6.184
REMARK INTER:                  -6.082
REMARK INTRA:                  -0.101
REMARK UNBOUND:                -0.177
REMARK  Name = 1550473
REMARK  2 active torsions:
REMARK  status: ('A' for Active; 'I' for Inactive)
REMARK    1  A    between atoms: N_1  and  C_4
REMARK    2  A    between atoms: C_4  and  C_5
REMARK                            x       y       z     vdW  Elec       q    Type
REMARK                         _______ _______ _______ _____ _____    ______ ____
ROOT
ATOM      1  N   UNL     1       1.353  -1.751  -3.671  0.00  0.00    -0.354 N 
ATOM      2  N   UNL     1       0.814  -0.204  -5.308  0.00  0.00    -0.372 N 
ATOM      3  N   UNL     1       0.477   0.348  -3.107  0.00  0.00    -0.372 N 
ATOM      4  C   UNL     1       0.884  -0.545  -4.016  0.00  0.00    +0.166 C 
ATOM      5  H   UNL     1       1.617  -2.394  -4.409  0.00  0.00    +0.163 HD
ATOM      6  H   UNL     1       0.468   0.700  -5.599  0.00  0.00    +0.159 HD
ATOM      7  H   UNL     1       1.122  -0.831  -6.042  0.00  0.00    +0.159 HD
ATOM      8  H   UNL     1       0.498   0.150  -2.115  0.00  0.00    +0.159 HD
ATOM      9  H   UNL     1       0.116   1.254  -3.378  0.00  0.00    +0.159 HD
ENDROOT
BRANCH   1  10
ATOM     10  C   UNL     1       1.520  -2.200  -2.290  0.00  0.00    +0.151 C 
BRANCH  10  11
ATOM     11  C   UNL     1       2.497  -3.342  -2.259  0.00  0.00    -0.028 A 
ATOM     12  C   UNL     1       2.268  -4.496  -3.021  0.00  0.00    +0.005 A 
ATOM     13  C   UNL     1       3.658  -3.274  -1.473  0.00  0.00    +0.005 A 
ATOM     14  C   UNL     1       3.190  -5.545  -3.016  0.00  0.00    +0.000 A 
ATOM     15  C   UNL     1       4.576  -4.324  -1.470  0.00  0.00    +0.000 A 
ATOM     16  C   UNL     1       4.343  -5.458  -2.243  0.00  0.00    +0.000 A 
ENDBRANCH  10  11
ENDBRANCH   1  10
TORSDOF 2
ENDMDL
MODEL 4
REMARK VINA RESULT:    -5.225     17.587     18.675
REMARK INTER + INTRA:          -6.013
REMARK INTER:                  -5.860
REMARK INTRA:                  -0.153
REMARK UNBOUND:                -0.177
REMARK  Name = 1550473
REMARK  2 active torsions:
REMARK  status: ('A' for Active; 'I' for Inactive)
REMARK    1  A    between atoms: N_1  and  C_4
REMARK    2  A    between atoms: C_4  and  C_5
REMARK                            x       y       z     vdW  Elec       q    Type
REMARK                         _______ _______ _______ _____ _____    ______ ____
ROOT
ATOM      1  N   UNL     1       5.065   0.215  -4.154  0.00  0.00    -0.354 N 
ATOM      2  N   UNL     1       4.472   2.451  -4.039  0.00  0.00    -0.372 N 
ATOM      3  N   UNL     1       3.389   1.091  -5.537  0.00  0.00    -0.372 N 
ATOM      4  C   UNL     1       4.311   1.237  -4.580  0.00  0.00    +0.166 C 
ATOM      5  H   UNL     1       5.768   0.397  -3.447  0.00  0.00    +0.163 HD
ATOM      6  H   UNL     1       3.914   3.240  -4.338  0.00  0.00    +0.159 HD
ATOM      7  H   UNL     1       5.143   2.620  -3.300  0.00  0.00    +0.159 HD
ATOM      8  H   UNL     1       3.222   0.202  -5.990  0.00  0.00    +0.159 HD
ATOM      9  H   UNL     1       2.829   1.871  -5.858  0.00  0.00    +0.159 HD
ENDROOT
BRANCH   1  10
ATOM     10  C   UNL     1       4.932  -1.158  -4.639  0.00  0.00    +0.151 C 
BRANCH  10  11
ATOM     11  C   UNL     1       4.587  -2.056  -3.484  0.00  0.00    -0.028 A 
ATOM     12  C   UNL     1       3.277  -2.099  -2.982  0.00  0.00    +0.005 A 
ATOM     13  C   UNL     1       5.562  -2.871  -2.890  0.00  0.00    +0.005 A 
ATOM     14  C   UNL     1       2.949  -2.955  -1.928  0.00  0.00    +0.000 A 
ATOM     15  C   UNL     1       5.231  -3.724  -1.837  0.00  0.00    +0.000 A 
ATOM     16  C   UNL     1       3.924  -3.767  -1.358  0.00  0.00    +0.000 A 
ENDBRANCH  10  11
ENDBRANCH   1  10
TORSDOF 2
ENDMDL
MODEL 5
REMARK VINA RESULT:    -5.153     27.956     28.736
REMARK INTER + INTRA:          -5.933
REMARK INTER:                  -5.783
REMARK INTRA:                  -0.150
REMARK UNBOUND:                -0.177
REMARK  Name = 1550473
REMARK  2 active torsions:
REMARK  status: ('A' for Active; 'I' for Inactive)
REMARK    1  A    between atoms: N_1  and  C_4
REMARK    2  A    between atoms: C_4  and  C_5
REMARK                            x       y       z     vdW  Elec       q    Type
REMARK                         _______ _______ _______ _____ _____    ______ ____
ROOT
ATOM      1  N   UNL     1       8.302  -0.882  23.888  0.00  0.00    -0.354 N 
ATOM      2  N   UNL     1       9.447   0.955  24.712  0.00  0.00    -0.372 N 
ATOM      3  N   UNL     1      10.353  -0.224  22.964  0.00  0.00    -0.372 N 
ATOM      4  C   UNL     1       9.361  -0.063  23.847  0.00  0.00    +0.166 C 
ATOM      5  H   UNL     1       7.599  -0.724  24.601  0.00  0.00    +0.163 HD
ATOM      6  H   UNL     1      10.233   1.591  24.703  0.00  0.00    +0.159 HD
ATOM      7  H   UNL     1       8.720   1.138  25.393  0.00  0.00    +0.159 HD
ATOM      8  H   UNL     1      10.351  -0.977  22.289  0.00  0.00    +0.159 HD
ATOM      9  H   UNL     1      11.153   0.395  22.947  0.00  0.00    +0.159 HD
ENDROOT
BRANCH   1  10
ATOM     10  C   UNL     1       8.086  -1.987  22.956  0.00  0.00    +0.151 C 
BRANCH  10  11
ATOM     11  C   UNL     1       6.858  -1.707  22.136  0.00  0.00    -0.028 A 
ATOM     12  C   UNL     1       6.629  -2.397  20.937  0.00  0.00    +0.005 A 
ATOM     13  C   UNL     1       5.915  -0.756  22.555  0.00  0.00    +0.005 A 
ATOM     14  C   UNL     1       5.473  -2.158  20.189  0.00  0.00    +0.000 A 
ATOM     15  C   UNL     1       4.763  -0.519  21.806  0.00  0.00    +0.000 A 
ATOM     16  C   UNL     1       4.541  -1.223  20.625  0.00  0.00    +0.000 A 
ENDBRANCH  10  11
ENDBRANCH   1  10
TORSDOF 2
ENDMDL
MODEL 6
REMARK VINA RESULT:    -5.110     12.132     13.238
REMARK INTER + INTRA:          -5.885
REMARK INTER:                  -5.772
REMARK INTRA:                  -0.113
REMARK UNBOUND:                -0.177
REMARK  Name = 1550473
REMARK  2 active torsions:
REMARK  status: ('A' for Active; 'I' for Inactive)
REMARK    1  A    between atoms: N_1  and  C_4
REMARK    2  A    between atoms: C_4  and  C_5
REMARK                            x       y       z     vdW  Elec       q    Type
REMARK                         _______ _______ _______ _____ _____    ______ ____
ROOT
ATOM      1  N   UNL     1     -16.181  -2.097   5.968  0.00  0.00    -0.354 N 
ATOM      2  N   UNL     1     -15.065  -0.949   7.641  0.00  0.00    -0.372 N 
ATOM      3  N   UNL     1     -16.475   0.211   6.251  0.00  0.00    -0.372 N 
ATOM      4  C   UNL     1     -15.916  -0.951   6.607  0.00  0.00    +0.166 C 
ATOM      5  H   UNL     1     -15.702  -2.938   6.267  0.00  0.00    +0.163 HD
ATOM      6  H   UNL     1     -14.848  -0.100   8.145  0.00  0.00    +0.159 HD
ATOM      7  H   UNL     1     -14.622  -1.799   7.968  0.00  0.00    +0.159 HD
ATOM      8  H   UNL     1     -17.121   0.278   5.476  0.00  0.00    +0.159 HD
ATOM      9  H   UNL     1     -16.261   1.073   6.736  0.00  0.00    +0.159 HD
ENDROOT
BRANCH   1  10
ATOM     10  C   UNL     1     -17.134  -2.216   4.865  0.00  0.00    +0.151 C 
BRANCH  10  11
ATOM     11  C   UNL     1     -16.674  -3.304   3.934  0.00  0.00    -0.028 A 
ATOM     12  C   UNL     1     -16.710  -3.115   2.545  0.00  0.00    +0.005 A 
ATOM     13  C   UNL     1     -16.195  -4.524   4.435  0.00  0.00    +0.005 A 
ATOM     14  C   UNL     1     -16.255  -4.114   1.681  0.00  0.00    +0.000 A 
ATOM     15  C   UNL     1     -15.742  -5.519   3.569  0.00  0.00    +0.000 A 
ATOM     16  C   UNL     1     -15.770  -5.313   2.192  0.00  0.00    +0.000 A 
ENDBRANCH  10  11
ENDBRANCH   1  10
TORSDOF 2
ENDMDL
MODEL 7
REMARK VINA RESULT:    -5.020     15.577     17.232
REMARK INTER + INTRA:          -5.784
REMARK INTER:                  -5.633
REMARK INTRA:                  -0.151
REMARK UNBOUND:                -0.177
REMARK  Name = 1550473
REMARK  2 active torsions:
REMARK  status: ('A' for Active; 'I' for Inactive)
REMARK    1  A    between atoms: N_1  and  C_4
REMARK    2  A    between atoms: C_4  and  C_5
REMARK                            x       y       z     vdW  Elec       q    Type
REMARK                         _______ _______ _______ _____ _____    ______ ____
ROOT
ATOM      1  N   UNL     1       1.671  -0.471  -4.606  0.00  0.00    -0.354 N 
ATOM      2  N   UNL     1       1.492   1.771  -5.159  0.00  0.00    -0.372 N 
ATOM      3  N   UNL     1       0.376   0.990  -3.312  0.00  0.00    -0.372 N 
ATOM      4  C   UNL     1       1.179   0.748  -4.353  0.00  0.00    +0.166 C 
ATOM      5  H   UNL     1       2.250  -0.596  -5.429  0.00  0.00    +0.163 HD
ATOM      6  H   UNL     1       1.138   2.703  -4.991  0.00  0.00    +0.159 HD
ATOM      7  H   UNL     1       2.108   1.653  -5.954  0.00  0.00    +0.159 HD
ATOM      8  H   UNL     1       0.097   0.261  -2.670  0.00  0.00    +0.159 HD
ATOM      9  H   UNL     1       0.002   1.914  -3.134  0.00  0.00    +0.159 HD
ENDROOT
BRANCH   1  10
ATOM     10  C   UNL     1       1.435  -1.640  -3.761  0.00  0.00    +0.151 C 
BRANCH  10  11
ATOM     11  C   UNL     1       2.745  -2.103  -3.185  0.00  0.00    -0.028 A 
ATOM     12  C   UNL     1       3.955  -1.771  -3.812  0.00  0.00    +0.005 A 
ATOM     13  C   UNL     1       2.784  -2.869  -2.010  0.00  0.00    +0.005 A 
ATOM     14  C   UNL     1       5.174  -2.175  -3.262  0.00  0.00    +0.000 A 
ATOM     15  C   UNL     1       4.002  -3.271  -1.464  0.00  0.00    +0.000 A 
ATOM     16  C   UNL     1       5.197  -2.922  -2.089  0.00  0.00    +0.000 A 
ENDBRANCH  10  11
ENDBRANCH   1  10
TORSDOF 2
ENDMDL
MODEL 8
REMARK VINA RESULT:    -4.931     11.769     13.165
REMARK INTER + INTRA:          -5.684
REMARK INTER:                  -5.548
REMARK INTRA:                  -0.136
REMARK UNBOUND:                -0.177
REMARK  Name = 1550473
REMARK  2 active torsions:
REMARK  status: ('A' for Active; 'I' for Inactive)
REMARK    1  A    between atoms: N_1  and  C_4
REMARK    2  A    between atoms: C_4  and  C_5
REMARK                            x       y       z     vdW  Elec       q    Type
REMARK                         _______ _______ _______ _____ _____    ______ ____
ROOT
ATOM      1  N   UNL     1     -16.656  -3.734   3.399  0.00  0.00    -0.354 N 
ATOM      2  N   UNL     1     -15.161  -5.282   2.544  0.00  0.00    -0.372 N 
ATOM      3  N   UNL     1     -15.805  -5.457   4.740  0.00  0.00    -0.372 N 
ATOM      4  C   UNL     1     -15.884  -4.815   3.569  0.00  0.00    +0.166 C 
ATOM      5  H   UNL     1     -16.649  -3.275   2.495  0.00  0.00    +0.163 HD
ATOM      6  H   UNL     1     -14.572  -6.098   2.642  0.00  0.00    +0.159 HD
ATOM      7  H   UNL     1     -15.191  -4.849   1.630  0.00  0.00    +0.159 HD
ATOM      8  H   UNL     1     -16.321  -5.151   5.554  0.00  0.00    +0.159 HD
ATOM      9  H   UNL     1     -15.212  -6.268   4.860  0.00  0.00    +0.159 HD
ENDROOT
BRANCH   1  10
ATOM     10  C   UNL     1     -17.523  -3.176   4.435  0.00  0.00    +0.151 C 
BRANCH  10  11
ATOM     11  C   UNL     1     -17.124  -1.750   4.695  0.00  0.00    -0.028 A 
ATOM     12  C   UNL     1     -17.320  -0.766   3.714  0.00  0.00    +0.005 A 
ATOM     13  C   UNL     1     -16.556  -1.374   5.921  0.00  0.00    +0.005 A 
ATOM     14  C   UNL     1     -16.977   0.564   3.966  0.00  0.00    +0.000 A 
ATOM     15  C   UNL     1     -16.214  -0.045   6.169  0.00  0.00    +0.000 A 
ATOM     16  C   UNL     1     -16.427   0.925   5.192  0.00  0.00    +0.000 A 
ENDBRANCH  10  11
ENDBRANCH   1  10
TORSDOF 2
ENDMDL
MODEL 9
REMARK VINA RESULT:    -4.874     14.581     15.954
REMARK INTER + INTRA:          -5.621
REMARK INTER:                  -5.494
REMARK INTRA:                  -0.126
REMARK UNBOUND:                -0.177
REMARK  Name = 1550473
REMARK  2 active torsions:
REMARK  status: ('A' for Active; 'I' for Inactive)
REMARK    1  A    between atoms: N_1  and  C_4
REMARK    2  A    between atoms: C_4  and  C_5
REMARK                            x       y       z     vdW  Elec       q    Type
REMARK                         _______ _______ _______ _____ _____    ______ ____
ROOT
ATOM      1  N   UNL     1      -5.603   4.312 -10.981  0.00  0.00    -0.354 N 
ATOM      2  N   UNL     1      -6.860   2.387 -10.699  0.00  0.00    -0.372 N 
ATOM      3  N   UNL     1      -7.906   4.299 -11.417  0.00  0.00    -0.372 N 
ATOM      4  C   UNL     1      -6.784   3.680 -11.035  0.00  0.00    +0.166 C 
ATOM      5  H   UNL     1      -4.795   3.794 -10.654  0.00  0.00    +0.163 HD
ATOM      6  H   UNL     1      -7.736   1.883 -10.733  0.00  0.00    +0.159 HD
ATOM      7  H   UNL     1      -6.043   1.860 -10.417  0.00  0.00    +0.159 HD
ATOM      8  H   UNL     1      -7.917   5.276 -11.677  0.00  0.00    +0.159 HD
ATOM      9  H   UNL     1      -8.795   3.815 -11.446  0.00  0.00    +0.159 HD
ENDROOT
BRANCH   1  10
ATOM     10  C   UNL     1      -5.402   5.704 -11.377  0.00  0.00    +0.151 C 
BRANCH  10  11
ATOM     11  C   UNL     1      -4.277   5.774 -12.372  0.00  0.00    -0.028 A 
ATOM     12  C   UNL     1      -2.943   5.728 -11.943  0.00  0.00    +0.005 A 
ATOM     13  C   UNL     1      -4.539   5.882 -13.747  0.00  0.00    +0.005 A 
ATOM     14  C   UNL     1      -1.898   5.762 -12.869  0.00  0.00    +0.000 A 
ATOM     15  C   UNL     1      -3.492   5.917 -14.668  0.00  0.00    +0.000 A 
ATOM     16  C   UNL     1      -2.172   5.855 -14.229  0.00  0.00    +0.000 A 
ENDBRANCH  10  11
ENDBRANCH   1  10
TORSDOF 2
ENDMDL
