MODEL 1
REMARK VINA RESULT:    -4.984      0.000      0.000
REMARK INTER + INTRA:          -5.720
REMARK INTER:                  -5.567
REMARK INTRA:                  -0.153
REMARK UNBOUND:                -0.153
REMARK  Name = 1550473
REMARK  2 active torsions:
REMARK  status: ('A' for Active; 'I' for Inactive)
REMARK    1  A    between atoms: N_1  and  C_4
REMARK    2  A    between atoms: C_4  and  C_5
REMARK                            x       y       z     vdW  Elec       q    Type
REMARK                         _______ _______ _______ _____ _____    ______ ____
ROOT
ATOM      1  N   UNL     1     -20.573  -9.401  -5.471  0.00  0.00    -0.354 N 
ATOM      2  N   UNL     1     -20.950  -8.156  -7.387  0.00  0.00    -0.372 N 
ATOM      3  N   UNL     1     -20.423 -10.379  -7.595  0.00  0.00    -0.372 N 
ATOM      4  C   UNL     1     -20.645  -9.323  -6.807  0.00  0.00    +0.166 C 
ATOM      5  H   UNL     1     -20.723  -8.557  -4.931  0.00  0.00    +0.163 HD
ATOM      6  H   UNL     1     -21.016  -8.067  -8.392  0.00  0.00    +0.159 HD
ATOM      7  H   UNL     1     -21.145  -7.324  -6.843  0.00  0.00    +0.159 HD
ATOM      8  H   UNL     1     -20.182 -11.287  -7.220  0.00  0.00    +0.159 HD
ATOM      9  H   UNL     1     -20.472 -10.307  -8.604  0.00  0.00    +0.159 HD
ENDROOT
BRANCH   1  10
ATOM     10  C   UNL     1     -20.301 -10.636  -4.738  0.00  0.00    +0.151 C 
BRANCH  10  11
ATOM     11  C   UNL     1     -18.957 -10.526  -4.072  0.00  0.00    -0.028 A 
ATOM     12  C   UNL     1     -17.983 -11.516  -4.265  0.00  0.00    +0.005 A 
ATOM     13  C   UNL     1     -18.650  -9.431  -3.250  0.00  0.00    +0.005 A 
ATOM     14  C   UNL     1     -16.725 -11.400  -3.671  0.00  0.00    +0.000 A 
ATOM     15  C   UNL     1     -17.392  -9.318  -2.657  0.00  0.00    +0.000 A 
ATOM     16  C   UNL     1     -16.429 -10.301  -2.870  0.00  0.00    +0.000 A 
ENDBRANCH  10  11
ENDBRANCH   1  10
TORSDOF 2
ENDMDL
MODEL 2
REMARK VINA RESULT:    -4.907     22.993     23.879
REMARK INTER + INTRA:          -5.634
REMARK INTER:                  -5.498
REMARK INTRA:                  -0.136
REMARK UNBOUND:                -0.153
REMARK  Name = 1550473
REMARK  2 active torsions:
REMARK  status: ('A' for Active; 'I' for Inactive)
REMARK    1  A    between atoms: N_1  and  C_4
REMARK    2  A    between atoms: C_4  and  C_5
REMARK                            x       y       z     vdW  Elec       q    Type
REMARK                         _______ _______ _______ _____ _____    ______ ____
ROOT
ATOM      1  N   UNL     1       3.912  -4.002  -2.117  0.00  0.00    -0.354 N 
ATOM      2  N   UNL     1       3.443  -4.006  -4.385  0.00  0.00    -0.372 N 
ATOM      3  N   UNL     1       4.854  -2.402  -3.547  0.00  0.00    -0.372 N 
ATOM      4  C   UNL     1       4.074  -3.468  -3.335  0.00  0.00    +0.166 C 
ATOM      5  H   UNL     1       3.283  -4.791  -2.018  0.00  0.00    +0.163 HD
ATOM      6  H   UNL     1       3.549  -3.627  -5.317  0.00  0.00    +0.159 HD
ATOM      7  H   UNL     1       2.852  -4.823  -4.290  0.00  0.00    +0.159 HD
ATOM      8  H   UNL     1       5.353  -1.946  -2.795  0.00  0.00    +0.159 HD
ATOM      9  H   UNL     1       4.963  -2.001  -4.470  0.00  0.00    +0.159 HD
ENDROOT
BRANCH   1  10
ATOM     10  C   UNL     1       4.596  -3.525  -0.917  0.00  0.00    +0.151 C 
BRANCH  10  11
ATOM     11  C   UNL     1       3.592  -3.372   0.193  0.00  0.00    -0.028 A 
ATOM     12  C   UNL     1       3.695  -4.146   1.358  0.00  0.00    +0.005 A 
ATOM     13  C   UNL     1       2.539  -2.450   0.088  0.00  0.00    +0.005 A 
ATOM     14  C   UNL     1       2.781  -3.983   2.401  0.00  0.00    +0.000 A 
ATOM     15  C   UNL     1       1.628  -2.291   1.131  0.00  0.00    +0.000 A 
ATOM     16  C   UNL     1       1.750  -3.056   2.289  0.00  0.00    +0.000 A 
ENDBRANCH  10  11
ENDBRANCH   1  10
TORSDOF 2
ENDMDL
MODEL 3
REMARK VINA RESULT:    -4.679     24.291     25.732
REMARK INTER + INTRA:          -5.379
REMARK INTER:                  -5.227
REMARK INTRA:                  -0.152
REMARK UNBOUND:                -0.153
REMARK  Name = 1550473
REMARK  2 active torsions:
REMARK  status: ('A' for Active; 'I' for Inactive)
REMARK    1  A    between atoms: N_1  and  C_4
REMARK    2  A    between atoms: C_4  and  C_5
REMARK                            x       y       z     vdW  Elec       q    Type
REMARK                         _______ _______ _______ _____ _____    ______ ____
ROOT
ATOM      1  N   UNL     1       4.723  -2.496  -3.631  0.00  0.00    -0.354 N 
ATOM      2  N   UNL     1       4.224  -0.546  -2.486  0.00  0.00    -0.372 N 
ATOM      3  N   UNL     1       3.068  -2.461  -1.973  0.00  0.00    -0.372 N 
ATOM      4  C   UNL     1       4.006  -1.849  -2.703  0.00  0.00    +0.166 C 
ATOM      5  H   UNL     1       5.399  -1.969  -4.172  0.00  0.00    +0.163 HD
ATOM      6  H   UNL     1       3.701  -0.032  -1.790  0.00  0.00    +0.159 HD
ATOM      7  H   UNL     1       4.932  -0.032  -2.997  0.00  0.00    +0.159 HD
ATOM      8  H   UNL     1       2.851  -3.441  -2.092  0.00  0.00    +0.159 HD
ATOM      9  H   UNL     1       2.526  -1.960  -1.280  0.00  0.00    +0.159 HD
ENDROOT
BRANCH   1  10
ATOM     10  C   UNL     1       4.602  -3.927  -3.908  0.00  0.00    +0.151 C 
BRANCH  10  11
ATOM     11  C   UNL     1       5.922  -4.593  -3.638  0.00  0.00    -0.028 A 
ATOM     12  C   UNL     1       6.453  -4.624  -2.340  0.00  0.00    +0.005 A 
ATOM     13  C   UNL     1       6.646  -5.200  -4.676  0.00  0.00    +0.005 A 
ATOM     14  C   UNL     1       7.665  -5.270  -2.085  0.00  0.00    +0.000 A 
ATOM     15  C   UNL     1       7.857  -5.843  -4.417  0.00  0.00    +0.000 A 
ATOM     16  C   UNL     1       8.365  -5.879  -3.121  0.00  0.00    +0.000 A 
ENDBRANCH  10  11
ENDBRANCH   1  10
TORSDOF 2
ENDMDL
MODEL 4
REMARK VINA RESULT:    -4.679     23.746     24.664
REMARK INTER + INTRA:          -5.379
REMARK INTER:                  -5.250
REMARK INTRA:                  -0.129
REMARK UNBOUND:                -0.153
REMARK  Name = 1550473
REMARK  2 active torsions:
REMARK  status: ('A' for Active; 'I' for Inactive)
REMARK    1  A    between atoms: N_1  and  C_4
REMARK    2  A    between atoms: C_4  and  C_5
REMARK                            x       y       z     vdW  Elec       q    Type
REMARK                         _______ _______ _______ _____ _____    ______ ____
ROOT
ATOM      1  N   UNL     1       4.707  -3.271  -3.974  0.00  0.00    -0.354 N 
ATOM      2  N   UNL     1       6.314  -4.814  -4.608  0.00  0.00    -0.372 N 
ATOM      3  N   UNL     1       4.271  -5.572  -3.888  0.00  0.00    -0.372 N 
ATOM      4  C   UNL     1       5.085  -4.544  -4.151  0.00  0.00    +0.166 C 
ATOM      5  H   UNL     1       5.381  -2.538  -4.163  0.00  0.00    +0.163 HD
ATOM      6  H   UNL     1       6.625  -5.765  -4.755  0.00  0.00    +0.159 HD
ATOM      7  H   UNL     1       6.970  -4.078  -4.839  0.00  0.00    +0.159 HD
ATOM      8  H   UNL     1       3.333  -5.435  -3.536  0.00  0.00    +0.159 HD
ATOM      9  H   UNL     1       4.569  -6.530  -4.018  0.00  0.00    +0.159 HD
ENDROOT
BRANCH   1  10
ATOM     10  C   UNL     1       3.373  -2.867  -3.532  0.00  0.00    +0.151 C 
BRANCH  10  11
ATOM     11  C   UNL     1       3.502  -1.982  -2.324  0.00  0.00    -0.028 A 
ATOM     12  C   UNL     1       3.929  -0.653  -2.457  0.00  0.00    +0.005 A 
ATOM     13  C   UNL     1       3.194  -2.465  -1.043  0.00  0.00    +0.005 A 
ATOM     14  C   UNL     1       4.020   0.179  -1.338  0.00  0.00    +0.000 A 
ATOM     15  C   UNL     1       3.287  -1.632   0.072  0.00  0.00    +0.000 A 
ATOM     16  C   UNL     1       3.698  -0.310  -0.076  0.00  0.00    +0.000 A 
ENDBRANCH  10  11
ENDBRANCH   1  10
TORSDOF 2
ENDMDL
MODEL 5
REMARK VINA RESULT:    -4.617      3.051      3.942
REMARK INTER + INTRA:          -5.310
REMARK INTER:                  -5.218
REMARK INTRA:                  -0.093
REMARK UNBOUND:                -0.153
REMARK  Name = 1550473
REMARK  2 active torsions:
REMARK  status: ('A' for Active; 'I' for Inactive)
REMARK    1  A    between atoms: N_1  and  C_4
REMARK    2  A    between atoms: C_4  and  C_5
REMARK                            x       y       z     vdW  Elec       q    Type
REMARK                         _______ _______ _______ _____ _____    ______ ____
ROOT
ATOM      1  N   UNL     1     -19.576 -13.131  -3.747  0.00  0.00    -0.354 N 
ATOM      2  N   UNL     1     -20.587 -15.108  -3.088  0.00  0.00    -0.372 N 
ATOM      3  N   UNL     1     -20.137 -14.782  -5.314  0.00  0.00    -0.372 N 
ATOM      4  C   UNL     1     -20.093 -14.328  -4.057  0.00  0.00    +0.166 C 
ATOM      5  H   UNL     1     -19.600 -12.832  -2.779  0.00  0.00    +0.163 HD
ATOM      6  H   UNL     1     -20.981 -16.017  -3.290  0.00  0.00    +0.159 HD
ATOM      7  H   UNL     1     -20.568 -14.826  -2.115  0.00  0.00    +0.159 HD
ATOM      8  H   UNL     1     -19.786 -14.239  -6.092  0.00  0.00    +0.159 HD
ATOM      9  H   UNL     1     -20.537 -15.684  -5.538  0.00  0.00    +0.159 HD
ENDROOT
BRANCH   1  10
ATOM     10  C   UNL     1     -18.964 -12.228  -4.721  0.00  0.00    +0.151 C 
BRANCH  10  11
ATOM     11  C   UNL     1     -18.195 -11.164  -3.988  0.00  0.00    -0.028 A 
ATOM     12  C   UNL     1     -18.862 -10.076  -3.407  0.00  0.00    +0.005 A 
ATOM     13  C   UNL     1     -16.799 -11.241  -3.867  0.00  0.00    +0.005 A 
ATOM     14  C   UNL     1     -18.151  -9.103  -2.700  0.00  0.00    +0.000 A 
ATOM     15  C   UNL     1     -16.093 -10.267  -3.161  0.00  0.00    +0.000 A 
ATOM     16  C   UNL     1     -16.769  -9.200  -2.576  0.00  0.00    +0.000 A 
ENDBRANCH  10  11
ENDBRANCH   1  10
TORSDOF 2
ENDMDL
MODEL 6
REMARK VINA RESULT:    -4.606      2.028      2.521
REMARK INTER + INTRA:          -5.298
REMARK INTER:                  -5.220
REMARK INTRA:                  -0.079
REMARK UNBOUND:                -0.153
REMARK  Name = 1550473
REMARK  2 active torsions:
REMARK  status: ('A' for Active; 'I' for Inactive)
REMARK    1  A    between atoms: N_1  and  C_4
REMARK    2  A    between atoms: C_4  and  C_5
REMARK                            x       y       z     vdW  Elec       q    Type
REMARK                         _______ _______ _______ _____ _____    ______ ____
ROOT
ATOM      1  N   UNL     1     -20.797  -9.051  -2.834  0.00  0.00    -0.354 N 
ATOM      2  N   UNL     1     -22.354  -8.746  -4.522  0.00  0.00    -0.372 N 
ATOM      3  N   UNL     1     -20.513  -7.378  -4.451  0.00  0.00    -0.372 N 
ATOM      4  C   UNL     1     -21.209  -8.392  -3.925  0.00  0.00    +0.166 C 
ATOM      5  H   UNL     1     -21.386  -9.790  -2.467  0.00  0.00    +0.163 HD
ATOM      6  H   UNL     1     -22.688  -8.270  -5.349  0.00  0.00    +0.159 HD
ATOM      7  H   UNL     1     -22.917  -9.516  -4.180  0.00  0.00    +0.159 HD
ATOM      8  H   UNL     1     -19.644  -7.058  -4.044  0.00  0.00    +0.159 HD
ATOM      9  H   UNL     1     -20.837  -6.881  -5.271  0.00  0.00    +0.159 HD
ENDROOT
BRANCH   1  10
ATOM     10  C   UNL     1     -19.540  -8.779  -2.141  0.00  0.00    +0.151 C 
BRANCH  10  11
ATOM     11  C   UNL     1     -18.459  -9.648  -2.723  0.00  0.00    -0.028 A 
ATOM     12  C   UNL     1     -18.782 -10.861  -3.349  0.00  0.00    +0.005 A 
ATOM     13  C   UNL     1     -17.112  -9.262  -2.656  0.00  0.00    +0.005 A 
ATOM     14  C   UNL     1     -17.782 -11.654  -3.917  0.00  0.00    +0.000 A 
ATOM     15  C   UNL     1     -16.116 -10.057  -3.223  0.00  0.00    +0.000 A 
ATOM     16  C   UNL     1     -16.452 -11.252  -3.856  0.00  0.00    +0.000 A 
ENDBRANCH  10  11
ENDBRANCH   1  10
TORSDOF 2
ENDMDL
MODEL 7
REMARK VINA RESULT:    -4.420     11.664     12.772
REMARK INTER + INTRA:          -5.090
REMARK INTER:                  -4.966
REMARK INTRA:                  -0.124
REMARK UNBOUND:                -0.153
REMARK  Name = 1550473
REMARK  2 active torsions:
REMARK  status: ('A' for Active; 'I' for Inactive)
REMARK    1  A    between atoms: N_1  and  C_4
REMARK    2  A    between atoms: C_4  and  C_5
REMARK                            x       y       z     vdW  Elec       q    Type
REMARK                         _______ _______ _______ _____ _____    ______ ____
ROOT
ATOM      1  N   UNL     1     -14.276   1.407  -4.578  0.00  0.00    -0.354 N 
ATOM      2  N   UNL     1     -15.011   0.746  -6.673  0.00  0.00    -0.372 N 
ATOM      3  N   UNL     1     -15.247  -0.701  -4.908  0.00  0.00    -0.372 N 
ATOM      4  C   UNL     1     -14.841   0.486  -5.371  0.00  0.00    +0.166 C 
ATOM      5  H   UNL     1     -13.962   2.275  -4.997  0.00  0.00    +0.163 HD
ATOM      6  H   UNL     1     -15.437   0.072  -7.295  0.00  0.00    +0.159 HD
ATOM      7  H   UNL     1     -14.738   1.632  -7.080  0.00  0.00    +0.159 HD
ATOM      8  H   UNL     1     -15.142  -0.961  -3.936  0.00  0.00    +0.159 HD
ATOM      9  H   UNL     1     -15.665  -1.393  -5.517  0.00  0.00    +0.159 HD
ENDROOT
BRANCH   1  10
ATOM     10  C   UNL     1     -14.094   1.244  -3.137  0.00  0.00    +0.151 C 
BRANCH  10  11
ATOM     11  C   UNL     1     -12.623   1.245  -2.825  0.00  0.00    -0.028 A 
ATOM     12  C   UNL     1     -11.676   1.298  -3.858  0.00  0.00    +0.005 A 
ATOM     13  C   UNL     1     -12.170   1.199  -1.497  0.00  0.00    +0.005 A 
ATOM     14  C   UNL     1     -10.310   1.329  -3.567  0.00  0.00    +0.000 A 
ATOM     15  C   UNL     1     -10.806   1.229  -1.211  0.00  0.00    +0.000 A 
ATOM     16  C   UNL     1      -9.876   1.297  -2.246  0.00  0.00    +0.000 A 
ENDBRANCH  10  11
ENDBRANCH   1  10
TORSDOF 2
ENDMDL
MODEL 8
REMARK VINA RESULT:    -4.329      2.406      3.290
REMARK INTER + INTRA:          -4.989
REMARK INTER:                  -4.891
REMARK INTRA:                  -0.098
REMARK UNBOUND:                -0.153
REMARK  Name = 1550473
REMARK  2 active torsions:
REMARK  status: ('A' for Active; 'I' for Inactive)
REMARK    1  A    between atoms: N_1  and  C_4
REMARK    2  A    between atoms: C_4  and  C_5
REMARK                            x       y       z     vdW  Elec       q    Type
REMARK                         _______ _______ _______ _____ _____    ______ ____
ROOT
ATOM      1  N   UNL     1     -20.914  -9.026  -2.730  0.00  0.00    -0.354 N 
ATOM      2  N   UNL     1     -22.712  -8.258  -1.488  0.00  0.00    -0.372 N 
ATOM      3  N   UNL     1     -22.557  -7.665  -3.699  0.00  0.00    -0.372 N 
ATOM      4  C   UNL     1     -22.050  -8.320  -2.650  0.00  0.00    +0.166 C 
ATOM      5  H   UNL     1     -20.566  -9.475  -1.891  0.00  0.00    +0.163 HD
ATOM      6  H   UNL     1     -23.573  -7.736  -1.398  0.00  0.00    +0.159 HD
ATOM      7  H   UNL     1     -22.386  -8.746  -0.663  0.00  0.00    +0.159 HD
ATOM      8  H   UNL     1     -22.102  -7.667  -4.603  0.00  0.00    +0.159 HD
ATOM      9  H   UNL     1     -23.412  -7.127  -3.626  0.00  0.00    +0.159 HD
ENDROOT
BRANCH   1  10
ATOM     10  C   UNL     1     -20.145  -9.201  -3.961  0.00  0.00    +0.151 C 
BRANCH  10  11
ATOM     11  C   UNL     1     -18.823  -9.837  -3.629  0.00  0.00    -0.028 A 
ATOM     12  C   UNL     1     -17.841  -9.116  -2.934  0.00  0.00    +0.005 A 
ATOM     13  C   UNL     1     -18.549 -11.162  -4.000  0.00  0.00    +0.005 A 
ATOM     14  C   UNL     1     -16.625  -9.715  -2.599  0.00  0.00    +0.000 A 
ATOM     15  C   UNL     1     -17.333 -11.757  -3.664  0.00  0.00    +0.000 A 
ATOM     16  C   UNL     1     -16.373 -11.034  -2.961  0.00  0.00    +0.000 A 
ENDBRANCH  10  11
ENDBRANCH   1  10
TORSDOF 2
ENDMDL
MODEL 9
REMARK VINA RESULT:    -4.290     23.299     24.244
REMARK INTER + INTRA:          -4.945
REMARK INTER:                  -4.805
REMARK INTRA:                  -0.140
REMARK UNBOUND:                -0.153
REMARK  Name = 1550473
REMARK  2 active torsions:
REMARK  status: ('A' for Active; 'I' for Inactive)
REMARK    1  A    between atoms: N_1  and  C_4
REMARK    2  A    between atoms: C_4  and  C_5
REMARK                            x       y       z     vdW  Elec       q    Type
REMARK                         _______ _______ _______ _____ _____    ______ ____
ROOT
ATOM      1  N   UNL     1       2.254  -7.464   6.129  0.00  0.00    -0.354 N 
ATOM      2  N   UNL     1       1.302  -6.464   4.269  0.00  0.00    -0.372 N 
ATOM      3  N   UNL     1       1.647  -5.200   6.153  0.00  0.00    -0.372 N 
ATOM      4  C   UNL     1       1.740  -6.381   5.531  0.00  0.00    +0.166 C 
ATOM      5  H   UNL     1       2.268  -8.336   5.614  0.00  0.00    +0.163 HD
ATOM      6  H   UNL     1       0.912  -5.663   3.791  0.00  0.00    +0.159 HD
ATOM      7  H   UNL     1       1.360  -7.327   3.741  0.00  0.00    +0.159 HD
ATOM      8  H   UNL     1       1.955  -5.072   7.108  0.00  0.00    +0.159 HD
ATOM      9  H   UNL     1       1.250  -4.390   5.695  0.00  0.00    +0.159 HD
ENDROOT
BRANCH   1  10
ATOM     10  C   UNL     1       2.808  -7.465   7.482  0.00  0.00    +0.151 C 
BRANCH  10  11
ATOM     11  C   UNL     1       1.888  -8.234   8.389  0.00  0.00    -0.028 A 
ATOM     12  C   UNL     1       0.596  -7.761   8.661  0.00  0.00    +0.005 A 
ATOM     13  C   UNL     1       2.300  -9.441   8.976  0.00  0.00    +0.005 A 
ATOM     14  C   UNL     1      -0.270  -8.490   9.479  0.00  0.00    +0.000 A 
ATOM     15  C   UNL     1       1.433 -10.166   9.793  0.00  0.00    +0.000 A 
ATOM     16  C   UNL     1       0.147  -9.691  10.043  0.00  0.00    +0.000 A 
ENDBRANCH  10  11
ENDBRANCH   1  10
TORSDOF 2
ENDMDL
