MODEL 1
REMARK VINA RESULT:    -5.853      0.000      0.000
REMARK INTER + INTRA:          -6.712
REMARK INTER:                  -6.537
REMARK INTRA:                  -0.175
REMARK UNBOUND:                -0.175
REMARK  Name = 1550473
REMARK  2 active torsions:
REMARK  status: ('A' for Active; 'I' for Inactive)
REMARK    1  A    between atoms: N_1  and  C_4
REMARK    2  A    between atoms: C_4  and  C_5
REMARK                            x       y       z     vdW  Elec       q    Type
REMARK                         _______ _______ _______ _____ _____    ______ ____
ROOT
ATOM      1  N   UNL     1      -2.462  13.790  -0.789  0.00  0.00    -0.354 N 
ATOM      2  N   UNL     1      -1.464  15.751  -1.514  0.00  0.00    -0.372 N 
ATOM      3  N   UNL     1      -1.105  15.055   0.643  0.00  0.00    -0.372 N 
ATOM      4  C   UNL     1      -1.683  14.853  -0.546  0.00  0.00    +0.166 C 
ATOM      5  H   UNL     1      -2.895  13.710  -1.702  0.00  0.00    +0.163 HD
ATOM      6  H   UNL     1      -0.878  16.561  -1.361  0.00  0.00    +0.159 HD
ATOM      7  H   UNL     1      -1.862  15.644  -2.439  0.00  0.00    +0.159 HD
ATOM      8  H   UNL     1      -1.235  14.417   1.417  0.00  0.00    +0.159 HD
ATOM      9  H   UNL     1      -0.524  15.865   0.819  0.00  0.00    +0.159 HD
ENDROOT
BRANCH   1  10
ATOM     10  C   UNL     1      -2.720  12.726   0.179  0.00  0.00    +0.151 C 
BRANCH  10  11
ATOM     11  C   UNL     1      -1.777  11.585  -0.082  0.00  0.00    -0.028 A 
ATOM     12  C   UNL     1      -1.019  11.033   0.961  0.00  0.00    +0.005 A 
ATOM     13  C   UNL     1      -1.640  11.046  -1.371  0.00  0.00    +0.005 A 
ATOM     14  C   UNL     1      -0.166   9.953   0.725  0.00  0.00    +0.000 A 
ATOM     15  C   UNL     1      -0.786   9.968  -1.604  0.00  0.00    +0.000 A 
ATOM     16  C   UNL     1      -0.051   9.421  -0.555  0.00  0.00    +0.000 A 
ENDBRANCH  10  11
ENDBRANCH   1  10
TORSDOF 2
ENDMDL
MODEL 2
REMARK VINA RESULT:    -5.842      0.882      1.935
REMARK INTER + INTRA:          -6.700
REMARK INTER:                  -6.526
REMARK INTRA:                  -0.174
REMARK UNBOUND:                -0.175
REMARK  Name = 1550473
REMARK  2 active torsions:
REMARK  status: ('A' for Active; 'I' for Inactive)
REMARK    1  A    between atoms: N_1  and  C_4
REMARK    2  A    between atoms: C_4  and  C_5
REMARK                            x       y       z     vdW  Elec       q    Type
REMARK                         _______ _______ _______ _____ _____    ______ ____
ROOT
ATOM      1  N   UNL     1      -1.250  14.385   0.936  0.00  0.00    -0.354 N 
ATOM      2  N   UNL     1       0.033  16.243   0.421  0.00  0.00    -0.372 N 
ATOM      3  N   UNL     1      -1.272  15.307  -1.218  0.00  0.00    -0.372 N 
ATOM      4  C   UNL     1      -0.839  15.299   0.047  0.00  0.00    +0.166 C 
ATOM      5  H   UNL     1      -0.861  14.415   1.871  0.00  0.00    +0.163 HD
ATOM      6  H   UNL     1       0.358  16.948  -0.227  0.00  0.00    +0.159 HD
ATOM      7  H   UNL     1       0.384  16.299   1.369  0.00  0.00    +0.159 HD
ATOM      8  H   UNL     1      -1.926  14.618  -1.565  0.00  0.00    +0.159 HD
ATOM      9  H   UNL     1      -0.949  15.998  -1.885  0.00  0.00    +0.159 HD
ENDROOT
BRANCH   1  10
ATOM     10  C   UNL     1      -2.238  13.347   0.645  0.00  0.00    +0.151 C 
BRANCH  10  11
ATOM     11  C   UNL     1      -1.522  12.078   0.273  0.00  0.00    -0.028 A 
ATOM     12  C   UNL     1      -1.706  11.501  -0.992  0.00  0.00    +0.005 A 
ATOM     13  C   UNL     1      -0.653  11.451   1.179  0.00  0.00    +0.005 A 
ATOM     14  C   UNL     1      -1.018  10.339  -1.349  0.00  0.00    +0.000 A 
ATOM     15  C   UNL     1       0.031  10.290   0.819  0.00  0.00    +0.000 A 
ATOM     16  C   UNL     1      -0.150   9.735  -0.445  0.00  0.00    +0.000 A 
ENDBRANCH  10  11
ENDBRANCH   1  10
TORSDOF 2
ENDMDL
MODEL 3
REMARK VINA RESULT:    -5.416      3.059      4.643
REMARK INTER + INTRA:          -6.224
REMARK INTER:                  -6.092
REMARK INTRA:                  -0.132
REMARK UNBOUND:                -0.175
REMARK  Name = 1550473
REMARK  2 active torsions:
REMARK  status: ('A' for Active; 'I' for Inactive)
REMARK    1  A    between atoms: N_1  and  C_4
REMARK    2  A    between atoms: C_4  and  C_5
REMARK                            x       y       z     vdW  Elec       q    Type
REMARK                         _______ _______ _______ _____ _____    ______ ____
ROOT
ATOM      1  N   UNL     1      -0.350  10.810  -0.121  0.00  0.00    -0.354 N 
ATOM      2  N   UNL     1       1.021   8.944  -0.150  0.00  0.00    -0.372 N 
ATOM      3  N   UNL     1       0.066   9.588   1.835  0.00  0.00    -0.372 N 
ATOM      4  C   UNL     1       0.236   9.793   0.524  0.00  0.00    +0.166 C 
ATOM      5  H   UNL     1      -0.157  10.929  -1.109  0.00  0.00    +0.163 HD
ATOM      6  H   UNL     1       1.474   8.165   0.309  0.00  0.00    +0.159 HD
ATOM      7  H   UNL     1       1.175   9.038  -1.146  0.00  0.00    +0.159 HD
ATOM      8  H   UNL     1      -0.509  10.197   2.402  0.00  0.00    +0.159 HD
ATOM      9  H   UNL     1       0.520   8.821   2.315  0.00  0.00    +0.159 HD
ENDROOT
BRANCH   1  10
ATOM     10  C   UNL     1      -1.266  11.759   0.510  0.00  0.00    +0.151 C 
BRANCH  10  11
ATOM     11  C   UNL     1      -2.309  12.174  -0.491  0.00  0.00    -0.028 A 
ATOM     12  C   UNL     1      -2.246  11.719  -1.816  0.00  0.00    +0.005 A 
ATOM     13  C   UNL     1      -3.368  13.017  -0.118  0.00  0.00    +0.005 A 
ATOM     14  C   UNL     1      -3.231  12.080  -2.738  0.00  0.00    +0.000 A 
ATOM     15  C   UNL     1      -4.349  13.375  -1.042  0.00  0.00    +0.000 A 
ATOM     16  C   UNL     1      -4.282  12.905  -2.351  0.00  0.00    +0.000 A 
ENDBRANCH  10  11
ENDBRANCH   1  10
TORSDOF 2
ENDMDL
MODEL 4
REMARK VINA RESULT:    -5.210      3.045      4.912
REMARK INTER + INTRA:          -5.994
REMARK INTER:                  -5.889
REMARK INTRA:                  -0.105
REMARK UNBOUND:                -0.175
REMARK  Name = 1550473
REMARK  2 active torsions:
REMARK  status: ('A' for Active; 'I' for Inactive)
REMARK    1  A    between atoms: N_1  and  C_4
REMARK    2  A    between atoms: C_4  and  C_5
REMARK                            x       y       z     vdW  Elec       q    Type
REMARK                         _______ _______ _______ _____ _____    ______ ____
ROOT
ATOM      1  N   UNL     1      -0.612  10.439  -0.015  0.00  0.00    -0.354 N 
ATOM      2  N   UNL     1       0.901   9.021  -1.045  0.00  0.00    -0.372 N 
ATOM      3  N   UNL     1       0.540   8.808   1.211  0.00  0.00    -0.372 N 
ATOM      4  C   UNL     1       0.267   9.431   0.060  0.00  0.00    +0.166 C 
ATOM      5  H   UNL     1      -0.753  10.890  -0.912  0.00  0.00    +0.163 HD
ATOM      6  H   UNL     1       1.567   8.260  -1.020  0.00  0.00    +0.159 HD
ATOM      7  H   UNL     1       0.725   9.443  -1.948  0.00  0.00    +0.159 HD
ATOM      8  H   UNL     1       0.099   9.074   2.082  0.00  0.00    +0.159 HD
ATOM      9  H   UNL     1       1.212   8.053   1.258  0.00  0.00    +0.159 HD
ENDROOT
BRANCH   1  10
ATOM     10  C   UNL     1      -1.396  10.926   1.119  0.00  0.00    +0.151 C 
BRANCH  10  11
ATOM     11  C   UNL     1      -2.108  12.189   0.718  0.00  0.00    -0.028 A 
ATOM     12  C   UNL     1      -2.830  12.248  -0.484  0.00  0.00    +0.005 A 
ATOM     13  C   UNL     1      -2.070  13.327   1.537  0.00  0.00    +0.005 A 
ATOM     14  C   UNL     1      -3.516  13.410  -0.843  0.00  0.00    +0.000 A 
ATOM     15  C   UNL     1      -2.757  14.486   1.175  0.00  0.00    +0.000 A 
ATOM     16  C   UNL     1      -3.481  14.527  -0.014  0.00  0.00    +0.000 A 
ENDBRANCH  10  11
ENDBRANCH   1  10
TORSDOF 2
ENDMDL
MODEL 5
REMARK VINA RESULT:    -5.165     18.358     19.397
REMARK INTER + INTRA:          -5.945
REMARK INTER:                  -5.833
REMARK INTRA:                  -0.112
REMARK UNBOUND:                -0.175
REMARK  Name = 1550473
REMARK  2 active torsions:
REMARK  status: ('A' for Active; 'I' for Inactive)
REMARK    1  A    between atoms: N_1  and  C_4
REMARK    2  A    between atoms: C_4  and  C_5
REMARK                            x       y       z     vdW  Elec       q    Type
REMARK                         _______ _______ _______ _____ _____    ______ ____
ROOT
ATOM      1  N   UNL     1     -10.927  -2.703  -3.500  0.00  0.00    -0.354 N 
ATOM      2  N   UNL     1     -10.185  -0.647  -4.267  0.00  0.00    -0.372 N 
ATOM      3  N   UNL     1     -11.098  -2.126  -5.765  0.00  0.00    -0.372 N 
ATOM      4  C   UNL     1     -10.742  -1.840  -4.508  0.00  0.00    +0.166 C 
ATOM      5  H   UNL     1     -10.608  -2.438  -2.575  0.00  0.00    +0.163 HD
ATOM      6  H   UNL     1     -10.036   0.026  -5.007  0.00  0.00    +0.159 HD
ATOM      7  H   UNL     1      -9.909  -0.367  -3.333  0.00  0.00    +0.159 HD
ATOM      8  H   UNL     1     -11.518  -3.011  -6.014  0.00  0.00    +0.159 HD
ATOM      9  H   UNL     1     -10.946  -1.470  -6.521  0.00  0.00    +0.159 HD
ENDROOT
BRANCH   1  10
ATOM     10  C   UNL     1     -11.574  -4.005  -3.647  0.00  0.00    +0.151 C 
BRANCH  10  11
ATOM     11  C   UNL     1     -12.056  -4.469  -2.300  0.00  0.00    -0.028 A 
ATOM     12  C   UNL     1     -11.283  -4.246  -1.152  0.00  0.00    +0.005 A 
ATOM     13  C   UNL     1     -13.288  -5.127  -2.166  0.00  0.00    +0.005 A 
ATOM     14  C   UNL     1     -11.745  -4.649   0.104  0.00  0.00    +0.000 A 
ATOM     15  C   UNL     1     -13.745  -5.530  -0.911  0.00  0.00    +0.000 A 
ATOM     16  C   UNL     1     -12.974  -5.288   0.224  0.00  0.00    +0.000 A 
ENDBRANCH  10  11
ENDBRANCH   1  10
TORSDOF 2
ENDMDL
MODEL 6
REMARK VINA RESULT:    -5.138     15.242     16.227
REMARK INTER + INTRA:          -5.914
REMARK INTER:                  -5.822
REMARK INTRA:                  -0.092
REMARK UNBOUND:                -0.175
REMARK  Name = 1550473
REMARK  2 active torsions:
REMARK  status: ('A' for Active; 'I' for Inactive)
REMARK    1  A    between atoms: N_1  and  C_4
REMARK    2  A    between atoms: C_4  and  C_5
REMARK                            x       y       z     vdW  Elec       q    Type
REMARK                         _______ _______ _______ _____ _____    ______ ____
ROOT
ATOM      1  N   UNL     1     -10.221  -1.688   2.522  0.00  0.00    -0.354 N 
ATOM      2  N   UNL     1      -9.632  -3.904   2.195  0.00  0.00    -0.372 N 
ATOM      3  N   UNL     1     -11.336  -3.413   3.651  0.00  0.00    -0.372 N 
ATOM      4  C   UNL     1     -10.402  -2.987   2.793  0.00  0.00    +0.166 C 
ATOM      5  H   UNL     1      -9.476  -1.428   1.886  0.00  0.00    +0.163 HD
ATOM      6  H   UNL     1      -9.747  -4.891   2.377  0.00  0.00    +0.159 HD
ATOM      7  H   UNL     1      -8.918  -3.644   1.525  0.00  0.00    +0.159 HD
ATOM      8  H   UNL     1     -11.946  -2.771   4.140  0.00  0.00    +0.159 HD
ATOM      9  H   UNL     1     -11.459  -4.396   3.855  0.00  0.00    +0.159 HD
ENDROOT
BRANCH   1  10
ATOM     10  C   UNL     1     -11.042  -0.614   3.079  0.00  0.00    +0.151 C 
BRANCH  10  11
ATOM     11  C   UNL     1     -10.438   0.711   2.705  0.00  0.00    -0.028 A 
ATOM     12  C   UNL     1     -10.934   1.437   1.612  0.00  0.00    +0.005 A 
ATOM     13  C   UNL     1      -9.372   1.249   3.442  0.00  0.00    +0.005 A 
ATOM     14  C   UNL     1     -10.392   2.682   1.282  0.00  0.00    +0.000 A 
ATOM     15  C   UNL     1      -8.833   2.492   3.109  0.00  0.00    +0.000 A 
ATOM     16  C   UNL     1      -9.346   3.209   2.031  0.00  0.00    +0.000 A 
ENDBRANCH  10  11
ENDBRANCH   1  10
TORSDOF 2
ENDMDL
MODEL 7
REMARK VINA RESULT:    -5.097      1.537      2.496
REMARK INTER + INTRA:          -5.868
REMARK INTER:                  -5.776
REMARK INTRA:                  -0.092
REMARK UNBOUND:                -0.175
REMARK  Name = 1550473
REMARK  2 active torsions:
REMARK  status: ('A' for Active; 'I' for Inactive)
REMARK    1  A    between atoms: N_1  and  C_4
REMARK    2  A    between atoms: C_4  and  C_5
REMARK                            x       y       z     vdW  Elec       q    Type
REMARK                         _______ _______ _______ _____ _____    ______ ____
ROOT
ATOM      1  N   UNL     1      -3.420  12.877  -0.606  0.00  0.00    -0.354 N 
ATOM      2  N   UNL     1      -5.637  13.545  -0.670  0.00  0.00    -0.372 N 
ATOM      3  N   UNL     1      -3.996  15.149  -0.623  0.00  0.00    -0.372 N 
ATOM      4  C   UNL     1      -4.335  13.855  -0.632  0.00  0.00    +0.166 C 
ATOM      5  H   UNL     1      -3.743  11.916  -0.584  0.00  0.00    +0.163 HD
ATOM      6  H   UNL     1      -6.350  14.261  -0.694  0.00  0.00    +0.159 HD
ATOM      7  H   UNL     1      -5.955  12.584  -0.695  0.00  0.00    +0.159 HD
ATOM      8  H   UNL     1      -3.031  15.449  -0.589  0.00  0.00    +0.159 HD
ATOM      9  H   UNL     1      -4.696  15.880  -0.635  0.00  0.00    +0.159 HD
ENDROOT
BRANCH   1  10
ATOM     10  C   UNL     1      -1.976  13.107  -0.618  0.00  0.00    +0.151 C 
BRANCH  10  11
ATOM     11  C   UNL     1      -1.269  11.805  -0.361  0.00  0.00    -0.028 A 
ATOM     12  C   UNL     1      -1.168  10.838  -1.372  0.00  0.00    +0.005 A 
ATOM     13  C   UNL     1      -0.692  11.535   0.889  0.00  0.00    +0.005 A 
ATOM     14  C   UNL     1      -0.485   9.641  -1.143  0.00  0.00    +0.000 A 
ATOM     15  C   UNL     1      -0.012  10.338   1.114  0.00  0.00    +0.000 A 
ATOM     16  C   UNL     1       0.093   9.393   0.097  0.00  0.00    +0.000 A 
ENDBRANCH  10  11
ENDBRANCH   1  10
TORSDOF 2
ENDMDL
MODEL 8
REMARK VINA RESULT:    -4.939     18.463     19.537
REMARK INTER + INTRA:          -5.692
REMARK INTER:                  -5.558
REMARK INTRA:                  -0.134
REMARK UNBOUND:                -0.175
REMARK  Name = 1550473
REMARK  2 active torsions:
REMARK  status: ('A' for Active; 'I' for Inactive)
REMARK    1  A    between atoms: N_1  and  C_4
REMARK    2  A    between atoms: C_4  and  C_5
REMARK                            x       y       z     vdW  Elec       q    Type
REMARK                         _______ _______ _______ _____ _____    ______ ____
ROOT
ATOM      1  N   UNL     1     -10.563  -3.189   0.595  0.00  0.00    -0.354 N 
ATOM      2  N   UNL     1     -10.658  -2.392   2.767  0.00  0.00    -0.372 N 
ATOM      3  N   UNL     1      -9.646  -4.413   2.371  0.00  0.00    -0.372 N 
ATOM      4  C   UNL     1     -10.287  -3.339   1.897  0.00  0.00    +0.166 C 
ATOM      5  H   UNL     1     -11.078  -2.366   0.304  0.00  0.00    +0.163 HD
ATOM      6  H   UNL     1     -10.460  -2.475   3.755  0.00  0.00    +0.159 HD
ATOM      7  H   UNL     1     -11.132  -1.549   2.467  0.00  0.00    +0.159 HD
ATOM      8  H   UNL     1      -9.345  -5.166   1.767  0.00  0.00    +0.159 HD
ATOM      9  H   UNL     1      -9.450  -4.520   3.358  0.00  0.00    +0.159 HD
ENDROOT
BRANCH   1  10
ATOM     10  C   UNL     1     -10.156  -4.137  -0.441  0.00  0.00    +0.151 C 
BRANCH  10  11
ATOM     11  C   UNL     1     -11.318  -4.386  -1.363  0.00  0.00    -0.028 A 
ATOM     12  C   UNL     1     -12.501  -4.962  -0.876  0.00  0.00    +0.005 A 
ATOM     13  C   UNL     1     -11.245  -4.044  -2.721  0.00  0.00    +0.005 A 
ATOM     14  C   UNL     1     -13.592  -5.167  -1.725  0.00  0.00    +0.000 A 
ATOM     15  C   UNL     1     -12.336  -4.250  -3.566  0.00  0.00    +0.000 A 
ATOM     16  C   UNL     1     -13.510  -4.809  -3.067  0.00  0.00    +0.000 A 
ENDBRANCH  10  11
ENDBRANCH   1  10
TORSDOF 2
ENDMDL
MODEL 9
REMARK VINA RESULT:    -4.914     17.974     19.078
REMARK INTER + INTRA:          -5.664
REMARK INTER:                  -5.504
REMARK INTRA:                  -0.161
REMARK UNBOUND:                -0.175
REMARK  Name = 1550473
REMARK  2 active torsions:
REMARK  status: ('A' for Active; 'I' for Inactive)
REMARK    1  A    between atoms: N_1  and  C_4
REMARK    2  A    between atoms: C_4  and  C_5
REMARK                            x       y       z     vdW  Elec       q    Type
REMARK                         _______ _______ _______ _____ _____    ______ ____
ROOT
ATOM      1  N   UNL     1     -11.428  -4.329   0.958  0.00  0.00    -0.354 N 
ATOM      2  N   UNL     1     -10.047  -5.393   2.483  0.00  0.00    -0.372 N 
ATOM      3  N   UNL     1      -9.662  -3.185   1.990  0.00  0.00    -0.372 N 
ATOM      4  C   UNL     1     -10.386  -4.293   1.800  0.00  0.00    +0.166 C 
ATOM      5  H   UNL     1     -11.918  -5.208   0.836  0.00  0.00    +0.163 HD
ATOM      6  H   UNL     1      -9.268  -5.395   3.128  0.00  0.00    +0.159 HD
ATOM      7  H   UNL     1     -10.566  -6.257   2.393  0.00  0.00    +0.159 HD
ATOM      8  H   UNL     1      -9.863  -2.323   1.501  0.00  0.00    +0.159 HD
ATOM      9  H   UNL     1      -8.872  -3.170   2.623  0.00  0.00    +0.159 HD
ENDROOT
BRANCH   1  10
ATOM     10  C   UNL     1     -11.913  -3.172   0.208  0.00  0.00    +0.151 C 
BRANCH  10  11
ATOM     11  C   UNL     1     -11.556  -3.342  -1.243  0.00  0.00    -0.028 A 
ATOM     12  C   UNL     1     -11.036  -2.268  -1.979  0.00  0.00    +0.005 A 
ATOM     13  C   UNL     1     -11.731  -4.577  -1.886  0.00  0.00    +0.005 A 
ATOM     14  C   UNL     1     -10.676  -2.434  -3.318  0.00  0.00    +0.000 A 
ATOM     15  C   UNL     1     -11.371  -4.739  -3.224  0.00  0.00    +0.000 A 
ATOM     16  C   UNL     1     -10.841  -3.667  -3.939  0.00  0.00    +0.000 A 
ENDBRANCH  10  11
ENDBRANCH   1  10
TORSDOF 2
ENDMDL
