MODEL 1
REMARK VINA RESULT:    -5.299      0.000      0.000
REMARK INTER + INTRA:          -6.048
REMARK INTER:                  -5.918
REMARK INTRA:                  -0.130
REMARK UNBOUND:                -0.130
REMARK  Name = 1550473
REMARK  2 active torsions:
REMARK  status: ('A' for Active; 'I' for Inactive)
REMARK    1  A    between atoms: N_1  and  C_4
REMARK    2  A    between atoms: C_4  and  C_5
REMARK                            x       y       z     vdW  Elec       q    Type
REMARK                         _______ _______ _______ _____ _____    ______ ____
ROOT
ATOM      1  N   UNL     1       7.924  11.923   7.613  0.00  0.00    -0.354 N 
ATOM      2  N   UNL     1       6.369  10.772   6.340  0.00  0.00    -0.372 N 
ATOM      3  N   UNL     1       5.858  12.887   7.069  0.00  0.00    -0.372 N 
ATOM      4  C   UNL     1       6.726  11.871   7.016  0.00  0.00    +0.166 C 
ATOM      5  H   UNL     1       8.523  11.107   7.562  0.00  0.00    +0.163 HD
ATOM      6  H   UNL     1       5.473  10.705   5.876  0.00  0.00    +0.159 HD
ATOM      7  H   UNL     1       6.989   9.976   6.252  0.00  0.00    +0.159 HD
ATOM      8  H   UNL     1       6.065  13.742   7.568  0.00  0.00    +0.159 HD
ATOM      9  H   UNL     1       4.952  12.834   6.621  0.00  0.00    +0.159 HD
ENDROOT
BRANCH   1  10
ATOM     10  C   UNL     1       8.430  13.093   8.329  0.00  0.00    +0.151 C 
BRANCH  10  11
ATOM     11  C   UNL     1       8.316  12.851   9.809  0.00  0.00    -0.028 A 
ATOM     12  C   UNL     1       7.072  12.938  10.451  0.00  0.00    +0.005 A 
ATOM     13  C   UNL     1       9.448  12.528  10.573  0.00  0.00    +0.005 A 
ATOM     14  C   UNL     1       6.961  12.683  11.820  0.00  0.00    +0.000 A 
ATOM     15  C   UNL     1       9.333  12.276  11.940  0.00  0.00    +0.000 A 
ATOM     16  C   UNL     1       8.089  12.351  12.563  0.00  0.00    +0.000 A 
ENDBRANCH  10  11
ENDBRANCH   1  10
TORSDOF 2
ENDMDL
MODEL 2
REMARK VINA RESULT:    -5.165      2.893      3.837
REMARK INTER + INTRA:          -5.899
REMARK INTER:                  -5.757
REMARK INTRA:                  -0.141
REMARK UNBOUND:                -0.130
REMARK  Name = 1550473
REMARK  2 active torsions:
REMARK  status: ('A' for Active; 'I' for Inactive)
REMARK    1  A    between atoms: N_1  and  C_4
REMARK    2  A    between atoms: C_4  and  C_5
REMARK                            x       y       z     vdW  Elec       q    Type
REMARK                         _______ _______ _______ _____ _____    ______ ____
ROOT
ATOM      1  N   UNL     1       7.255  12.908   7.829  0.00  0.00    -0.354 N 
ATOM      2  N   UNL     1       6.457  11.099   6.623  0.00  0.00    -0.372 N 
ATOM      3  N   UNL     1       6.911  10.830   8.857  0.00  0.00    -0.372 N 
ATOM      4  C   UNL     1       6.881  11.623   7.780  0.00  0.00    +0.166 C 
ATOM      5  H   UNL     1       7.237  13.448   6.971  0.00  0.00    +0.163 HD
ATOM      6  H   UNL     1       6.165  10.133   6.557  0.00  0.00    +0.159 HD
ATOM      7  H   UNL     1       6.397  11.652   5.778  0.00  0.00    +0.159 HD
ATOM      8  H   UNL     1       7.226  11.164   9.758  0.00  0.00    +0.159 HD
ATOM      9  H   UNL     1       6.634   9.858   8.807  0.00  0.00    +0.159 HD
ENDROOT
BRANCH   1  10
ATOM     10  C   UNL     1       7.681  13.590   9.050  0.00  0.00    +0.151 C 
BRANCH  10  11
ATOM     11  C   UNL     1       6.939  14.893   9.168  0.00  0.00    -0.028 A 
ATOM     12  C   UNL     1       7.280  15.818  10.166  0.00  0.00    +0.005 A 
ATOM     13  C   UNL     1       5.898  15.211   8.282  0.00  0.00    +0.005 A 
ATOM     14  C   UNL     1       6.612  17.041  10.257  0.00  0.00    +0.000 A 
ATOM     15  C   UNL     1       5.233  16.433   8.378  0.00  0.00    +0.000 A 
ATOM     16  C   UNL     1       5.592  17.349   9.364  0.00  0.00    +0.000 A 
ENDBRANCH  10  11
ENDBRANCH   1  10
TORSDOF 2
ENDMDL
MODEL 3
REMARK VINA RESULT:    -5.061     20.347     21.023
REMARK INTER + INTRA:          -5.782
REMARK INTER:                  -5.639
REMARK INTRA:                  -0.143
REMARK UNBOUND:                -0.130
REMARK  Name = 1550473
REMARK  2 active torsions:
REMARK  status: ('A' for Active; 'I' for Inactive)
REMARK    1  A    between atoms: N_1  and  C_4
REMARK    2  A    between atoms: C_4  and  C_5
REMARK                            x       y       z     vdW  Elec       q    Type
REMARK                         _______ _______ _______ _____ _____    ______ ____
ROOT
ATOM      1  N   UNL     1      16.334  -5.912   4.944  0.00  0.00    -0.354 N 
ATOM      2  N   UNL     1      16.033  -7.256   3.081  0.00  0.00    -0.372 N 
ATOM      3  N   UNL     1      17.520  -5.512   2.962  0.00  0.00    -0.372 N 
ATOM      4  C   UNL     1      16.633  -6.216   3.674  0.00  0.00    +0.166 C 
ATOM      5  H   UNL     1      15.631  -6.466   5.419  0.00  0.00    +0.163 HD
ATOM      6  H   UNL     1      16.240  -7.511   2.125  0.00  0.00    +0.159 HD
ATOM      7  H   UNL     1      15.364  -7.836   3.573  0.00  0.00    +0.159 HD
ATOM      8  H   UNL     1      18.003  -4.712   3.349  0.00  0.00    +0.159 HD
ATOM      9  H   UNL     1      17.732  -5.745   2.000  0.00  0.00    +0.159 HD
ENDROOT
BRANCH   1  10
ATOM     10  C   UNL     1      16.970  -4.833   5.698  0.00  0.00    +0.151 C 
BRANCH  10  11
ATOM     11  C   UNL     1      17.534  -5.393   6.975  0.00  0.00    -0.028 A 
ATOM     12  C   UNL     1      18.209  -4.560   7.879  0.00  0.00    +0.005 A 
ATOM     13  C   UNL     1      17.392  -6.753   7.288  0.00  0.00    +0.005 A 
ATOM     14  C   UNL     1      18.707  -5.073   9.080  0.00  0.00    +0.000 A 
ATOM     15  C   UNL     1      17.891  -7.262   8.487  0.00  0.00    +0.000 A 
ATOM     16  C   UNL     1      18.546  -6.421   9.384  0.00  0.00    +0.000 A 
ENDBRANCH  10  11
ENDBRANCH   1  10
TORSDOF 2
ENDMDL
MODEL 4
REMARK VINA RESULT:    -4.907      8.720     10.133
REMARK INTER + INTRA:          -5.611
REMARK INTER:                  -5.490
REMARK INTRA:                  -0.120
REMARK UNBOUND:                -0.130
REMARK  Name = 1550473
REMARK  2 active torsions:
REMARK  status: ('A' for Active; 'I' for Inactive)
REMARK    1  A    between atoms: N_1  and  C_4
REMARK    2  A    between atoms: C_4  and  C_5
REMARK                            x       y       z     vdW  Elec       q    Type
REMARK                         _______ _______ _______ _____ _____    ______ ____
ROOT
ATOM      1  N   UNL     1       2.060  15.556   1.416  0.00  0.00    -0.354 N 
ATOM      2  N   UNL     1       1.361  13.397   0.954  0.00  0.00    -0.372 N 
ATOM      3  N   UNL     1       0.455  15.136  -0.238  0.00  0.00    -0.372 N 
ATOM      4  C   UNL     1       1.295  14.712   0.712  0.00  0.00    +0.166 C 
ATOM      5  H   UNL     1       2.654  15.175   2.143  0.00  0.00    +0.163 HD
ATOM      6  H   UNL     1       0.798  12.736   0.437  0.00  0.00    +0.159 HD
ATOM      7  H   UNL     1       1.989  13.015   1.650  0.00  0.00    +0.159 HD
ATOM      8  H   UNL     1       0.354  16.116  -0.465  0.00  0.00    +0.159 HD
ATOM      9  H   UNL     1      -0.126  14.490  -0.759  0.00  0.00    +0.159 HD
ENDROOT
BRANCH   1  10
ATOM     10  C   UNL     1       2.103  17.000   1.193  0.00  0.00    +0.151 C 
BRANCH  10  11
ATOM     11  C   UNL     1       2.810  17.655   2.348  0.00  0.00    -0.028 A 
ATOM     12  C   UNL     1       3.670  16.911   3.170  0.00  0.00    +0.005 A 
ATOM     13  C   UNL     1       2.629  19.019   2.623  0.00  0.00    +0.005 A 
ATOM     14  C   UNL     1       4.350  17.525   4.225  0.00  0.00    +0.000 A 
ATOM     15  C   UNL     1       3.309  19.628   3.677  0.00  0.00    +0.000 A 
ATOM     16  C   UNL     1       4.171  18.882   4.476  0.00  0.00    +0.000 A 
ENDBRANCH  10  11
ENDBRANCH   1  10
TORSDOF 2
ENDMDL
MODEL 5
REMARK VINA RESULT:    -4.879     20.254     20.851
REMARK INTER + INTRA:          -5.579
REMARK INTER:                  -5.427
REMARK INTRA:                  -0.152
REMARK UNBOUND:                -0.130
REMARK  Name = 1550473
REMARK  2 active torsions:
REMARK  status: ('A' for Active; 'I' for Inactive)
REMARK    1  A    between atoms: N_1  and  C_4
REMARK    2  A    between atoms: C_4  and  C_5
REMARK                            x       y       z     vdW  Elec       q    Type
REMARK                         _______ _______ _______ _____ _____    ______ ____
ROOT
ATOM      1  N   UNL     1      16.671  -6.387   5.531  0.00  0.00    -0.354 N 
ATOM      2  N   UNL     1      16.816  -8.319   4.261  0.00  0.00    -0.372 N 
ATOM      3  N   UNL     1      17.022  -6.286   3.217  0.00  0.00    -0.372 N 
ATOM      4  C   UNL     1      16.835  -6.983   4.343  0.00  0.00    +0.166 C 
ATOM      5  H   UNL     1      16.503  -6.971   6.343  0.00  0.00    +0.163 HD
ATOM      6  H   UNL     1      16.940  -8.796   3.379  0.00  0.00    +0.159 HD
ATOM      7  H   UNL     1      16.694  -8.901   5.081  0.00  0.00    +0.159 HD
ATOM      8  H   UNL     1      17.041  -5.275   3.209  0.00  0.00    +0.159 HD
ATOM      9  H   UNL     1      17.137  -6.746   2.322  0.00  0.00    +0.159 HD
ENDROOT
BRANCH   1  10
ATOM     10  C   UNL     1      16.729  -4.941   5.736  0.00  0.00    +0.151 C 
BRANCH  10  11
ATOM     11  C   UNL     1      17.889  -4.619   6.637  0.00  0.00    -0.028 A 
ATOM     12  C   UNL     1      19.119  -4.213   6.097  0.00  0.00    +0.005 A 
ATOM     13  C   UNL     1      17.764  -4.712   8.032  0.00  0.00    +0.005 A 
ATOM     14  C   UNL     1      20.188  -3.885   6.934  0.00  0.00    +0.000 A 
ATOM     15  C   UNL     1      18.835  -4.384   8.864  0.00  0.00    +0.000 A 
ATOM     16  C   UNL     1      20.045  -3.968   8.315  0.00  0.00    +0.000 A 
ENDBRANCH  10  11
ENDBRANCH   1  10
TORSDOF 2
ENDMDL
MODEL 6
REMARK VINA RESULT:    -4.782     20.960     22.108
REMARK INTER + INTRA:          -5.472
REMARK INTER:                  -5.343
REMARK INTRA:                  -0.129
REMARK UNBOUND:                -0.130
REMARK  Name = 1550473
REMARK  2 active torsions:
REMARK  status: ('A' for Active; 'I' for Inactive)
REMARK    1  A    between atoms: N_1  and  C_4
REMARK    2  A    between atoms: C_4  and  C_5
REMARK                            x       y       z     vdW  Elec       q    Type
REMARK                         _______ _______ _______ _____ _____    ______ ____
ROOT
ATOM      1  N   UNL     1      -6.140  -2.007   2.867  0.00  0.00    -0.354 N 
ATOM      2  N   UNL     1      -7.804  -1.149   4.232  0.00  0.00    -0.372 N 
ATOM      3  N   UNL     1      -7.795  -3.397   3.773  0.00  0.00    -0.372 N 
ATOM      4  C   UNL     1      -7.236  -2.193   3.615  0.00  0.00    +0.166 C 
ATOM      5  H   UNL     1      -5.783  -1.064   2.763  0.00  0.00    +0.163 HD
ATOM      6  H   UNL     1      -8.629  -1.259   4.805  0.00  0.00    +0.159 HD
ATOM      7  H   UNL     1      -7.418  -0.215   4.163  0.00  0.00    +0.159 HD
ATOM      8  H   UNL     1      -7.419  -4.224   3.329  0.00  0.00    +0.159 HD
ATOM      9  H   UNL     1      -8.628  -3.526   4.334  0.00  0.00    +0.159 HD
ENDROOT
BRANCH   1  10
ATOM     10  C   UNL     1      -5.415  -3.085   2.198  0.00  0.00    +0.151 C 
BRANCH  10  11
ATOM     11  C   UNL     1      -5.194  -2.708   0.759  0.00  0.00    -0.028 A 
ATOM     12  C   UNL     1      -5.384  -3.651  -0.262  0.00  0.00    +0.005 A 
ATOM     13  C   UNL     1      -4.800  -1.407   0.408  0.00  0.00    +0.005 A 
ATOM     14  C   UNL     1      -5.208  -3.294  -1.601  0.00  0.00    +0.000 A 
ATOM     15  C   UNL     1      -4.624  -1.055  -0.930  0.00  0.00    +0.000 A 
ATOM     16  C   UNL     1      -4.831  -1.997  -1.934  0.00  0.00    +0.000 A 
ENDBRANCH  10  11
ENDBRANCH   1  10
TORSDOF 2
ENDMDL
MODEL 7
REMARK VINA RESULT:    -4.626     14.477     15.686
REMARK INTER + INTRA:          -5.298
REMARK INTER:                  -5.161
REMARK INTRA:                  -0.137
REMARK UNBOUND:                -0.130
REMARK  Name = 1550473
REMARK  2 active torsions:
REMARK  status: ('A' for Active; 'I' for Inactive)
REMARK    1  A    between atoms: N_1  and  C_4
REMARK    2  A    between atoms: C_4  and  C_5
REMARK                            x       y       z     vdW  Elec       q    Type
REMARK                         _______ _______ _______ _____ _____    ______ ____
ROOT
ATOM      1  N   UNL     1      22.703   8.530   4.348  0.00  0.00    -0.354 N 
ATOM      2  N   UNL     1      23.730   7.049   2.894  0.00  0.00    -0.372 N 
ATOM      3  N   UNL     1      24.931   8.834   3.691  0.00  0.00    -0.372 N 
ATOM      4  C   UNL     1      23.783   8.149   3.654  0.00  0.00    +0.166 C 
ATOM      5  H   UNL     1      21.853   7.985   4.254  0.00  0.00    +0.163 HD
ATOM      6  H   UNL     1      24.530   6.735   2.362  0.00  0.00    +0.159 HD
ATOM      7  H   UNL     1      22.893   6.480   2.838  0.00  0.00    +0.159 HD
ATOM      8  H   UNL     1      25.035   9.676   4.240  0.00  0.00    +0.159 HD
ATOM      9  H   UNL     1      25.740   8.542   3.156  0.00  0.00    +0.159 HD
ENDROOT
BRANCH   1  10
ATOM     10  C   UNL     1      22.673   9.682   5.248  0.00  0.00    +0.151 C 
BRANCH  10  11
ATOM     11  C   UNL     1      21.550  10.596   4.839  0.00  0.00    -0.028 A 
ATOM     12  C   UNL     1      20.256  10.404   5.345  0.00  0.00    +0.005 A 
ATOM     13  C   UNL     1      21.776  11.658   3.950  0.00  0.00    +0.005 A 
ATOM     14  C   UNL     1      19.220  11.271   4.989  0.00  0.00    +0.000 A 
ATOM     15  C   UNL     1      20.738  12.520   3.596  0.00  0.00    +0.000 A 
ATOM     16  C   UNL     1      19.461  12.328   4.118  0.00  0.00    +0.000 A 
ENDBRANCH  10  11
ENDBRANCH   1  10
TORSDOF 2
ENDMDL
MODEL 8
REMARK VINA RESULT:    -4.596     20.471     20.864
REMARK INTER + INTRA:          -5.263
REMARK INTER:                  -5.135
REMARK INTRA:                  -0.128
REMARK UNBOUND:                -0.130
REMARK  Name = 1550473
REMARK  2 active torsions:
REMARK  status: ('A' for Active; 'I' for Inactive)
REMARK    1  A    between atoms: N_1  and  C_4
REMARK    2  A    between atoms: C_4  and  C_5
REMARK                            x       y       z     vdW  Elec       q    Type
REMARK                         _______ _______ _______ _____ _____    ______ ____
ROOT
ATOM      1  N   UNL     1      20.480  -3.767   7.022  0.00  0.00    -0.354 N 
ATOM      2  N   UNL     1      22.420  -2.578   7.450  0.00  0.00    -0.372 N 
ATOM      3  N   UNL     1      20.896  -2.859   9.142  0.00  0.00    -0.372 N 
ATOM      4  C   UNL     1      21.251  -3.075   7.871  0.00  0.00    +0.166 C 
ATOM      5  H   UNL     1      20.791  -3.871   6.063  0.00  0.00    +0.163 HD
ATOM      6  H   UNL     1      23.025  -2.054   8.068  0.00  0.00    +0.159 HD
ATOM      7  H   UNL     1      22.751  -2.722   6.503  0.00  0.00    +0.159 HD
ATOM      8  H   UNL     1      20.024  -3.203   9.520  0.00  0.00    +0.159 HD
ATOM      9  H   UNL     1      21.483  -2.328   9.773  0.00  0.00    +0.159 HD
ENDROOT
BRANCH   1  10
ATOM     10  C   UNL     1      19.214  -4.397   7.395  0.00  0.00    +0.151 C 
BRANCH  10  11
ATOM     11  C   UNL     1      18.375  -4.582   6.161  0.00  0.00    -0.028 A 
ATOM     12  C   UNL     1      18.845  -4.156   4.910  0.00  0.00    +0.005 A 
ATOM     13  C   UNL     1      17.111  -5.188   6.235  0.00  0.00    +0.005 A 
ATOM     14  C   UNL     1      18.078  -4.355   3.759  0.00  0.00    +0.000 A 
ATOM     15  C   UNL     1      16.349  -5.384   5.084  0.00  0.00    +0.000 A 
ATOM     16  C   UNL     1      16.834  -4.970   3.846  0.00  0.00    +0.000 A 
ENDBRANCH  10  11
ENDBRANCH   1  10
TORSDOF 2
ENDMDL
MODEL 9
REMARK VINA RESULT:    -4.546     11.726     12.440
REMARK INTER + INTRA:          -5.208
REMARK INTER:                  -5.057
REMARK INTRA:                  -0.151
REMARK UNBOUND:                -0.130
REMARK  Name = 1550473
REMARK  2 active torsions:
REMARK  status: ('A' for Active; 'I' for Inactive)
REMARK    1  A    between atoms: N_1  and  C_4
REMARK    2  A    between atoms: C_4  and  C_5
REMARK                            x       y       z     vdW  Elec       q    Type
REMARK                         _______ _______ _______ _____ _____    ______ ____
ROOT
ATOM      1  N   UNL     1       1.118  16.011   1.032  0.00  0.00    -0.354 N 
ATOM      2  N   UNL     1       1.386  13.738   0.680  0.00  0.00    -0.372 N 
ATOM      3  N   UNL     1       0.154  14.955  -0.825  0.00  0.00    -0.372 N 
ATOM      4  C   UNL     1       0.882  14.917   0.296  0.00  0.00    +0.166 C 
ATOM      5  H   UNL     1       1.652  15.910   1.887  0.00  0.00    +0.163 HD
ATOM      6  H   UNL     1       1.228  12.895   0.143  0.00  0.00    +0.159 HD
ATOM      7  H   UNL     1       1.958  13.648   1.510  0.00  0.00    +0.159 HD
ATOM      8  H   UNL     1      -0.260  15.813  -1.166  0.00  0.00    +0.159 HD
ATOM      9  H   UNL     1      -0.026  14.121  -1.370  0.00  0.00    +0.159 HD
ENDROOT
BRANCH   1  10
ATOM     10  C   UNL     1       0.660  17.352   0.673  0.00  0.00    +0.151 C 
BRANCH  10  11
ATOM     11  C   UNL     1       1.842  18.174   0.238  0.00  0.00    -0.028 A 
ATOM     12  C   UNL     1       2.333  19.203   1.055  0.00  0.00    +0.005 A 
ATOM     13  C   UNL     1       2.479  17.926  -0.988  0.00  0.00    +0.005 A 
ATOM     14  C   UNL     1       3.450  19.947   0.665  0.00  0.00    +0.000 A 
ATOM     15  C   UNL     1       3.593  18.672  -1.374  0.00  0.00    +0.000 A 
ATOM     16  C   UNL     1       4.079  19.680  -0.546  0.00  0.00    +0.000 A 
ENDBRANCH  10  11
ENDBRANCH   1  10
TORSDOF 2
ENDMDL
