MODEL 1
REMARK VINA RESULT:    -4.920      0.000      0.000
REMARK INTER + INTRA:          -5.649
REMARK INTER:                  -5.495
REMARK INTRA:                  -0.154
REMARK UNBOUND:                -0.154
REMARK  Name = 1550473
REMARK  2 active torsions:
REMARK  status: ('A' for Active; 'I' for Inactive)
REMARK    1  A    between atoms: N_1  and  C_4
REMARK    2  A    between atoms: C_4  and  C_5
REMARK                            x       y       z     vdW  Elec       q    Type
REMARK                         _______ _______ _______ _____ _____    ______ ____
ROOT
ATOM      1  N   UNL     1     -26.351   9.131 -12.645  0.00  0.00    -0.354 N 
ATOM      2  N   UNL     1     -27.332   8.559 -10.626  0.00  0.00    -0.372 N 
ATOM      3  N   UNL     1     -25.217   9.450 -10.619  0.00  0.00    -0.372 N 
ATOM      4  C   UNL     1     -26.291   9.051 -11.309  0.00  0.00    +0.166 C 
ATOM      5  H   UNL     1     -27.182   8.784 -13.111  0.00  0.00    +0.163 HD
ATOM      6  H   UNL     1     -27.317   8.490  -9.617  0.00  0.00    +0.159 HD
ATOM      7  H   UNL     1     -28.179   8.256 -11.091  0.00  0.00    +0.159 HD
ATOM      8  H   UNL     1     -24.396   9.825 -11.076  0.00  0.00    +0.159 HD
ATOM      9  H   UNL     1     -25.178   9.377  -9.610  0.00  0.00    +0.159 HD
ENDROOT
BRANCH   1  10
ATOM     10  C   UNL     1     -25.294   9.700 -13.478  0.00  0.00    +0.151 C 
BRANCH  10  11
ATOM     11  C   UNL     1     -24.635   8.596 -14.258  0.00  0.00    -0.028 A 
ATOM     12  C   UNL     1     -24.812   8.502 -15.647  0.00  0.00    +0.005 A 
ATOM     13  C   UNL     1     -23.829   7.645 -13.616  0.00  0.00    +0.005 A 
ATOM     14  C   UNL     1     -24.176   7.494 -16.376  0.00  0.00    +0.000 A 
ATOM     15  C   UNL     1     -23.196   6.640 -14.347  0.00  0.00    +0.000 A 
ATOM     16  C   UNL     1     -23.368   6.566 -15.727  0.00  0.00    +0.000 A 
ENDBRANCH  10  11
ENDBRANCH   1  10
TORSDOF 2
ENDMDL
MODEL 2
REMARK VINA RESULT:    -4.761     23.639     24.422
REMARK INTER + INTRA:          -5.472
REMARK INTER:                  -5.370
REMARK INTRA:                  -0.102
REMARK UNBOUND:                -0.154
REMARK  Name = 1550473
REMARK  2 active torsions:
REMARK  status: ('A' for Active; 'I' for Inactive)
REMARK    1  A    between atoms: N_1  and  C_4
REMARK    2  A    between atoms: C_4  and  C_5
REMARK                            x       y       z     vdW  Elec       q    Type
REMARK                         _______ _______ _______ _____ _____    ______ ____
ROOT
ATOM      1  N   UNL     1      -8.340  -2.964  -0.049  0.00  0.00    -0.354 N 
ATOM      2  N   UNL     1      -7.228  -1.552   1.412  0.00  0.00    -0.372 N 
ATOM      3  N   UNL     1      -9.495  -1.822   1.640  0.00  0.00    -0.372 N 
ATOM      4  C   UNL     1      -8.365  -2.121   0.992  0.00  0.00    +0.166 C 
ATOM      5  H   UNL     1      -7.455  -3.126  -0.516  0.00  0.00    +0.163 HD
ATOM      6  H   UNL     1      -7.215  -0.915   2.197  0.00  0.00    +0.159 HD
ATOM      7  H   UNL     1      -6.338  -1.751   0.972  0.00  0.00    +0.159 HD
ATOM      8  H   UNL     1     -10.387  -2.214   1.370  0.00  0.00    +0.159 HD
ATOM      9  H   UNL     1      -9.505  -1.178   2.421  0.00  0.00    +0.159 HD
ENDROOT
BRANCH   1  10
ATOM     10  C   UNL     1      -9.512  -3.678  -0.551  0.00  0.00    +0.151 C 
BRANCH  10  11
ATOM     11  C   UNL     1      -9.060  -4.910  -1.285  0.00  0.00    -0.028 A 
ATOM     12  C   UNL     1      -9.548  -6.174  -0.922  0.00  0.00    +0.005 A 
ATOM     13  C   UNL     1      -8.148  -4.820  -2.348  0.00  0.00    +0.005 A 
ATOM     14  C   UNL     1      -9.151  -7.316  -1.623  0.00  0.00    +0.000 A 
ATOM     15  C   UNL     1      -7.754  -5.962  -3.045  0.00  0.00    +0.000 A 
ATOM     16  C   UNL     1      -8.257  -7.209  -2.684  0.00  0.00    +0.000 A 
ENDBRANCH  10  11
ENDBRANCH   1  10
TORSDOF 2
ENDMDL
MODEL 3
REMARK VINA RESULT:    -4.733     28.050     28.938
REMARK INTER + INTRA:          -5.440
REMARK INTER:                  -5.287
REMARK INTRA:                  -0.153
REMARK UNBOUND:                -0.154
REMARK  Name = 1550473
REMARK  2 active torsions:
REMARK  status: ('A' for Active; 'I' for Inactive)
REMARK    1  A    between atoms: N_1  and  C_4
REMARK    2  A    between atoms: C_4  and  C_5
REMARK                            x       y       z     vdW  Elec       q    Type
REMARK                         _______ _______ _______ _____ _____    ______ ____
ROOT
ATOM      1  N   UNL     1      -0.049   8.449   1.155  0.00  0.00    -0.354 N 
ATOM      2  N   UNL     1       1.768   9.751   0.545  0.00  0.00    -0.372 N 
ATOM      3  N   UNL     1       0.427   8.878  -1.100  0.00  0.00    -0.372 N 
ATOM      4  C   UNL     1       0.703   9.016   0.202  0.00  0.00    +0.166 C 
ATOM      5  H   UNL     1       0.231   8.567   2.122  0.00  0.00    +0.163 HD
ATOM      6  H   UNL     1       2.351  10.194  -0.151  0.00  0.00    +0.159 HD
ATOM      7  H   UNL     1       2.018   9.905   1.515  0.00  0.00    +0.159 HD
ATOM      8  H   UNL     1      -0.359   8.332  -1.425  0.00  0.00    +0.159 HD
ATOM      9  H   UNL     1       1.006   9.304  -1.812  0.00  0.00    +0.159 HD
ENDROOT
BRANCH   1  10
ATOM     10  C   UNL     1      -1.260   7.675   0.889  0.00  0.00    +0.151 C 
BRANCH  10  11
ATOM     11  C   UNL     1      -1.046   6.257   1.343  0.00  0.00    -0.028 A 
ATOM     12  C   UNL     1      -1.844   5.707   2.357  0.00  0.00    +0.005 A 
ATOM     13  C   UNL     1      -0.052   5.457   0.759  0.00  0.00    +0.005 A 
ATOM     14  C   UNL     1      -1.666   4.381   2.758  0.00  0.00    +0.000 A 
ATOM     15  C   UNL     1       0.123   4.134   1.163  0.00  0.00    +0.000 A 
ATOM     16  C   UNL     1      -0.686   3.595   2.161  0.00  0.00    +0.000 A 
ENDBRANCH  10  11
ENDBRANCH   1  10
TORSDOF 2
ENDMDL
MODEL 4
REMARK VINA RESULT:    -4.674     23.585     24.469
REMARK INTER + INTRA:          -5.374
REMARK INTER:                  -5.234
REMARK INTRA:                  -0.140
REMARK UNBOUND:                -0.154
REMARK  Name = 1550473
REMARK  2 active torsions:
REMARK  status: ('A' for Active; 'I' for Inactive)
REMARK    1  A    between atoms: N_1  and  C_4
REMARK    2  A    between atoms: C_4  and  C_5
REMARK                            x       y       z     vdW  Elec       q    Type
REMARK                         _______ _______ _______ _____ _____    ______ ____
ROOT
ATOM      1  N   UNL     1      -7.509  -2.137   0.395  0.00  0.00    -0.354 N 
ATOM      2  N   UNL     1      -6.525  -0.628   1.850  0.00  0.00    -0.372 N 
ATOM      3  N   UNL     1      -8.177   0.109   0.439  0.00  0.00    -0.372 N 
ATOM      4  C   UNL     1      -7.412  -0.894   0.883  0.00  0.00    +0.166 C 
ATOM      5  H   UNL     1      -6.879  -2.846   0.753  0.00  0.00    +0.163 HD
ATOM      6  H   UNL     1      -6.431   0.300   2.241  0.00  0.00    +0.159 HD
ATOM      7  H   UNL     1      -5.928  -1.348   2.238  0.00  0.00    +0.159 HD
ATOM      8  H   UNL     1      -8.862  -0.025  -0.293  0.00  0.00    +0.159 HD
ATOM      9  H   UNL     1      -8.090   1.047   0.809  0.00  0.00    +0.159 HD
ENDROOT
BRANCH   1  10
ATOM     10  C   UNL     1      -8.479  -2.543  -0.621  0.00  0.00    +0.151 C 
BRANCH  10  11
ATOM     11  C   UNL     1      -9.204  -3.772  -0.144  0.00  0.00    -0.028 A 
ATOM     12  C   UNL     1      -9.192  -4.947  -0.910  0.00  0.00    +0.005 A 
ATOM     13  C   UNL     1      -9.899  -3.770   1.075  0.00  0.00    +0.005 A 
ATOM     14  C   UNL     1      -9.839  -6.098  -0.454  0.00  0.00    +0.000 A 
ATOM     15  C   UNL     1     -10.544  -4.920   1.526  0.00  0.00    +0.000 A 
ATOM     16  C   UNL     1     -10.512  -6.085   0.763  0.00  0.00    +0.000 A 
ENDBRANCH  10  11
ENDBRANCH   1  10
TORSDOF 2
ENDMDL
MODEL 5
REMARK VINA RESULT:    -4.620     21.840     22.916
REMARK INTER + INTRA:          -5.314
REMARK INTER:                  -5.175
REMARK INTRA:                  -0.139
REMARK UNBOUND:                -0.154
REMARK  Name = 1550473
REMARK  2 active torsions:
REMARK  status: ('A' for Active; 'I' for Inactive)
REMARK    1  A    between atoms: N_1  and  C_4
REMARK    2  A    between atoms: C_4  and  C_5
REMARK                            x       y       z     vdW  Elec       q    Type
REMARK                         _______ _______ _______ _____ _____    ______ ____
ROOT
ATOM      1  N   UNL     1     -10.310  -1.989   0.159  0.00  0.00    -0.354 N 
ATOM      2  N   UNL     1     -10.500  -3.989   1.310  0.00  0.00    -0.372 N 
ATOM      3  N   UNL     1      -8.814  -3.751  -0.227  0.00  0.00    -0.372 N 
ATOM      4  C   UNL     1      -9.871  -3.230   0.404  0.00  0.00    +0.166 C 
ATOM      5  H   UNL     1     -11.135  -1.664   0.649  0.00  0.00    +0.163 HD
ATOM      6  H   UNL     1     -10.190  -4.929   1.519  0.00  0.00    +0.159 HD
ATOM      7  H   UNL     1     -11.297  -3.646   1.832  0.00  0.00    +0.159 HD
ATOM      8  H   UNL     1      -8.299  -3.232  -0.926  0.00  0.00    +0.159 HD
ATOM      9  H   UNL     1      -8.495  -4.693  -0.040  0.00  0.00    +0.159 HD
ENDROOT
BRANCH   1  10
ATOM     10  C   UNL     1      -9.664  -1.062  -0.769  0.00  0.00    +0.151 C 
BRANCH  10  11
ATOM     11  C   UNL     1      -9.471   0.263  -0.085  0.00  0.00    -0.028 A 
ATOM     12  C   UNL     1      -9.589   0.369   1.309  0.00  0.00    +0.005 A 
ATOM     13  C   UNL     1      -9.165   1.416  -0.824  0.00  0.00    +0.005 A 
ATOM     14  C   UNL     1      -9.381   1.594   1.948  0.00  0.00    +0.000 A 
ATOM     15  C   UNL     1      -8.959   2.637  -0.183  0.00  0.00    +0.000 A 
ATOM     16  C   UNL     1      -9.064   2.725   1.203  0.00  0.00    +0.000 A 
ENDBRANCH  10  11
ENDBRANCH   1  10
TORSDOF 2
ENDMDL
MODEL 6
REMARK VINA RESULT:    -4.614     34.197     35.577
REMARK INTER + INTRA:          -5.308
REMARK INTER:                  -5.179
REMARK INTRA:                  -0.128
REMARK UNBOUND:                -0.154
REMARK  Name = 1550473
REMARK  2 active torsions:
REMARK  status: ('A' for Active; 'I' for Inactive)
REMARK    1  A    between atoms: N_1  and  C_4
REMARK    2  A    between atoms: C_4  and  C_5
REMARK                            x       y       z     vdW  Elec       q    Type
REMARK                         _______ _______ _______ _____ _____    ______ ____
ROOT
ATOM      1  N   UNL     1      -4.575   6.918  16.507  0.00  0.00    -0.354 N 
ATOM      2  N   UNL     1      -4.002   4.742  15.960  0.00  0.00    -0.372 N 
ATOM      3  N   UNL     1      -6.169   5.201  16.559  0.00  0.00    -0.372 N 
ATOM      4  C   UNL     1      -4.922   5.634  16.347  0.00  0.00    +0.166 C 
ATOM      5  H   UNL     1      -3.606   7.177  16.360  0.00  0.00    +0.163 HD
ATOM      6  H   UNL     1      -4.234   3.767  15.827  0.00  0.00    +0.159 HD
ATOM      7  H   UNL     1      -3.045   5.012  15.769  0.00  0.00    +0.159 HD
ATOM      8  H   UNL     1      -6.908   5.822  16.858  0.00  0.00    +0.159 HD
ATOM      9  H   UNL     1      -6.418   4.226  16.443  0.00  0.00    +0.159 HD
ENDROOT
BRANCH   1  10
ATOM     10  C   UNL     1      -5.512   7.978  16.873  0.00  0.00    +0.151 C 
BRANCH  10  11
ATOM     11  C   UNL     1      -5.301   9.157  15.963  0.00  0.00    -0.028 A 
ATOM     12  C   UNL     1      -4.656  10.311  16.431  0.00  0.00    +0.005 A 
ATOM     13  C   UNL     1      -5.738   9.123  14.630  0.00  0.00    +0.005 A 
ATOM     14  C   UNL     1      -4.433  11.394  15.578  0.00  0.00    +0.000 A 
ATOM     15  C   UNL     1      -5.514  10.207  13.781  0.00  0.00    +0.000 A 
ATOM     16  C   UNL     1      -4.859  11.341  14.255  0.00  0.00    +0.000 A 
ENDBRANCH  10  11
ENDBRANCH   1  10
TORSDOF 2
ENDMDL
MODEL 7
REMARK VINA RESULT:    -4.612     16.858     17.459
REMARK INTER + INTRA:          -5.305
REMARK INTER:                  -5.123
REMARK INTRA:                  -0.181
REMARK UNBOUND:                -0.154
REMARK  Name = 1550473
REMARK  2 active torsions:
REMARK  status: ('A' for Active; 'I' for Inactive)
REMARK    1  A    between atoms: N_1  and  C_4
REMARK    2  A    between atoms: C_4  and  C_5
REMARK                            x       y       z     vdW  Elec       q    Type
REMARK                         _______ _______ _______ _____ _____    ______ ____
ROOT
ATOM      1  N   UNL     1     -31.820  -6.437  -9.804  0.00  0.00    -0.354 N 
ATOM      2  N   UNL     1     -29.999  -7.576  -8.937  0.00  0.00    -0.372 N 
ATOM      3  N   UNL     1     -29.749  -6.415 -10.901  0.00  0.00    -0.372 N 
ATOM      4  C   UNL     1     -30.534  -6.801  -9.889  0.00  0.00    +0.166 C 
ATOM      5  H   UNL     1     -32.369  -6.788  -9.028  0.00  0.00    +0.163 HD
ATOM      6  H   UNL     1     -29.030  -7.864  -8.973  0.00  0.00    +0.159 HD
ATOM      7  H   UNL     1     -30.538  -7.887  -8.139  0.00  0.00    +0.159 HD
ATOM      8  H   UNL     1     -30.094  -5.834 -11.654  0.00  0.00    +0.159 HD
ATOM      9  H   UNL     1     -28.780  -6.702 -10.960  0.00  0.00    +0.159 HD
ENDROOT
BRANCH   1  10
ATOM     10  C   UNL     1     -32.484  -5.552 -10.759  0.00  0.00    +0.151 C 
BRANCH  10  11
ATOM     11  C   UNL     1     -33.310  -6.380 -11.704  0.00  0.00    -0.028 A 
ATOM     12  C   UNL     1     -34.532  -6.929 -11.288  0.00  0.00    +0.005 A 
ATOM     13  C   UNL     1     -32.880  -6.613 -13.019  0.00  0.00    +0.005 A 
ATOM     14  C   UNL     1     -35.313  -7.673 -12.175  0.00  0.00    +0.000 A 
ATOM     15  C   UNL     1     -33.663  -7.357 -13.902  0.00  0.00    +0.000 A 
ATOM     16  C   UNL     1     -34.881  -7.885 -13.480  0.00  0.00    +0.000 A 
ENDBRANCH  10  11
ENDBRANCH   1  10
TORSDOF 2
ENDMDL
MODEL 8
REMARK VINA RESULT:    -4.451     22.387     23.600
REMARK INTER + INTRA:          -5.125
REMARK INTER:                  -4.976
REMARK INTRA:                  -0.149
REMARK UNBOUND:                -0.154
REMARK  Name = 1550473
REMARK  2 active torsions:
REMARK  status: ('A' for Active; 'I' for Inactive)
REMARK    1  A    between atoms: N_1  and  C_4
REMARK    2  A    between atoms: C_4  and  C_5
REMARK                            x       y       z     vdW  Elec       q    Type
REMARK                         _______ _______ _______ _____ _____    ______ ____
ROOT
ATOM      1  N   UNL     1      -7.593  -1.669   0.541  0.00  0.00    -0.354 N 
ATOM      2  N   UNL     1      -8.891  -3.422  -0.237  0.00  0.00    -0.372 N 
ATOM      3  N   UNL     1      -9.437  -2.441   1.764  0.00  0.00    -0.372 N 
ATOM      4  C   UNL     1      -8.633  -2.498   0.697  0.00  0.00    +0.166 C 
ATOM      5  H   UNL     1      -7.004  -1.783  -0.276  0.00  0.00    +0.163 HD
ATOM      6  H   UNL     1      -9.671  -4.059  -0.149  0.00  0.00    +0.159 HD
ATOM      7  H   UNL     1      -8.328  -3.504  -1.075  0.00  0.00    +0.159 HD
ATOM      8  H   UNL     1      -9.292  -1.771   2.508  0.00  0.00    +0.159 HD
ATOM      9  H   UNL     1     -10.215  -3.078   1.877  0.00  0.00    +0.159 HD
ENDROOT
BRANCH   1  10
ATOM     10  C   UNL     1      -7.258  -0.594   1.473  0.00  0.00    +0.151 C 
BRANCH  10  11
ATOM     11  C   UNL     1      -7.993   0.655   1.068  0.00  0.00    -0.028 A 
ATOM     12  C   UNL     1      -7.655   1.328  -0.115  0.00  0.00    +0.005 A 
ATOM     13  C   UNL     1      -9.031   1.166   1.861  0.00  0.00    +0.005 A 
ATOM     14  C   UNL     1      -8.357   2.470  -0.507  0.00  0.00    +0.000 A 
ATOM     15  C   UNL     1      -9.729   2.308   1.467  0.00  0.00    +0.000 A 
ATOM     16  C   UNL     1      -9.393   2.958   0.282  0.00  0.00    +0.000 A 
ENDBRANCH  10  11
ENDBRANCH   1  10
TORSDOF 2
ENDMDL
MODEL 9
REMARK VINA RESULT:    -4.450     23.559     24.268
REMARK INTER + INTRA:          -5.124
REMARK INTER:                  -5.010
REMARK INTRA:                  -0.114
REMARK UNBOUND:                -0.154
REMARK  Name = 1550473
REMARK  2 active torsions:
REMARK  status: ('A' for Active; 'I' for Inactive)
REMARK    1  A    between atoms: N_1  and  C_4
REMARK    2  A    between atoms: C_4  and  C_5
REMARK                            x       y       z     vdW  Elec       q    Type
REMARK                         _______ _______ _______ _____ _____    ______ ____
ROOT
ATOM      1  N   UNL     1      -7.820  -0.989  -0.303  0.00  0.00    -0.354 N 
ATOM      2  N   UNL     1      -5.845   0.117   0.186  0.00  0.00    -0.372 N 
ATOM      3  N   UNL     1      -6.639  -1.442   1.670  0.00  0.00    -0.372 N 
ATOM      4  C   UNL     1      -6.781  -0.780   0.517  0.00  0.00    +0.166 C 
ATOM      5  H   UNL     1      -7.886  -0.434  -1.148  0.00  0.00    +0.163 HD
ATOM      6  H   UNL     1      -5.048   0.294   0.783  0.00  0.00    +0.159 HD
ATOM      7  H   UNL     1      -5.889   0.638  -0.681  0.00  0.00    +0.159 HD
ATOM      8  H   UNL     1      -7.315  -2.128   1.981  0.00  0.00    +0.159 HD
ATOM      9  H   UNL     1      -5.855  -1.271   2.287  0.00  0.00    +0.159 HD
ENDROOT
BRANCH   1  10
ATOM     10  C   UNL     1      -8.865  -1.982  -0.061  0.00  0.00    +0.151 C 
BRANCH  10  11
ATOM     11  C   UNL     1      -8.578  -3.208  -0.883  0.00  0.00    -0.028 A 
ATOM     12  C   UNL     1      -9.205  -4.427  -0.587  0.00  0.00    +0.005 A 
ATOM     13  C   UNL     1      -7.683  -3.157  -1.962  0.00  0.00    +0.005 A 
ATOM     14  C   UNL     1      -8.961  -5.559  -1.368  0.00  0.00    +0.000 A 
ATOM     15  C   UNL     1      -7.441  -4.289  -2.739  0.00  0.00    +0.000 A 
ATOM     16  C   UNL     1      -8.082  -5.490  -2.444  0.00  0.00    +0.000 A 
ENDBRANCH  10  11
ENDBRANCH   1  10
TORSDOF 2
ENDMDL
