MODEL 1
REMARK VINA RESULT:    -5.666      0.000      0.000
REMARK INTER + INTRA:          -6.443
REMARK INTER:                  -6.328
REMARK INTRA:                  -0.115
REMARK UNBOUND:                -0.115
REMARK  Name = 1550473
REMARK  2 active torsions:
REMARK  status: ('A' for Active; 'I' for Inactive)
REMARK    1  A    between atoms: N_1  and  C_4
REMARK    2  A    between atoms: C_4  and  C_5
REMARK                            x       y       z     vdW  Elec       q    Type
REMARK                         _______ _______ _______ _____ _____    ______ ____
ROOT
ATOM      1  N   UNL     1     -10.904  -1.708  -4.573  0.00  0.00    -0.354 N 
ATOM      2  N   UNL     1     -10.007  -0.714  -2.683  0.00  0.00    -0.372 N 
ATOM      3  N   UNL     1     -11.986  -1.861  -2.500  0.00  0.00    -0.372 N 
ATOM      4  C   UNL     1     -10.974  -1.435  -3.263  0.00  0.00    +0.166 C 
ATOM      5  H   UNL     1     -10.126  -1.331  -5.102  0.00  0.00    +0.163 HD
ATOM      6  H   UNL     1     -10.031  -0.495  -1.696  0.00  0.00    +0.159 HD
ATOM      7  H   UNL     1      -9.208  -0.377  -3.205  0.00  0.00    +0.159 HD
ATOM      8  H   UNL     1     -12.750  -2.405  -2.878  0.00  0.00    +0.159 HD
ATOM      9  H   UNL     1     -12.034  -1.642  -1.512  0.00  0.00    +0.159 HD
ENDROOT
BRANCH   1  10
ATOM     10  C   UNL     1     -11.877  -2.530  -5.290  0.00  0.00    +0.151 C 
BRANCH  10  11
ATOM     11  C   UNL     1     -12.017  -2.012  -6.695  0.00  0.00    -0.028 A 
ATOM     12  C   UNL     1     -11.567  -2.775  -7.783  0.00  0.00    +0.005 A 
ATOM     13  C   UNL     1     -12.604  -0.763  -6.945  0.00  0.00    +0.005 A 
ATOM     14  C   UNL     1     -11.724  -2.307  -9.090  0.00  0.00    +0.000 A 
ATOM     15  C   UNL     1     -12.758  -0.299  -8.251  0.00  0.00    +0.000 A 
ATOM     16  C   UNL     1     -12.320  -1.073  -9.324  0.00  0.00    +0.000 A 
ENDBRANCH  10  11
ENDBRANCH   1  10
TORSDOF 2
ENDMDL
MODEL 2
REMARK VINA RESULT:    -5.488      1.466      1.862
REMARK INTER + INTRA:          -6.244
REMARK INTER:                  -6.062
REMARK INTRA:                  -0.181
REMARK UNBOUND:                -0.115
REMARK  Name = 1550473
REMARK  2 active torsions:
REMARK  status: ('A' for Active; 'I' for Inactive)
REMARK    1  A    between atoms: N_1  and  C_4
REMARK    2  A    between atoms: C_4  and  C_5
REMARK                            x       y       z     vdW  Elec       q    Type
REMARK                         _______ _______ _______ _____ _____    ______ ____
ROOT
ATOM      1  N   UNL     1     -12.057  -3.096  -4.993  0.00  0.00    -0.354 N 
ATOM      2  N   UNL     1     -10.450  -2.464  -3.449  0.00  0.00    -0.372 N 
ATOM      3  N   UNL     1      -9.826  -3.776  -5.225  0.00  0.00    -0.372 N 
ATOM      4  C   UNL     1     -10.787  -3.118  -4.567  0.00  0.00    +0.166 C 
ATOM      5  H   UNL     1     -12.744  -2.605  -4.433  0.00  0.00    +0.163 HD
ATOM      6  H   UNL     1      -9.499  -2.460  -3.105  0.00  0.00    +0.159 HD
ATOM      7  H   UNL     1     -11.130  -1.936  -2.916  0.00  0.00    +0.159 HD
ATOM      8  H   UNL     1     -10.016  -4.294  -6.073  0.00  0.00    +0.159 HD
ATOM      9  H   UNL     1      -8.871  -3.793  -4.891  0.00  0.00    +0.159 HD
ENDROOT
BRANCH   1  10
ATOM     10  C   UNL     1     -12.517  -3.731  -6.227  0.00  0.00    +0.151 C 
BRANCH  10  11
ATOM     11  C   UNL     1     -12.694  -2.676  -7.285  0.00  0.00    -0.028 A 
ATOM     12  C   UNL     1     -11.709  -2.477  -8.263  0.00  0.00    +0.005 A 
ATOM     13  C   UNL     1     -13.847  -1.878  -7.318  0.00  0.00    +0.005 A 
ATOM     14  C   UNL     1     -11.886  -1.518  -9.263  0.00  0.00    +0.000 A 
ATOM     15  C   UNL     1     -14.021  -0.921  -8.318  0.00  0.00    +0.000 A 
ATOM     16  C   UNL     1     -13.041  -0.743  -9.292  0.00  0.00    +0.000 A 
ENDBRANCH  10  11
ENDBRANCH   1  10
TORSDOF 2
ENDMDL
MODEL 3
REMARK VINA RESULT:    -5.147      2.517      3.425
REMARK INTER + INTRA:          -5.864
REMARK INTER:                  -5.691
REMARK INTRA:                  -0.173
REMARK UNBOUND:                -0.115
REMARK  Name = 1550473
REMARK  2 active torsions:
REMARK  status: ('A' for Active; 'I' for Inactive)
REMARK    1  A    between atoms: N_1  and  C_4
REMARK    2  A    between atoms: C_4  and  C_5
REMARK                            x       y       z     vdW  Elec       q    Type
REMARK                         _______ _______ _______ _____ _____    ______ ____
ROOT
ATOM      1  N   UNL     1     -14.327  -2.096  -4.705  0.00  0.00    -0.354 N 
ATOM      2  N   UNL     1     -16.484  -2.805  -4.247  0.00  0.00    -0.372 N 
ATOM      3  N   UNL     1     -14.907  -4.363  -4.842  0.00  0.00    -0.372 N 
ATOM      4  C   UNL     1     -15.224  -3.086  -4.602  0.00  0.00    +0.166 C 
ATOM      5  H   UNL     1     -14.637  -1.146  -4.539  0.00  0.00    +0.163 HD
ATOM      6  H   UNL     1     -17.182  -3.531  -4.157  0.00  0.00    +0.159 HD
ATOM      7  H   UNL     1     -16.780  -1.860  -4.037  0.00  0.00    +0.159 HD
ATOM      8  H   UNL     1     -13.975  -4.640  -5.119  0.00  0.00    +0.159 HD
ATOM      9  H   UNL     1     -15.595  -5.102  -4.769  0.00  0.00    +0.159 HD
ENDROOT
BRANCH   1  10
ATOM     10  C   UNL     1     -12.917  -2.302  -5.033  0.00  0.00    +0.151 C 
BRANCH  10  11
ATOM     11  C   UNL     1     -12.697  -1.976  -6.484  0.00  0.00    -0.028 A 
ATOM     12  C   UNL     1     -13.155  -0.763  -7.019  0.00  0.00    +0.005 A 
ATOM     13  C   UNL     1     -12.028  -2.874  -7.329  0.00  0.00    +0.005 A 
ATOM     14  C   UNL     1     -12.925  -0.447  -8.360  0.00  0.00    +0.000 A 
ATOM     15  C   UNL     1     -11.801  -2.555  -8.668  0.00  0.00    +0.000 A 
ATOM     16  C   UNL     1     -12.247  -1.340  -9.182  0.00  0.00    +0.000 A 
ENDBRANCH  10  11
ENDBRANCH   1  10
TORSDOF 2
ENDMDL
MODEL 4
REMARK VINA RESULT:    -5.064      3.848      4.736
REMARK INTER + INTRA:          -5.771
REMARK INTER:                  -5.611
REMARK INTRA:                  -0.160
REMARK UNBOUND:                -0.115
REMARK  Name = 1550473
REMARK  2 active torsions:
REMARK  status: ('A' for Active; 'I' for Inactive)
REMARK    1  A    between atoms: N_1  and  C_4
REMARK    2  A    between atoms: C_4  and  C_5
REMARK                            x       y       z     vdW  Elec       q    Type
REMARK                         _______ _______ _______ _____ _____    ______ ____
ROOT
ATOM      1  N   UNL     1     -10.076  -6.094  -3.216  0.00  0.00    -0.354 N 
ATOM      2  N   UNL     1      -9.093  -8.188  -3.324  0.00  0.00    -0.372 N 
ATOM      3  N   UNL     1      -7.889  -6.361  -4.014  0.00  0.00    -0.372 N 
ATOM      4  C   UNL     1      -9.024  -6.866  -3.519  0.00  0.00    +0.166 C 
ATOM      5  H   UNL     1     -10.918  -6.542  -2.872  0.00  0.00    +0.163 HD
ATOM      6  H   UNL     1      -8.313  -8.796  -3.539  0.00  0.00    +0.159 HD
ATOM      7  H   UNL     1      -9.919  -8.628  -2.937  0.00  0.00    +0.159 HD
ATOM      8  H   UNL     1      -7.775  -5.372  -4.190  0.00  0.00    +0.159 HD
ATOM      9  H   UNL     1      -7.102  -6.954  -4.247  0.00  0.00    +0.159 HD
ENDROOT
BRANCH   1  10
ATOM     10  C   UNL     1     -10.085  -4.638  -3.340  0.00  0.00    +0.151 C 
BRANCH  10  11
ATOM     11  C   UNL     1     -10.963  -4.249  -4.497  0.00  0.00    -0.028 A 
ATOM     12  C   UNL     1     -10.523  -3.307  -5.439  0.00  0.00    +0.005 A 
ATOM     13  C   UNL     1     -12.233  -4.822  -4.661  0.00  0.00    +0.005 A 
ATOM     14  C   UNL     1     -11.326  -2.967  -6.531  0.00  0.00    +0.000 A 
ATOM     15  C   UNL     1     -13.032  -4.480  -5.752  0.00  0.00    +0.000 A 
ATOM     16  C   UNL     1     -12.577  -3.554  -6.688  0.00  0.00    +0.000 A 
ENDBRANCH  10  11
ENDBRANCH   1  10
TORSDOF 2
ENDMDL
MODEL 5
REMARK VINA RESULT:    -4.927      8.515     10.701
REMARK INTER + INTRA:          -5.618
REMARK INTER:                  -5.485
REMARK INTRA:                  -0.133
REMARK UNBOUND:                -0.115
REMARK  Name = 1550473
REMARK  2 active torsions:
REMARK  status: ('A' for Active; 'I' for Inactive)
REMARK    1  A    between atoms: N_1  and  C_4
REMARK    2  A    between atoms: C_4  and  C_5
REMARK                            x       y       z     vdW  Elec       q    Type
REMARK                         _______ _______ _______ _____ _____    ______ ____
ROOT
ATOM      1  N   UNL     1      -8.867  -7.801  -2.112  0.00  0.00    -0.354 N 
ATOM      2  N   UNL     1      -9.508  -7.978  -4.331  0.00  0.00    -0.372 N 
ATOM      3  N   UNL     1      -7.814  -6.532  -3.777  0.00  0.00    -0.372 N 
ATOM      4  C   UNL     1      -8.724  -7.434  -3.392  0.00  0.00    +0.166 C 
ATOM      5  H   UNL     1      -9.595  -8.468  -1.881  0.00  0.00    +0.163 HD
ATOM      6  H   UNL     1      -9.421  -7.723  -5.305  0.00  0.00    +0.159 HD
ATOM      7  H   UNL     1     -10.204  -8.678  -4.103  0.00  0.00    +0.159 HD
ATOM      8  H   UNL     1      -7.196  -6.080  -3.117  0.00  0.00    +0.159 HD
ATOM      9  H   UNL     1      -7.720  -6.255  -4.746  0.00  0.00    +0.159 HD
ENDROOT
BRANCH   1  10
ATOM     10  C   UNL     1      -8.027  -7.309  -1.021  0.00  0.00    +0.151 C 
BRANCH  10  11
ATOM     11  C   UNL     1      -7.382  -8.479  -0.332  0.00  0.00    -0.028 A 
ATOM     12  C   UNL     1      -7.244  -8.496   1.064  0.00  0.00    +0.005 A 
ATOM     13  C   UNL     1      -6.911  -9.577  -1.068  0.00  0.00    +0.005 A 
ATOM     14  C   UNL     1      -6.672  -9.596   1.708  0.00  0.00    +0.000 A 
ATOM     15  C   UNL     1      -6.339 -10.673  -0.422  0.00  0.00    +0.000 A 
ATOM     16  C   UNL     1      -6.222 -10.683   0.966  0.00  0.00    +0.000 A 
ENDBRANCH  10  11
ENDBRANCH   1  10
TORSDOF 2
ENDMDL
MODEL 6
REMARK VINA RESULT:    -4.774     12.722     13.924
REMARK INTER + INTRA:          -5.447
REMARK INTER:                  -5.342
REMARK INTRA:                  -0.105
REMARK UNBOUND:                -0.115
REMARK  Name = 1550473
REMARK  2 active torsions:
REMARK  status: ('A' for Active; 'I' for Inactive)
REMARK    1  A    between atoms: N_1  and  C_4
REMARK    2  A    between atoms: C_4  and  C_5
REMARK                            x       y       z     vdW  Elec       q    Type
REMARK                         _______ _______ _______ _____ _____    ______ ____
ROOT
ATOM      1  N   UNL     1      -5.705  -8.516   3.942  0.00  0.00    -0.354 N 
ATOM      2  N   UNL     1      -6.711  -7.012   5.387  0.00  0.00    -0.372 N 
ATOM      3  N   UNL     1      -6.305  -6.368   3.223  0.00  0.00    -0.372 N 
ATOM      4  C   UNL     1      -6.234  -7.307   4.172  0.00  0.00    +0.166 C 
ATOM      5  H   UNL     1      -5.652  -9.173   4.712  0.00  0.00    +0.163 HD
ATOM      6  H   UNL     1      -7.119  -6.109   5.590  0.00  0.00    +0.159 HD
ATOM      7  H   UNL     1      -6.700  -7.686   6.142  0.00  0.00    +0.159 HD
ATOM      8  H   UNL     1      -5.957  -6.525   2.286  0.00  0.00    +0.159 HD
ATOM      9  H   UNL     1      -6.699  -5.454   3.409  0.00  0.00    +0.159 HD
ENDROOT
BRANCH   1  10
ATOM     10  C   UNL     1      -5.206  -8.956   2.640  0.00  0.00    +0.151 C 
BRANCH  10  11
ATOM     11  C   UNL     1      -5.555 -10.405   2.445  0.00  0.00    -0.028 A 
ATOM     12  C   UNL     1      -6.442 -10.793   1.430  0.00  0.00    +0.005 A 
ATOM     13  C   UNL     1      -4.997 -11.396   3.267  0.00  0.00    +0.005 A 
ATOM     14  C   UNL     1      -6.743 -12.143   1.229  0.00  0.00    +0.000 A 
ATOM     15  C   UNL     1      -5.301 -12.742   3.063  0.00  0.00    +0.000 A 
ATOM     16  C   UNL     1      -6.172 -13.115   2.043  0.00  0.00    +0.000 A 
ENDBRANCH  10  11
ENDBRANCH   1  10
TORSDOF 2
ENDMDL
MODEL 7
REMARK VINA RESULT:    -4.749     11.322     12.454
REMARK INTER + INTRA:          -5.419
REMARK INTER:                  -5.239
REMARK INTRA:                  -0.180
REMARK UNBOUND:                -0.115
REMARK  Name = 1550473
REMARK  2 active torsions:
REMARK  status: ('A' for Active; 'I' for Inactive)
REMARK    1  A    between atoms: N_1  and  C_4
REMARK    2  A    between atoms: C_4  and  C_5
REMARK                            x       y       z     vdW  Elec       q    Type
REMARK                         _______ _______ _______ _____ _____    ______ ____
ROOT
ATOM      1  N   UNL     1      -6.982  -7.756   1.909  0.00  0.00    -0.354 N 
ATOM      2  N   UNL     1      -6.396  -6.088   3.405  0.00  0.00    -0.372 N 
ATOM      3  N   UNL     1      -5.409  -8.150   3.601  0.00  0.00    -0.372 N 
ATOM      4  C   UNL     1      -6.265  -7.344   2.963  0.00  0.00    +0.166 C 
ATOM      5  H   UNL     1      -7.636  -7.106   1.488  0.00  0.00    +0.163 HD
ATOM      6  H   UNL     1      -5.866  -5.748   4.196  0.00  0.00    +0.159 HD
ATOM      7  H   UNL     1      -7.017  -5.426   2.954  0.00  0.00    +0.159 HD
ATOM      8  H   UNL     1      -5.268  -9.111   3.320  0.00  0.00    +0.159 HD
ATOM      9  H   UNL     1      -4.878  -7.831   4.402  0.00  0.00    +0.159 HD
ENDROOT
BRANCH   1  10
ATOM     10  C   UNL     1      -6.873  -9.087   1.315  0.00  0.00    +0.151 C 
BRANCH  10  11
ATOM     11  C   UNL     1      -8.056  -9.912   1.739  0.00  0.00    -0.028 A 
ATOM     12  C   UNL     1      -9.275  -9.815   1.053  0.00  0.00    +0.005 A 
ATOM     13  C   UNL     1      -7.964 -10.798   2.824  0.00  0.00    +0.005 A 
ATOM     14  C   UNL     1     -10.366 -10.603   1.427  0.00  0.00    +0.000 A 
ATOM     15  C   UNL     1      -9.055 -11.583   3.196  0.00  0.00    +0.000 A 
ATOM     16  C   UNL     1     -10.255 -11.487   2.496  0.00  0.00    +0.000 A 
ENDBRANCH  10  11
ENDBRANCH   1  10
TORSDOF 2
ENDMDL
MODEL 8
REMARK VINA RESULT:    -4.683     10.412     11.850
REMARK INTER + INTRA:          -5.345
REMARK INTER:                  -5.169
REMARK INTRA:                  -0.176
REMARK UNBOUND:                -0.115
REMARK  Name = 1550473
REMARK  2 active torsions:
REMARK  status: ('A' for Active; 'I' for Inactive)
REMARK    1  A    between atoms: N_1  and  C_4
REMARK    2  A    between atoms: C_4  and  C_5
REMARK                            x       y       z     vdW  Elec       q    Type
REMARK                         _______ _______ _______ _____ _____    ______ ____
ROOT
ATOM      1  N   UNL     1      -7.906  -8.345   3.282  0.00  0.00    -0.354 N 
ATOM      2  N   UNL     1      -6.466  -7.002   4.501  0.00  0.00    -0.372 N 
ATOM      3  N   UNL     1      -5.988  -9.236   4.293  0.00  0.00    -0.372 N 
ATOM      4  C   UNL     1      -6.795  -8.206   4.018  0.00  0.00    +0.166 C 
ATOM      5  H   UNL     1      -8.491  -7.531   3.135  0.00  0.00    +0.163 HD
ATOM      6  H   UNL     1      -5.632  -6.865   5.057  0.00  0.00    +0.159 HD
ATOM      7  H   UNL     1      -7.028  -6.181   4.314  0.00  0.00    +0.159 HD
ATOM      8  H   UNL     1      -6.184 -10.172   3.963  0.00  0.00    +0.159 HD
ATOM      9  H   UNL     1      -5.156  -9.122   4.857  0.00  0.00    +0.159 HD
ENDROOT
BRANCH   1  10
ATOM     10  C   UNL     1      -8.325  -9.602   2.665  0.00  0.00    +0.151 C 
BRANCH  10  11
ATOM     11  C   UNL     1      -7.791  -9.661   1.260  0.00  0.00    -0.028 A 
ATOM     12  C   UNL     1      -8.123  -8.666   0.329  0.00  0.00    +0.005 A 
ATOM     13  C   UNL     1      -6.947 -10.707   0.856  0.00  0.00    +0.005 A 
ATOM     14  C   UNL     1      -7.603  -8.705  -0.967  0.00  0.00    +0.000 A 
ATOM     15  C   UNL     1      -6.430 -10.743  -0.440  0.00  0.00    +0.000 A 
ATOM     16  C   UNL     1      -6.756  -9.740  -1.350  0.00  0.00    +0.000 A 
ENDBRANCH  10  11
ENDBRANCH   1  10
TORSDOF 2
ENDMDL
MODEL 9
REMARK VINA RESULT:    -4.667     10.716     12.266
REMARK INTER + INTRA:          -5.328
REMARK INTER:                  -5.184
REMARK INTRA:                  -0.144
REMARK UNBOUND:                -0.115
REMARK  Name = 1550473
REMARK  2 active torsions:
REMARK  status: ('A' for Active; 'I' for Inactive)
REMARK    1  A    between atoms: N_1  and  C_4
REMARK    2  A    between atoms: C_4  and  C_5
REMARK                            x       y       z     vdW  Elec       q    Type
REMARK                         _______ _______ _______ _____ _____    ______ ____
ROOT
ATOM      1  N   UNL     1      -6.439 -10.935  -2.624  0.00  0.00    -0.354 N 
ATOM      2  N   UNL     1      -6.540 -12.879  -3.879  0.00  0.00    -0.372 N 
ATOM      3  N   UNL     1      -8.346 -11.464  -3.879  0.00  0.00    -0.372 N 
ATOM      4  C   UNL     1      -7.110 -11.746  -3.453  0.00  0.00    +0.166 C 
ATOM      5  H   UNL     1      -5.517 -11.221  -2.314  0.00  0.00    +0.163 HD
ATOM      6  H   UNL     1      -7.021 -13.509  -4.508  0.00  0.00    +0.159 HD
ATOM      7  H   UNL     1      -5.601 -13.139  -3.605  0.00  0.00    +0.159 HD
ATOM      8  H   UNL     1      -8.834 -10.627  -3.589  0.00  0.00    +0.159 HD
ATOM      9  H   UNL     1      -8.849 -12.087  -4.498  0.00  0.00    +0.159 HD
ENDROOT
BRANCH   1  10
ATOM     10  C   UNL     1      -6.948  -9.652  -2.144  0.00  0.00    +0.151 C 
BRANCH  10  11
ATOM     11  C   UNL     1      -6.835  -9.608  -0.645  0.00  0.00    -0.028 A 
ATOM     12  C   UNL     1      -7.470  -8.595   0.087  0.00  0.00    +0.005 A 
ATOM     13  C   UNL     1      -6.098 -10.580   0.049  0.00  0.00    +0.005 A 
ATOM     14  C   UNL     1      -7.390  -8.571   1.482  0.00  0.00    +0.000 A 
ATOM     15  C   UNL     1      -6.020 -10.552   1.441  0.00  0.00    +0.000 A 
ATOM     16  C   UNL     1      -6.668  -9.549   2.157  0.00  0.00    +0.000 A 
ENDBRANCH  10  11
ENDBRANCH   1  10
TORSDOF 2
ENDMDL
