MODEL 1
REMARK VINA RESULT:    -4.840      0.000      0.000
REMARK INTER + INTRA:          -5.578
REMARK INTER:                  -5.406
REMARK INTRA:                  -0.172
REMARK UNBOUND:                -0.172
REMARK  Name = 1550473
REMARK  2 active torsions:
REMARK  status: ('A' for Active; 'I' for Inactive)
REMARK    1  A    between atoms: N_1  and  C_4
REMARK    2  A    between atoms: C_4  and  C_5
REMARK                            x       y       z     vdW  Elec       q    Type
REMARK                         _______ _______ _______ _____ _____    ______ ____
ROOT
ATOM      1  N   UNL     1      -3.443  -6.221 -18.523  0.00  0.00    -0.354 N 
ATOM      2  N   UNL     1      -2.656  -4.113 -19.073  0.00  0.00    -0.372 N 
ATOM      3  N   UNL     1      -3.150  -5.587 -20.760  0.00  0.00    -0.372 N 
ATOM      4  C   UNL     1      -3.089  -5.322 -19.451  0.00  0.00    +0.166 C 
ATOM      5  H   UNL     1      -3.345  -5.968 -17.546  0.00  0.00    +0.163 HD
ATOM      6  H   UNL     1      -2.385  -3.413 -19.750  0.00  0.00    +0.159 HD
ATOM      7  H   UNL     1      -2.603  -3.847 -18.097  0.00  0.00    +0.159 HD
ATOM      8  H   UNL     1      -3.462  -6.483 -21.111  0.00  0.00    +0.159 HD
ATOM      9  H   UNL     1      -2.872  -4.904 -21.453  0.00  0.00    +0.159 HD
ENDROOT
BRANCH   1  10
ATOM     10  C   UNL     1      -3.978  -7.546 -18.831  0.00  0.00    +0.151 C 
BRANCH  10  11
ATOM     11  C   UNL     1      -2.853  -8.544 -18.820  0.00  0.00    -0.028 A 
ATOM     12  C   UNL     1      -2.179  -8.844 -17.627  0.00  0.00    +0.005 A 
ATOM     13  C   UNL     1      -2.460  -9.197 -19.998  0.00  0.00    +0.005 A 
ATOM     14  C   UNL     1      -1.154  -9.793 -17.610  0.00  0.00    +0.000 A 
ATOM     15  C   UNL     1      -1.436 -10.144 -19.977  0.00  0.00    +0.000 A 
ATOM     16  C   UNL     1      -0.785 -10.443 -18.783  0.00  0.00    +0.000 A 
ENDBRANCH  10  11
ENDBRANCH   1  10
TORSDOF 2
ENDMDL
MODEL 2
REMARK VINA RESULT:    -4.735     12.589     13.444
REMARK INTER + INTRA:          -5.460
REMARK INTER:                  -5.337
REMARK INTRA:                  -0.123
REMARK UNBOUND:                -0.172
REMARK  Name = 1550473
REMARK  2 active torsions:
REMARK  status: ('A' for Active; 'I' for Inactive)
REMARK    1  A    between atoms: N_1  and  C_4
REMARK    2  A    between atoms: C_4  and  C_5
REMARK                            x       y       z     vdW  Elec       q    Type
REMARK                         _______ _______ _______ _____ _____    ______ ____
ROOT
ATOM      1  N   UNL     1      -8.483   3.523 -22.035  0.00  0.00    -0.354 N 
ATOM      2  N   UNL     1      -8.621   4.764 -20.084  0.00  0.00    -0.372 N 
ATOM      3  N   UNL     1      -9.151   2.532 -20.020  0.00  0.00    -0.372 N 
ATOM      4  C   UNL     1      -8.752   3.596 -20.725  0.00  0.00    +0.166 C 
ATOM      5  H   UNL     1      -8.214   4.372 -22.519  0.00  0.00    +0.163 HD
ATOM      6  H   UNL     1      -8.814   4.848 -19.095  0.00  0.00    +0.159 HD
ATOM      7  H   UNL     1      -8.308   5.601 -20.561  0.00  0.00    +0.159 HD
ATOM      8  H   UNL     1      -9.274   1.623 -20.445  0.00  0.00    +0.159 HD
ATOM      9  H   UNL     1      -9.359   2.599 -19.031  0.00  0.00    +0.159 HD
ENDROOT
BRANCH   1  10
ATOM     10  C   UNL     1      -8.542   2.288 -22.815  0.00  0.00    +0.151 C 
BRANCH  10  11
ATOM     11  C   UNL     1      -8.035   2.560 -24.205  0.00  0.00    -0.028 A 
ATOM     12  C   UNL     1      -7.423   3.784 -24.513  0.00  0.00    +0.005 A 
ATOM     13  C   UNL     1      -8.157   1.595 -25.216  0.00  0.00    +0.005 A 
ATOM     14  C   UNL     1      -6.925   4.025 -25.795  0.00  0.00    +0.000 A 
ATOM     15  C   UNL     1      -7.659   1.840 -26.496  0.00  0.00    +0.000 A 
ATOM     16  C   UNL     1      -7.041   3.054 -26.784  0.00  0.00    +0.000 A 
ENDBRANCH  10  11
ENDBRANCH   1  10
TORSDOF 2
ENDMDL
MODEL 3
REMARK VINA RESULT:    -4.710     30.526     32.258
REMARK INTER + INTRA:          -5.433
REMARK INTER:                  -5.295
REMARK INTRA:                  -0.138
REMARK UNBOUND:                -0.172
REMARK  Name = 1550473
REMARK  2 active torsions:
REMARK  status: ('A' for Active; 'I' for Inactive)
REMARK    1  A    between atoms: N_1  and  C_4
REMARK    2  A    between atoms: C_4  and  C_5
REMARK                            x       y       z     vdW  Elec       q    Type
REMARK                         _______ _______ _______ _____ _____    ______ ____
ROOT
ATOM      1  N   UNL     1      -2.812  14.641   1.713  0.00  0.00    -0.354 N 
ATOM      2  N   UNL     1      -2.574  15.648  -0.359  0.00  0.00    -0.372 N 
ATOM      3  N   UNL     1      -4.568  15.863   0.755  0.00  0.00    -0.372 N 
ATOM      4  C   UNL     1      -3.322  15.378   0.717  0.00  0.00    +0.166 C 
ATOM      5  H   UNL     1      -1.872  14.277   1.610  0.00  0.00    +0.163 HD
ATOM      6  H   UNL     1      -2.930  16.204  -1.125  0.00  0.00    +0.159 HD
ATOM      7  H   UNL     1      -1.618  15.321  -0.439  0.00  0.00    +0.159 HD
ATOM      8  H   UNL     1      -5.186  15.691   1.537  0.00  0.00    +0.159 HD
ATOM      9  H   UNL     1      -4.946  16.413  -0.006  0.00  0.00    +0.159 HD
ENDROOT
BRANCH   1  10
ATOM     10  C   UNL     1      -3.526  14.335   2.952  0.00  0.00    +0.151 C 
BRANCH  10  11
ATOM     11  C   UNL     1      -2.703  14.803   4.120  0.00  0.00    -0.028 A 
ATOM     12  C   UNL     1      -3.323  15.344   5.257  0.00  0.00    +0.005 A 
ATOM     13  C   UNL     1      -1.303  14.704   4.100  0.00  0.00    +0.005 A 
ATOM     14  C   UNL     1      -2.561  15.751   6.354  0.00  0.00    +0.000 A 
ATOM     15  C   UNL     1      -0.546  15.112   5.198  0.00  0.00    +0.000 A 
ATOM     16  C   UNL     1      -1.176  15.634   6.326  0.00  0.00    +0.000 A 
ENDBRANCH  10  11
ENDBRANCH   1  10
TORSDOF 2
ENDMDL
MODEL 4
REMARK VINA RESULT:    -4.681     36.270     37.317
REMARK INTER + INTRA:          -5.400
REMARK INTER:                  -5.287
REMARK INTRA:                  -0.113
REMARK UNBOUND:                -0.172
REMARK  Name = 1550473
REMARK  2 active torsions:
REMARK  status: ('A' for Active; 'I' for Inactive)
REMARK    1  A    between atoms: N_1  and  C_4
REMARK    2  A    between atoms: C_4  and  C_5
REMARK                            x       y       z     vdW  Elec       q    Type
REMARK                         _______ _______ _______ _____ _____    ______ ____
ROOT
ATOM      1  N   UNL     1      -1.596   4.769  17.386  0.00  0.00    -0.354 N 
ATOM      2  N   UNL     1      -2.854   5.556  19.164  0.00  0.00    -0.372 N 
ATOM      3  N   UNL     1      -0.713   4.832  19.556  0.00  0.00    -0.372 N 
ATOM      4  C   UNL     1      -1.710   5.046  18.692  0.00  0.00    +0.166 C 
ATOM      5  H   UNL     1      -2.399   4.926  16.788  0.00  0.00    +0.163 HD
ATOM      6  H   UNL     1      -2.969   5.778  20.143  0.00  0.00    +0.159 HD
ATOM      7  H   UNL     1      -3.640   5.755  18.556  0.00  0.00    +0.159 HD
ATOM      8  H   UNL     1       0.174   4.443  19.264  0.00  0.00    +0.159 HD
ATOM      9  H   UNL     1      -0.812   5.037  20.542  0.00  0.00    +0.159 HD
ENDROOT
BRANCH   1  10
ATOM     10  C   UNL     1      -0.375   4.261  16.762  0.00  0.00    +0.151 C 
BRANCH  10  11
ATOM     11  C   UNL     1      -0.741   3.213  15.747  0.00  0.00    -0.028 A 
ATOM     12  C   UNL     1      -0.919   3.559  14.399  0.00  0.00    +0.005 A 
ATOM     13  C   UNL     1      -0.906   1.872  16.126  0.00  0.00    +0.005 A 
ATOM     14  C   UNL     1      -1.230   2.581  13.451  0.00  0.00    +0.000 A 
ATOM     15  C   UNL     1      -1.217   0.899  15.177  0.00  0.00    +0.000 A 
ATOM     16  C   UNL     1      -1.376   1.253  13.839  0.00  0.00    +0.000 A 
ENDBRANCH  10  11
ENDBRANCH   1  10
TORSDOF 2
ENDMDL
MODEL 5
REMARK VINA RESULT:    -4.415     26.618     27.835
REMARK INTER + INTRA:          -5.103
REMARK INTER:                  -4.920
REMARK INTRA:                  -0.183
REMARK UNBOUND:                -0.172
REMARK  Name = 1550473
REMARK  2 active torsions:
REMARK  status: ('A' for Active; 'I' for Inactive)
REMARK    1  A    between atoms: N_1  and  C_4
REMARK    2  A    between atoms: C_4  and  C_5
REMARK                            x       y       z     vdW  Elec       q    Type
REMARK                         _______ _______ _______ _____ _____    ______ ____
ROOT
ATOM      1  N   UNL     1     -17.940  -6.034   5.475  0.00  0.00    -0.354 N 
ATOM      2  N   UNL     1     -16.256  -6.580   6.969  0.00  0.00    -0.372 N 
ATOM      3  N   UNL     1     -16.316  -7.634   4.932  0.00  0.00    -0.372 N 
ATOM      4  C   UNL     1     -16.848  -6.748   5.780  0.00  0.00    +0.166 C 
ATOM      5  H   UNL     1     -18.311  -5.400   6.173  0.00  0.00    +0.163 HD
ATOM      6  H   UNL     1     -15.429  -7.101   7.226  0.00  0.00    +0.159 HD
ATOM      7  H   UNL     1     -16.602  -5.912   7.647  0.00  0.00    +0.159 HD
ATOM      8  H   UNL     1     -16.719  -7.812   4.022  0.00  0.00    +0.159 HD
ATOM      9  H   UNL     1     -15.496  -8.175   5.176  0.00  0.00    +0.159 HD
ENDROOT
BRANCH   1  10
ATOM     10  C   UNL     1     -18.628  -6.102   4.187  0.00  0.00    +0.151 C 
BRANCH  10  11
ATOM     11  C   UNL     1     -18.168  -4.961   3.323  0.00  0.00    -0.028 A 
ATOM     12  C   UNL     1     -18.397  -3.634   3.716  0.00  0.00    +0.005 A 
ATOM     13  C   UNL     1     -17.499  -5.199   2.113  0.00  0.00    +0.005 A 
ATOM     14  C   UNL     1     -17.943  -2.573   2.929  0.00  0.00    +0.000 A 
ATOM     15  C   UNL     1     -17.048  -4.137   1.329  0.00  0.00    +0.000 A 
ATOM     16  C   UNL     1     -17.269  -2.824   1.739  0.00  0.00    +0.000 A 
ENDBRANCH  10  11
ENDBRANCH   1  10
TORSDOF 2
ENDMDL
MODEL 6
REMARK VINA RESULT:    -4.406     30.631     32.328
REMARK INTER + INTRA:          -5.093
REMARK INTER:                  -4.962
REMARK INTRA:                  -0.131
REMARK UNBOUND:                -0.172
REMARK  Name = 1550473
REMARK  2 active torsions:
REMARK  status: ('A' for Active; 'I' for Inactive)
REMARK    1  A    between atoms: N_1  and  C_4
REMARK    2  A    between atoms: C_4  and  C_5
REMARK                            x       y       z     vdW  Elec       q    Type
REMARK                         _______ _______ _______ _____ _____    ______ ____
ROOT
ATOM      1  N   UNL     1      -2.246  16.366   1.589  0.00  0.00    -0.354 N 
ATOM      2  N   UNL     1      -2.469  16.902  -0.653  0.00  0.00    -0.372 N 
ATOM      3  N   UNL     1      -3.471  14.995   0.136  0.00  0.00    -0.372 N 
ATOM      4  C   UNL     1      -2.728  16.082   0.372  0.00  0.00    +0.166 C 
ATOM      5  H   UNL     1      -1.664  17.189   1.696  0.00  0.00    +0.163 HD
ATOM      6  H   UNL     1      -2.822  16.716  -1.582  0.00  0.00    +0.159 HD
ATOM      7  H   UNL     1      -1.925  17.749  -0.534  0.00  0.00    +0.159 HD
ATOM      8  H   UNL     1      -3.698  14.333   0.866  0.00  0.00    +0.159 HD
ATOM      9  H   UNL     1      -3.824  14.785  -0.789  0.00  0.00    +0.159 HD
ENDROOT
BRANCH   1  10
ATOM     10  C   UNL     1      -2.515  15.567   2.783  0.00  0.00    +0.151 C 
BRANCH  10  11
ATOM     11  C   UNL     1      -1.315  15.614   3.687  0.00  0.00    -0.028 A 
ATOM     12  C   UNL     1      -1.223  14.757   4.794  0.00  0.00    +0.005 A 
ATOM     13  C   UNL     1      -0.263  16.510   3.440  0.00  0.00    +0.005 A 
ATOM     14  C   UNL     1      -0.094  14.780   5.617  0.00  0.00    +0.000 A 
ATOM     15  C   UNL     1       0.862  16.530   4.264  0.00  0.00    +0.000 A 
ATOM     16  C   UNL     1       0.947  15.663   5.351  0.00  0.00    +0.000 A 
ENDBRANCH  10  11
ENDBRANCH   1  10
TORSDOF 2
ENDMDL
MODEL 7
REMARK VINA RESULT:    -4.382     26.779     27.988
REMARK INTER + INTRA:          -5.066
REMARK INTER:                  -4.896
REMARK INTRA:                  -0.170
REMARK UNBOUND:                -0.172
REMARK  Name = 1550473
REMARK  2 active torsions:
REMARK  status: ('A' for Active; 'I' for Inactive)
REMARK    1  A    between atoms: N_1  and  C_4
REMARK    2  A    between atoms: C_4  and  C_5
REMARK                            x       y       z     vdW  Elec       q    Type
REMARK                         _______ _______ _______ _____ _____    ______ ____
ROOT
ATOM      1  N   UNL     1     -17.285  -1.273   1.902  0.00  0.00    -0.354 N 
ATOM      2  N   UNL     1     -17.057  -3.443   1.124  0.00  0.00    -0.372 N 
ATOM      3  N   UNL     1     -18.344  -3.062   2.985  0.00  0.00    -0.372 N 
ATOM      4  C   UNL     1     -17.565  -2.579   2.011  0.00  0.00    +0.166 C 
ATOM      5  H   UNL     1     -16.664  -0.975   1.159  0.00  0.00    +0.163 HD
ATOM      6  H   UNL     1     -17.254  -4.433   1.179  0.00  0.00    +0.159 HD
ATOM      7  H   UNL     1     -16.474  -3.136   0.355  0.00  0.00    +0.159 HD
ATOM      8  H   UNL     1     -18.753  -2.463   3.690  0.00  0.00    +0.159 HD
ATOM      9  H   UNL     1     -18.543  -4.051   3.064  0.00  0.00    +0.159 HD
ENDROOT
BRANCH   1  10
ATOM     10  C   UNL     1     -17.831  -0.244   2.785  0.00  0.00    +0.151 C 
BRANCH  10  11
ATOM     11  C   UNL     1     -16.847   0.028   3.890  0.00  0.00    -0.028 A 
ATOM     12  C   UNL     1     -15.643   0.696   3.623  0.00  0.00    +0.005 A 
ATOM     13  C   UNL     1     -17.116  -0.375   5.207  0.00  0.00    +0.005 A 
ATOM     14  C   UNL     1     -14.743   0.975   4.654  0.00  0.00    +0.000 A 
ATOM     15  C   UNL     1     -16.215  -0.095   6.233  0.00  0.00    +0.000 A 
ATOM     16  C   UNL     1     -15.029   0.582   5.957  0.00  0.00    +0.000 A 
ENDBRANCH  10  11
ENDBRANCH   1  10
TORSDOF 2
ENDMDL
MODEL 8
REMARK VINA RESULT:    -4.320     53.175     54.180
REMARK INTER + INTRA:          -4.997
REMARK INTER:                  -4.878
REMARK INTRA:                  -0.119
REMARK UNBOUND:                -0.172
REMARK  Name = 1550473
REMARK  2 active torsions:
REMARK  status: ('A' for Active; 'I' for Inactive)
REMARK    1  A    between atoms: N_1  and  C_4
REMARK    2  A    between atoms: C_4  and  C_5
REMARK                            x       y       z     vdW  Elec       q    Type
REMARK                         _______ _______ _______ _____ _____    ______ ____
ROOT
ATOM      1  N   UNL     1      15.305  15.988  25.624  0.00  0.00    -0.354 N 
ATOM      2  N   UNL     1      14.085  17.873  25.056  0.00  0.00    -0.372 N 
ATOM      3  N   UNL     1      14.088  16.080  23.623  0.00  0.00    -0.372 N 
ATOM      4  C   UNL     1      14.500  16.633  24.769  0.00  0.00    +0.166 C 
ATOM      5  H   UNL     1      15.606  16.474  26.461  0.00  0.00    +0.163 HD
ATOM      6  H   UNL     1      13.474  18.383  24.431  0.00  0.00    +0.159 HD
ATOM      7  H   UNL     1      14.350  18.338  25.915  0.00  0.00    +0.159 HD
ATOM      8  H   UNL     1      14.370  15.150  23.346  0.00  0.00    +0.159 HD
ATOM      9  H   UNL     1      13.486  16.579  22.980  0.00  0.00    +0.159 HD
ENDROOT
BRANCH   1  10
ATOM     10  C   UNL     1      15.770  14.616  25.432  0.00  0.00    +0.151 C 
BRANCH  10  11
ATOM     11  C   UNL     1      16.414  14.133  26.702  0.00  0.00    -0.028 A 
ATOM     12  C   UNL     1      17.475  13.216  26.659  0.00  0.00    +0.005 A 
ATOM     13  C   UNL     1      15.973  14.593  27.952  0.00  0.00    +0.005 A 
ATOM     14  C   UNL     1      18.094  12.790  27.837  0.00  0.00    +0.000 A 
ATOM     15  C   UNL     1      16.593  14.165  29.126  0.00  0.00    +0.000 A 
ATOM     16  C   UNL     1      17.654  13.266  29.068  0.00  0.00    +0.000 A 
ENDBRANCH  10  11
ENDBRANCH   1  10
TORSDOF 2
ENDMDL
MODEL 9
REMARK VINA RESULT:    -4.241     38.873     39.867
REMARK INTER + INTRA:          -4.908
REMARK INTER:                  -4.772
REMARK INTRA:                  -0.136
REMARK UNBOUND:                -0.172
REMARK  Name = 1550473
REMARK  2 active torsions:
REMARK  status: ('A' for Active; 'I' for Inactive)
REMARK    1  A    between atoms: N_1  and  C_4
REMARK    2  A    between atoms: C_4  and  C_5
REMARK                            x       y       z     vdW  Elec       q    Type
REMARK                         _______ _______ _______ _____ _____    ______ ____
ROOT
ATOM      1  N   UNL     1       7.476   8.910  14.455  0.00  0.00    -0.354 N 
ATOM      2  N   UNL     1       8.192   6.720  14.691  0.00  0.00    -0.372 N 
ATOM      3  N   UNL     1       9.525   8.413  15.479  0.00  0.00    -0.372 N 
ATOM      4  C   UNL     1       8.395   8.030  14.875  0.00  0.00    +0.166 C 
ATOM      5  H   UNL     1       6.655   8.557  13.977  0.00  0.00    +0.163 HD
ATOM      6  H   UNL     1       8.866   6.032  15.000  0.00  0.00    +0.159 HD
ATOM      7  H   UNL     1       7.349   6.368  14.254  0.00  0.00    +0.159 HD
ATOM      8  H   UNL     1       9.741   9.388  15.642  0.00  0.00    +0.159 HD
ATOM      9  H   UNL     1      10.217   7.741  15.784  0.00  0.00    +0.159 HD
ENDROOT
BRANCH   1  10
ATOM     10  C   UNL     1       7.576  10.355  14.655  0.00  0.00    +0.151 C 
BRANCH  10  11
ATOM     11  C   UNL     1       6.225  10.893  15.037  0.00  0.00    -0.028 A 
ATOM     12  C   UNL     1       5.869  12.212  14.721  0.00  0.00    +0.005 A 
ATOM     13  C   UNL     1       5.294  10.087  15.710  0.00  0.00    +0.005 A 
ATOM     14  C   UNL     1       4.603  12.703  15.049  0.00  0.00    +0.000 A 
ATOM     15  C   UNL     1       4.032  10.581  16.037  0.00  0.00    +0.000 A 
ATOM     16  C   UNL     1       3.685  11.888  15.704  0.00  0.00    +0.000 A 
ENDBRANCH  10  11
ENDBRANCH   1  10
TORSDOF 2
ENDMDL
