MODEL 1
REMARK VINA RESULT:    -4.806      0.000      0.000
REMARK INTER + INTRA:          -5.477
REMARK INTER:                  -5.368
REMARK INTRA:                  -0.109
REMARK UNBOUND:                -0.109
REMARK  Name = 1550473
REMARK  2 active torsions:
REMARK  status: ('A' for Active; 'I' for Inactive)
REMARK    1  A    between atoms: N_1  and  C_4
REMARK    2  A    between atoms: C_4  and  C_5
REMARK                            x       y       z     vdW  Elec       q    Type
REMARK                         _______ _______ _______ _____ _____    ______ ____
ROOT
ATOM      1  N   UNL     1      -5.468 -10.194  -0.248  0.00  0.00    -0.354 N 
ATOM      2  N   UNL     1      -3.952  -9.249   1.227  0.00  0.00    -0.372 N 
ATOM      3  N   UNL     1      -3.176 -10.148  -0.737  0.00  0.00    -0.372 N 
ATOM      4  C   UNL     1      -4.207  -9.871   0.069  0.00  0.00    +0.166 C 
ATOM      5  H   UNL     1      -6.201  -9.983   0.420  0.00  0.00    +0.163 HD
ATOM      6  H   UNL     1      -3.011  -8.990   1.491  0.00  0.00    +0.159 HD
ATOM      7  H   UNL     1      -4.692  -8.999   1.872  0.00  0.00    +0.159 HD
ATOM      8  H   UNL     1      -3.301 -10.621  -1.622  0.00  0.00    +0.159 HD
ATOM      9  H   UNL     1      -2.226  -9.907  -0.484  0.00  0.00    +0.159 HD
ENDROOT
BRANCH   1  10
ATOM     10  C   UNL     1      -5.859 -10.824  -1.507  0.00  0.00    +0.151 C 
BRANCH  10  11
ATOM     11  C   UNL     1      -7.355 -10.762  -1.644  0.00  0.00    -0.028 A 
ATOM     12  C   UNL     1      -8.038  -9.550  -1.463  0.00  0.00    +0.005 A 
ATOM     13  C   UNL     1      -8.096 -11.912  -1.959  0.00  0.00    +0.005 A 
ATOM     14  C   UNL     1      -9.424  -9.487  -1.619  0.00  0.00    +0.000 A 
ATOM     15  C   UNL     1      -9.481 -11.844  -2.113  0.00  0.00    +0.000 A 
ATOM     16  C   UNL     1     -10.144 -10.631  -1.945  0.00  0.00    +0.000 A 
ENDBRANCH  10  11
ENDBRANCH   1  10
TORSDOF 2
ENDMDL
MODEL 2
REMARK VINA RESULT:    -4.675      1.309      2.195
REMARK INTER + INTRA:          -5.331
REMARK INTER:                  -5.202
REMARK INTRA:                  -0.129
REMARK UNBOUND:                -0.109
REMARK  Name = 1550473
REMARK  2 active torsions:
REMARK  status: ('A' for Active; 'I' for Inactive)
REMARK    1  A    between atoms: N_1  and  C_4
REMARK    2  A    between atoms: C_4  and  C_5
REMARK                            x       y       z     vdW  Elec       q    Type
REMARK                         _______ _______ _______ _____ _____    ______ ____
ROOT
ATOM      1  N   UNL     1      -4.519 -11.120  -0.450  0.00  0.00    -0.354 N 
ATOM      2  N   UNL     1      -3.235  -9.221  -0.119  0.00  0.00    -0.372 N 
ATOM      3  N   UNL     1      -4.425 -10.077   1.646  0.00  0.00    -0.372 N 
ATOM      4  C   UNL     1      -4.069 -10.152   0.360  0.00  0.00    +0.166 C 
ATOM      5  H   UNL     1      -4.236 -11.103  -1.423  0.00  0.00    +0.163 HD
ATOM      6  H   UNL     1      -2.876  -8.480   0.469  0.00  0.00    +0.159 HD
ATOM      7  H   UNL     1      -2.917  -9.233  -1.080  0.00  0.00    +0.159 HD
ATOM      8  H   UNL     1      -5.057 -10.745   2.067  0.00  0.00    +0.159 HD
ATOM      9  H   UNL     1      -4.086  -9.336   2.248  0.00  0.00    +0.159 HD
ENDROOT
BRANCH   1  10
ATOM     10  C   UNL     1      -5.388 -12.211  -0.015  0.00  0.00    +0.151 C 
BRANCH  10  11
ATOM     11  C   UNL     1      -6.692 -12.127  -0.759  0.00  0.00    -0.028 A 
ATOM     12  C   UNL     1      -7.666 -13.125  -0.605  0.00  0.00    +0.005 A 
ATOM     13  C   UNL     1      -6.964 -11.048  -1.614  0.00  0.00    +0.005 A 
ATOM     14  C   UNL     1      -8.890 -13.031  -1.272  0.00  0.00    +0.000 A 
ATOM     15  C   UNL     1      -8.187 -10.958  -2.279  0.00  0.00    +0.000 A 
ATOM     16  C   UNL     1      -9.150 -11.949  -2.106  0.00  0.00    +0.000 A 
ENDBRANCH  10  11
ENDBRANCH   1  10
TORSDOF 2
ENDMDL
MODEL 3
REMARK VINA RESULT:    -4.465     21.659     22.488
REMARK INTER + INTRA:          -5.097
REMARK INTER:                  -4.977
REMARK INTRA:                  -0.120
REMARK UNBOUND:                -0.109
REMARK  Name = 1550473
REMARK  2 active torsions:
REMARK  status: ('A' for Active; 'I' for Inactive)
REMARK    1  A    between atoms: N_1  and  C_4
REMARK    2  A    between atoms: C_4  and  C_5
REMARK                            x       y       z     vdW  Elec       q    Type
REMARK                         _______ _______ _______ _____ _____    ______ ____
ROOT
ATOM      1  N   UNL     1      -5.630   9.468  -9.848  0.00  0.00    -0.354 N 
ATOM      2  N   UNL     1      -7.944   9.528  -9.906  0.00  0.00    -0.372 N 
ATOM      3  N   UNL     1      -6.821  11.178  -8.776  0.00  0.00    -0.372 N 
ATOM      4  C   UNL     1      -6.783  10.060  -9.508  0.00  0.00    +0.166 C 
ATOM      5  H   UNL     1      -5.670   8.605 -10.379  0.00  0.00    +0.163 HD
ATOM      6  H   UNL     1      -8.830   9.954  -9.668  0.00  0.00    +0.159 HD
ATOM      7  H   UNL     1      -7.980   8.691 -10.475  0.00  0.00    +0.159 HD
ATOM      8  H   UNL     1      -5.979  11.627  -8.440  0.00  0.00    +0.159 HD
ATOM      9  H   UNL     1      -7.697  11.613  -8.518  0.00  0.00    +0.159 HD
ENDROOT
BRANCH   1  10
ATOM     10  C   UNL     1      -4.309   9.996  -9.511  0.00  0.00    +0.151 C 
BRANCH  10  11
ATOM     11  C   UNL     1      -3.273   9.301 -10.351  0.00  0.00    -0.028 A 
ATOM     12  C   UNL     1      -3.538   8.044 -10.913  0.00  0.00    +0.005 A 
ATOM     13  C   UNL     1      -2.027   9.898 -10.594  0.00  0.00    +0.005 A 
ATOM     14  C   UNL     1      -2.588   7.412 -11.718  0.00  0.00    +0.000 A 
ATOM     15  C   UNL     1      -1.080   9.264 -11.398  0.00  0.00    +0.000 A 
ATOM     16  C   UNL     1      -1.362   8.022 -11.962  0.00  0.00    +0.000 A 
ENDBRANCH  10  11
ENDBRANCH   1  10
TORSDOF 2
ENDMDL
MODEL 4
REMARK VINA RESULT:    -4.360      9.959     11.460
REMARK INTER + INTRA:          -4.979
REMARK INTER:                  -4.872
REMARK INTRA:                  -0.107
REMARK UNBOUND:                -0.109
REMARK  Name = 1550473
REMARK  2 active torsions:
REMARK  status: ('A' for Active; 'I' for Inactive)
REMARK    1  A    between atoms: N_1  and  C_4
REMARK    2  A    between atoms: C_4  and  C_5
REMARK                            x       y       z     vdW  Elec       q    Type
REMARK                         _______ _______ _______ _____ _____    ______ ____
ROOT
ATOM      1  N   UNL     1     -15.503  -2.654   2.884  0.00  0.00    -0.354 N 
ATOM      2  N   UNL     1     -15.753  -2.054   5.107  0.00  0.00    -0.372 N 
ATOM      3  N   UNL     1     -15.107  -0.455   3.593  0.00  0.00    -0.372 N 
ATOM      4  C   UNL     1     -15.452  -1.722   3.846  0.00  0.00    +0.166 C 
ATOM      5  H   UNL     1     -15.742  -3.603   3.146  0.00  0.00    +0.163 HD
ATOM      6  H   UNL     1     -15.726  -1.372   5.853  0.00  0.00    +0.159 HD
ATOM      7  H   UNL     1     -16.036  -2.993   5.358  0.00  0.00    +0.159 HD
ATOM      8  H   UNL     1     -14.862  -0.143   2.663  0.00  0.00    +0.159 HD
ATOM      9  H   UNL     1     -15.063   0.239   4.328  0.00  0.00    +0.159 HD
ENDROOT
BRANCH   1  10
ATOM     10  C   UNL     1     -15.246  -2.385   1.471  0.00  0.00    +0.151 C 
BRANCH  10  11
ATOM     11  C   UNL     1     -14.695  -3.627   0.826  0.00  0.00    -0.028 A 
ATOM     12  C   UNL     1     -15.493  -4.397  -0.033  0.00  0.00    +0.005 A 
ATOM     13  C   UNL     1     -13.374  -4.036   1.066  0.00  0.00    +0.005 A 
ATOM     14  C   UNL     1     -14.972  -5.534  -0.655  0.00  0.00    +0.000 A 
ATOM     15  C   UNL     1     -12.859  -5.172   0.444  0.00  0.00    +0.000 A 
ATOM     16  C   UNL     1     -13.657  -5.920  -0.419  0.00  0.00    +0.000 A 
ENDBRANCH  10  11
ENDBRANCH   1  10
TORSDOF 2
ENDMDL
MODEL 5
REMARK VINA RESULT:    -4.314     10.160     11.808
REMARK INTER + INTRA:          -4.927
REMARK INTER:                  -4.823
REMARK INTRA:                  -0.104
REMARK UNBOUND:                -0.109
REMARK  Name = 1550473
REMARK  2 active torsions:
REMARK  status: ('A' for Active; 'I' for Inactive)
REMARK    1  A    between atoms: N_1  and  C_4
REMARK    2  A    between atoms: C_4  and  C_5
REMARK                            x       y       z     vdW  Elec       q    Type
REMARK                         _______ _______ _______ _____ _____    ______ ____
ROOT
ATOM      1  N   UNL     1     -15.630  -4.551   0.026  0.00  0.00    -0.354 N 
ATOM      2  N   UNL     1     -16.980  -5.535  -1.579  0.00  0.00    -0.372 N 
ATOM      3  N   UNL     1     -14.703  -5.582  -1.864  0.00  0.00    -0.372 N 
ATOM      4  C   UNL     1     -15.760  -5.217  -1.130  0.00  0.00    +0.166 C 
ATOM      5  H   UNL     1     -16.471  -4.276   0.520  0.00  0.00    +0.163 HD
ATOM      6  H   UNL     1     -17.108  -6.040  -2.445  0.00  0.00    +0.159 HD
ATOM      7  H   UNL     1     -17.817  -5.300  -1.060  0.00  0.00    +0.159 HD
ATOM      8  H   UNL     1     -13.756  -5.366  -1.583  0.00  0.00    +0.159 HD
ATOM      9  H   UNL     1     -14.812  -6.077  -2.740  0.00  0.00    +0.159 HD
ENDROOT
BRANCH   1  10
ATOM     10  C   UNL     1     -14.345  -4.203   0.629  0.00  0.00    +0.151 C 
BRANCH  10  11
ATOM     11  C   UNL     1     -14.586  -3.322   1.824  0.00  0.00    -0.028 A 
ATOM     12  C   UNL     1     -15.303  -2.124   1.692  0.00  0.00    +0.005 A 
ATOM     13  C   UNL     1     -14.104  -3.682   3.092  0.00  0.00    +0.005 A 
ATOM     14  C   UNL     1     -15.553  -1.320   2.806  0.00  0.00    +0.000 A 
ATOM     15  C   UNL     1     -14.355  -2.876   4.202  0.00  0.00    +0.000 A 
ATOM     16  C   UNL     1     -15.082  -1.697   4.060  0.00  0.00    +0.000 A 
ENDBRANCH  10  11
ENDBRANCH   1  10
TORSDOF 2
ENDMDL
MODEL 6
REMARK VINA RESULT:    -4.300     19.432     20.501
REMARK INTER + INTRA:          -4.912
REMARK INTER:                  -4.804
REMARK INTRA:                  -0.108
REMARK UNBOUND:                -0.109
REMARK  Name = 1550473
REMARK  2 active torsions:
REMARK  status: ('A' for Active; 'I' for Inactive)
REMARK    1  A    between atoms: N_1  and  C_4
REMARK    2  A    between atoms: C_4  and  C_5
REMARK                            x       y       z     vdW  Elec       q    Type
REMARK                         _______ _______ _______ _____ _____    ______ ____
ROOT
ATOM      1  N   UNL     1     -11.080  10.131  -1.673  0.00  0.00    -0.354 N 
ATOM      2  N   UNL     1     -10.058  11.676  -3.063  0.00  0.00    -0.372 N 
ATOM      3  N   UNL     1      -9.047   9.643  -2.732  0.00  0.00    -0.372 N 
ATOM      4  C   UNL     1     -10.066  10.471  -2.481  0.00  0.00    +0.166 C 
ATOM      5  H   UNL     1     -11.807  10.815  -1.499  0.00  0.00    +0.163 HD
ATOM      6  H   UNL     1      -9.308  11.960  -3.680  0.00  0.00    +0.159 HD
ATOM      7  H   UNL     1     -10.809  12.341  -2.923  0.00  0.00    +0.159 HD
ATOM      8  H   UNL     1      -8.991   8.722  -2.319  0.00  0.00    +0.159 HD
ATOM      9  H   UNL     1      -8.281   9.913  -3.337  0.00  0.00    +0.159 HD
ENDROOT
BRANCH   1  10
ATOM     10  C   UNL     1     -11.211   8.823  -1.033  0.00  0.00    +0.151 C 
BRANCH  10  11
ATOM     11  C   UNL     1     -10.467   8.840   0.274  0.00  0.00    -0.028 A 
ATOM     12  C   UNL     1     -10.528   9.961   1.114  0.00  0.00    +0.005 A 
ATOM     13  C   UNL     1      -9.704   7.734   0.680  0.00  0.00    +0.005 A 
ATOM     14  C   UNL     1      -9.861   9.965   2.342  0.00  0.00    +0.000 A 
ATOM     15  C   UNL     1      -9.039   7.742   1.906  0.00  0.00    +0.000 A 
ATOM     16  C   UNL     1      -9.120   8.857   2.738  0.00  0.00    +0.000 A 
ENDBRANCH  10  11
ENDBRANCH   1  10
TORSDOF 2
ENDMDL
MODEL 7
REMARK VINA RESULT:    -4.291     19.795     20.884
REMARK INTER + INTRA:          -4.902
REMARK INTER:                  -4.766
REMARK INTRA:                  -0.136
REMARK UNBOUND:                -0.109
REMARK  Name = 1550473
REMARK  2 active torsions:
REMARK  status: ('A' for Active; 'I' for Inactive)
REMARK    1  A    between atoms: N_1  and  C_4
REMARK    2  A    between atoms: C_4  and  C_5
REMARK                            x       y       z     vdW  Elec       q    Type
REMARK                         _______ _______ _______ _____ _____    ______ ____
ROOT
ATOM      1  N   UNL     1     -23.806  -9.844 -12.534  0.00  0.00    -0.354 N 
ATOM      2  N   UNL     1     -23.366 -11.201 -10.709  0.00  0.00    -0.372 N 
ATOM      3  N   UNL     1     -22.843 -11.963 -12.810  0.00  0.00    -0.372 N 
ATOM      4  C   UNL     1     -23.341 -10.996 -12.032  0.00  0.00    +0.166 C 
ATOM      5  H   UNL     1     -24.198  -9.163 -11.894  0.00  0.00    +0.163 HD
ATOM      6  H   UNL     1     -23.018 -12.058 -10.301  0.00  0.00    +0.159 HD
ATOM      7  H   UNL     1     -23.716 -10.500 -10.068  0.00  0.00    +0.159 HD
ATOM      8  H   UNL     1     -22.801 -11.872 -13.816  0.00  0.00    +0.159 HD
ATOM      9  H   UNL     1     -22.501 -12.833 -12.421  0.00  0.00    +0.159 HD
ENDROOT
BRANCH   1  10
ATOM     10  C   UNL     1     -23.774  -9.500 -13.954  0.00  0.00    +0.151 C 
BRANCH  10  11
ATOM     11  C   UNL     1     -23.324  -8.073 -14.104  0.00  0.00    -0.028 A 
ATOM     12  C   UNL     1     -22.925  -7.579 -15.354  0.00  0.00    +0.005 A 
ATOM     13  C   UNL     1     -23.300  -7.207 -12.999  0.00  0.00    +0.005 A 
ATOM     14  C   UNL     1     -22.536  -6.245 -15.500  0.00  0.00    +0.000 A 
ATOM     15  C   UNL     1     -22.909  -5.877 -13.148  0.00  0.00    +0.000 A 
ATOM     16  C   UNL     1     -22.530  -5.395 -14.399  0.00  0.00    +0.000 A 
ENDBRANCH  10  11
ENDBRANCH   1  10
TORSDOF 2
ENDMDL
MODEL 8
REMARK VINA RESULT:    -4.224     32.731     34.078
REMARK INTER + INTRA:          -4.827
REMARK INTER:                  -4.653
REMARK INTRA:                  -0.174
REMARK UNBOUND:                -0.109
REMARK  Name = 1550473
REMARK  2 active torsions:
REMARK  status: ('A' for Active; 'I' for Inactive)
REMARK    1  A    between atoms: N_1  and  C_4
REMARK    2  A    between atoms: C_4  and  C_5
REMARK                            x       y       z     vdW  Elec       q    Type
REMARK                         _______ _______ _______ _____ _____    ______ ____
ROOT
ATOM      1  N   UNL     1      -1.982  16.427  20.837  0.00  0.00    -0.354 N 
ATOM      2  N   UNL     1      -2.372  14.582  22.181  0.00  0.00    -0.372 N 
ATOM      3  N   UNL     1      -4.068  15.360  20.845  0.00  0.00    -0.372 N 
ATOM      4  C   UNL     1      -2.807  15.469  21.278  0.00  0.00    +0.166 C 
ATOM      5  H   UNL     1      -1.047  16.475  21.226  0.00  0.00    +0.163 HD
ATOM      6  H   UNL     1      -2.971  13.846  22.530  0.00  0.00    +0.159 HD
ATOM      7  H   UNL     1      -1.423  14.604  22.534  0.00  0.00    +0.159 HD
ATOM      8  H   UNL     1      -4.459  16.001  20.169  0.00  0.00    +0.159 HD
ATOM      9  H   UNL     1      -4.686  14.637  21.191  0.00  0.00    +0.159 HD
ENDROOT
BRANCH   1  10
ATOM     10  C   UNL     1      -2.341  17.409  19.815  0.00  0.00    +0.151 C 
BRANCH  10  11
ATOM     11  C   UNL     1      -1.618  17.076  18.539  0.00  0.00    -0.028 A 
ATOM     12  C   UNL     1      -2.239  16.300  17.549  0.00  0.00    +0.005 A 
ATOM     13  C   UNL     1      -0.312  17.539  18.311  0.00  0.00    +0.005 A 
ATOM     14  C   UNL     1      -1.579  16.016  16.351  0.00  0.00    +0.000 A 
ATOM     15  C   UNL     1       0.344  17.252  17.113  0.00  0.00    +0.000 A 
ATOM     16  C   UNL     1      -0.291  16.493  16.133  0.00  0.00    +0.000 A 
ENDBRANCH  10  11
ENDBRANCH   1  10
TORSDOF 2
ENDMDL
MODEL 9
REMARK VINA RESULT:    -4.187      9.976     11.572
REMARK INTER + INTRA:          -4.786
REMARK INTER:                  -4.641
REMARK INTRA:                  -0.145
REMARK UNBOUND:                -0.109
REMARK  Name = 1550473
REMARK  2 active torsions:
REMARK  status: ('A' for Active; 'I' for Inactive)
REMARK    1  A    between atoms: N_1  and  C_4
REMARK    2  A    between atoms: C_4  and  C_5
REMARK                            x       y       z     vdW  Elec       q    Type
REMARK                         _______ _______ _______ _____ _____    ______ ____
ROOT
ATOM      1  N   UNL     1     -17.352  -5.379  -1.303  0.00  0.00    -0.354 N 
ATOM      2  N   UNL     1     -19.601  -5.612  -0.803  0.00  0.00    -0.372 N 
ATOM      3  N   UNL     1     -18.320  -7.498  -1.059  0.00  0.00    -0.372 N 
ATOM      4  C   UNL     1     -18.409  -6.164  -1.059  0.00  0.00    +0.166 C 
ATOM      5  H   UNL     1     -17.491  -4.375  -1.319  0.00  0.00    +0.163 HD
ATOM      6  H   UNL     1     -20.416  -6.179  -0.611  0.00  0.00    +0.159 HD
ATOM      7  H   UNL     1     -19.727  -4.608  -0.773  0.00  0.00    +0.159 HD
ATOM      8  H   UNL     1     -17.450  -7.977  -1.251  0.00  0.00    +0.159 HD
ATOM      9  H   UNL     1     -19.127  -8.083  -0.881  0.00  0.00    +0.159 HD
ENDROOT
BRANCH   1  10
ATOM     10  C   UNL     1     -15.999  -5.879  -1.540  0.00  0.00    +0.151 C 
BRANCH  10  11
ATOM     11  C   UNL     1     -15.055  -5.219  -0.573  0.00  0.00    -0.028 A 
ATOM     12  C   UNL     1     -13.741  -5.689  -0.428  0.00  0.00    +0.005 A 
ATOM     13  C   UNL     1     -15.466  -4.121   0.197  0.00  0.00    +0.005 A 
ATOM     14  C   UNL     1     -12.855  -5.058   0.448  0.00  0.00    +0.000 A 
ATOM     15  C   UNL     1     -14.579  -3.495   1.072  0.00  0.00    +0.000 A 
ATOM     16  C   UNL     1     -13.272  -3.962   1.195  0.00  0.00    +0.000 A 
ENDBRANCH  10  11
ENDBRANCH   1  10
TORSDOF 2
ENDMDL
