MODEL 1
REMARK VINA RESULT:    -6.722      0.000      0.000
REMARK INTER + INTRA:          -7.627
REMARK INTER:                  -7.508
REMARK INTRA:                  -0.119
REMARK UNBOUND:                -0.119
REMARK  Name = 1550473
REMARK  2 active torsions:
REMARK  status: ('A' for Active; 'I' for Inactive)
REMARK    1  A    between atoms: N_1  and  C_4
REMARK    2  A    between atoms: C_4  and  C_5
REMARK                            x       y       z     vdW  Elec       q    Type
REMARK                         _______ _______ _______ _____ _____    ______ ____
ROOT
ATOM      1  N   UNL     1      -0.568  -5.949  -9.734  0.00  0.00    -0.354 N 
ATOM      2  N   UNL     1      -1.690  -6.243  -7.730  0.00  0.00    -0.372 N 
ATOM      3  N   UNL     1      -1.609  -4.147  -8.658  0.00  0.00    -0.372 N 
ATOM      4  C   UNL     1      -1.282  -5.442  -8.721  0.00  0.00    +0.166 C 
ATOM      5  H   UNL     1      -0.326  -6.933  -9.708  0.00  0.00    +0.163 HD
ATOM      6  H   UNL     1      -2.233  -5.890  -6.954  0.00  0.00    +0.159 HD
ATOM      7  H   UNL     1      -1.487  -7.236  -7.729  0.00  0.00    +0.159 HD
ATOM      8  H   UNL     1      -1.327  -3.488  -9.372  0.00  0.00    +0.159 HD
ATOM      9  H   UNL     1      -2.142  -3.772  -7.884  0.00  0.00    +0.159 HD
ENDROOT
BRANCH   1  10
ATOM     10  C   UNL     1      -0.121  -5.173 -10.889  0.00  0.00    +0.151 C 
BRANCH  10  11
ATOM     11  C   UNL     1       0.671  -6.065 -11.805  0.00  0.00    -0.028 A 
ATOM     12  C   UNL     1       0.497  -7.456 -11.768  0.00  0.00    +0.005 A 
ATOM     13  C   UNL     1       1.592  -5.525 -12.715  0.00  0.00    +0.005 A 
ATOM     14  C   UNL     1       1.210  -8.283 -12.639  0.00  0.00    +0.000 A 
ATOM     15  C   UNL     1       2.303  -6.354 -13.583  0.00  0.00    +0.000 A 
ATOM     16  C   UNL     1       2.110  -7.733 -13.546  0.00  0.00    +0.000 A 
ENDBRANCH  10  11
ENDBRANCH   1  10
TORSDOF 2
ENDMDL
MODEL 2
REMARK VINA RESULT:    -5.850      5.163      7.088
REMARK INTER + INTRA:          -6.653
REMARK INTER:                  -6.528
REMARK INTRA:                  -0.125
REMARK UNBOUND:                -0.119
REMARK  Name = 1550473
REMARK  2 active torsions:
REMARK  status: ('A' for Active; 'I' for Inactive)
REMARK    1  A    between atoms: N_1  and  C_4
REMARK    2  A    between atoms: C_4  and  C_5
REMARK                            x       y       z     vdW  Elec       q    Type
REMARK                         _______ _______ _______ _____ _____    ______ ____
ROOT
ATOM      1  N   UNL     1       4.810  -7.899 -15.278  0.00  0.00    -0.354 N 
ATOM      2  N   UNL     1       6.978  -7.713 -16.074  0.00  0.00    -0.372 N 
ATOM      3  N   UNL     1       6.137  -9.800 -15.622  0.00  0.00    -0.372 N 
ATOM      4  C   UNL     1       5.961  -8.475 -15.652  0.00  0.00    +0.166 C 
ATOM      5  H   UNL     1       4.751  -6.887 -15.296  0.00  0.00    +0.163 HD
ATOM      6  H   UNL     1       7.856  -8.119 -16.366  0.00  0.00    +0.159 HD
ATOM      7  H   UNL     1       6.899  -6.705 -16.134  0.00  0.00    +0.159 HD
ATOM      8  H   UNL     1       5.411 -10.430 -15.309  0.00  0.00    +0.159 HD
ATOM      9  H   UNL     1       7.013 -10.224 -15.899  0.00  0.00    +0.159 HD
ENDROOT
BRANCH   1  10
ATOM     10  C   UNL     1       3.624  -8.641 -14.855  0.00  0.00    +0.151 C 
BRANCH  10  11
ATOM     11  C   UNL     1       2.763  -7.748 -14.006  0.00  0.00    -0.028 A 
ATOM     12  C   UNL     1       2.986  -6.363 -13.975  0.00  0.00    +0.005 A 
ATOM     13  C   UNL     1       1.719  -8.279 -13.233  0.00  0.00    +0.005 A 
ATOM     14  C   UNL     1       2.167  -5.530 -13.210  0.00  0.00    +0.000 A 
ATOM     15  C   UNL     1       0.904  -7.443 -12.469  0.00  0.00    +0.000 A 
ATOM     16  C   UNL     1       1.127  -6.069 -12.460  0.00  0.00    +0.000 A 
ENDBRANCH  10  11
ENDBRANCH   1  10
TORSDOF 2
ENDMDL
MODEL 3
REMARK VINA RESULT:    -5.838      5.176      6.879
REMARK INTER + INTRA:          -6.640
REMARK INTER:                  -6.513
REMARK INTRA:                  -0.127
REMARK UNBOUND:                -0.119
REMARK  Name = 1550473
REMARK  2 active torsions:
REMARK  status: ('A' for Active; 'I' for Inactive)
REMARK    1  A    between atoms: N_1  and  C_4
REMARK    2  A    between atoms: C_4  and  C_5
REMARK                            x       y       z     vdW  Elec       q    Type
REMARK                         _______ _______ _______ _____ _____    ______ ____
ROOT
ATOM      1  N   UNL     1       4.641  -8.339 -15.292  0.00  0.00    -0.354 N 
ATOM      2  N   UNL     1       6.112 -10.063 -15.770  0.00  0.00    -0.372 N 
ATOM      3  N   UNL     1       6.854  -7.897 -15.925  0.00  0.00    -0.372 N 
ATOM      4  C   UNL     1       5.861  -8.753 -15.660  0.00  0.00    +0.166 C 
ATOM      5  H   UNL     1       3.923  -9.037 -15.135  0.00  0.00    +0.163 HD
ATOM      6  H   UNL     1       7.024 -10.405 -16.042  0.00  0.00    +0.159 HD
ATOM      7  H   UNL     1       5.405 -10.760 -15.568  0.00  0.00    +0.159 HD
ATOM      8  H   UNL     1       6.727  -6.895 -15.866  0.00  0.00    +0.159 HD
ATOM      9  H   UNL     1       7.770  -8.220 -16.210  0.00  0.00    +0.159 HD
ENDROOT
BRANCH   1  10
ATOM     10  C   UNL     1       4.279  -6.937 -15.091  0.00  0.00    +0.151 C 
BRANCH  10  11
ATOM     11  C   UNL     1       3.104  -6.862 -14.155  0.00  0.00    -0.028 A 
ATOM     12  C   UNL     1       2.438  -8.029 -13.755  0.00  0.00    +0.005 A 
ATOM     13  C   UNL     1       2.656  -5.628 -13.661  0.00  0.00    +0.005 A 
ATOM     14  C   UNL     1       1.365  -7.963 -12.862  0.00  0.00    +0.000 A 
ATOM     15  C   UNL     1       1.585  -5.566 -12.771  0.00  0.00    +0.000 A 
ATOM     16  C   UNL     1       0.941  -6.734 -12.369  0.00  0.00    +0.000 A 
ENDBRANCH  10  11
ENDBRANCH   1  10
TORSDOF 2
ENDMDL
MODEL 4
REMARK VINA RESULT:    -5.674      5.243      6.946
REMARK INTER + INTRA:          -6.457
REMARK INTER:                  -6.328
REMARK INTRA:                  -0.129
REMARK UNBOUND:                -0.119
REMARK  Name = 1550473
REMARK  2 active torsions:
REMARK  status: ('A' for Active; 'I' for Inactive)
REMARK    1  A    between atoms: N_1  and  C_4
REMARK    2  A    between atoms: C_4  and  C_5
REMARK                            x       y       z     vdW  Elec       q    Type
REMARK                         _______ _______ _______ _____ _____    ______ ____
ROOT
ATOM      1  N   UNL     1       4.180  -9.488 -15.175  0.00  0.00    -0.354 N 
ATOM      2  N   UNL     1       6.160 -10.199 -16.143  0.00  0.00    -0.372 N 
ATOM      3  N   UNL     1       5.051 -11.615 -14.719  0.00  0.00    -0.372 N 
ATOM      4  C   UNL     1       5.117 -10.432 -15.337  0.00  0.00    +0.166 C 
ATOM      5  H   UNL     1       4.303  -8.600 -15.648  0.00  0.00    +0.163 HD
ATOM      6  H   UNL     1       6.881 -10.893 -16.287  0.00  0.00    +0.159 HD
ATOM      7  H   UNL     1       6.258  -9.328 -16.650  0.00  0.00    +0.159 HD
ATOM      8  H   UNL     1       4.292 -11.851 -14.093  0.00  0.00    +0.159 HD
ATOM      9  H   UNL     1       5.768 -12.319 -14.842  0.00  0.00    +0.159 HD
ENDROOT
BRANCH   1  10
ATOM     10  C   UNL     1       2.977  -9.661 -14.363  0.00  0.00    +0.151 C 
BRANCH  10  11
ATOM     11  C   UNL     1       2.522  -8.317 -13.865  0.00  0.00    -0.028 A 
ATOM     12  C   UNL     1       1.465  -8.217 -12.948  0.00  0.00    +0.005 A 
ATOM     13  C   UNL     1       3.148  -7.139 -14.302  0.00  0.00    +0.005 A 
ATOM     14  C   UNL     1       1.062  -6.971 -12.463  0.00  0.00    +0.000 A 
ATOM     15  C   UNL     1       2.742  -5.897 -13.816  0.00  0.00    +0.000 A 
ATOM     16  C   UNL     1       1.701  -5.813 -12.894  0.00  0.00    +0.000 A 
ENDBRANCH  10  11
ENDBRANCH   1  10
TORSDOF 2
ENDMDL
MODEL 5
REMARK VINA RESULT:    -5.128      4.965      6.714
REMARK INTER + INTRA:          -5.847
REMARK INTER:                  -5.723
REMARK INTRA:                  -0.124
REMARK UNBOUND:                -0.119
REMARK  Name = 1550473
REMARK  2 active torsions:
REMARK  status: ('A' for Active; 'I' for Inactive)
REMARK    1  A    between atoms: N_1  and  C_4
REMARK    2  A    between atoms: C_4  and  C_5
REMARK                            x       y       z     vdW  Elec       q    Type
REMARK                         _______ _______ _______ _____ _____    ______ ____
ROOT
ATOM      1  N   UNL     1       4.253  -6.448 -15.714  0.00  0.00    -0.354 N 
ATOM      2  N   UNL     1       5.777  -7.163 -17.305  0.00  0.00    -0.372 N 
ATOM      3  N   UNL     1       5.984  -5.046 -16.445  0.00  0.00    -0.372 N 
ATOM      4  C   UNL     1       5.329  -6.211 -16.478  0.00  0.00    +0.166 C 
ATOM      5  H   UNL     1       3.784  -7.341 -15.808  0.00  0.00    +0.163 HD
ATOM      6  H   UNL     1       6.588  -7.015 -17.891  0.00  0.00    +0.159 HD
ATOM      7  H   UNL     1       5.333  -8.071 -17.363  0.00  0.00    +0.159 HD
ATOM      8  H   UNL     1       5.693  -4.285 -15.846  0.00  0.00    +0.159 HD
ATOM      9  H   UNL     1       6.791  -4.875 -17.032  0.00  0.00    +0.159 HD
ENDROOT
BRANCH   1  10
ATOM     10  C   UNL     1       3.717  -5.498 -14.741  0.00  0.00    +0.151 C 
BRANCH  10  11
ATOM     11  C   UNL     1       2.717  -6.203 -13.867  0.00  0.00    -0.028 A 
ATOM     12  C   UNL     1       1.866  -5.471 -13.025  0.00  0.00    +0.005 A 
ATOM     13  C   UNL     1       2.610  -7.602 -13.880  0.00  0.00    +0.005 A 
ATOM     14  C   UNL     1       0.916  -6.124 -12.236  0.00  0.00    +0.000 A 
ATOM     15  C   UNL     1       1.661  -8.250 -13.089  0.00  0.00    +0.000 A 
ATOM     16  C   UNL     1       0.813  -7.510 -12.269  0.00  0.00    +0.000 A 
ENDBRANCH  10  11
ENDBRANCH   1  10
TORSDOF 2
ENDMDL
MODEL 6
REMARK VINA RESULT:    -4.874     22.085     22.716
REMARK INTER + INTRA:          -5.563
REMARK INTER:                  -5.406
REMARK INTRA:                  -0.157
REMARK UNBOUND:                -0.119
REMARK  Name = 1550473
REMARK  2 active torsions:
REMARK  status: ('A' for Active; 'I' for Inactive)
REMARK    1  A    between atoms: N_1  and  C_4
REMARK    2  A    between atoms: C_4  and  C_5
REMARK                            x       y       z     vdW  Elec       q    Type
REMARK                         _______ _______ _______ _____ _____    ______ ____
ROOT
ATOM      1  N   UNL     1     -14.634  -0.557   5.690  0.00  0.00    -0.354 N 
ATOM      2  N   UNL     1     -14.482  -2.008   7.488  0.00  0.00    -0.372 N 
ATOM      3  N   UNL     1     -13.053  -2.286   5.715  0.00  0.00    -0.372 N 
ATOM      4  C   UNL     1     -14.055  -1.609   6.284  0.00  0.00    +0.166 C 
ATOM      5  H   UNL     1     -15.410  -0.105   6.160  0.00  0.00    +0.163 HD
ATOM      6  H   UNL     1     -14.062  -2.797   7.963  0.00  0.00    +0.159 HD
ATOM      7  H   UNL     1     -15.227  -1.527   7.977  0.00  0.00    +0.159 HD
ATOM      8  H   UNL     1     -12.688  -2.038   4.804  0.00  0.00    +0.159 HD
ATOM      9  H   UNL     1     -12.627  -3.085   6.169  0.00  0.00    +0.159 HD
ENDROOT
BRANCH   1  10
ATOM     10  C   UNL     1     -14.209  -0.008   4.403  0.00  0.00    +0.151 C 
BRANCH  10  11
ATOM     11  C   UNL     1     -15.363  -0.062   3.441  0.00  0.00    -0.028 A 
ATOM     12  C   UNL     1     -15.874  -1.295   3.010  0.00  0.00    +0.005 A 
ATOM     13  C   UNL     1     -15.954   1.117   2.960  0.00  0.00    +0.005 A 
ATOM     14  C   UNL     1     -16.966  -1.345   2.139  0.00  0.00    +0.000 A 
ATOM     15  C   UNL     1     -17.043   1.062   2.091  0.00  0.00    +0.000 A 
ATOM     16  C   UNL     1     -17.550  -0.169   1.682  0.00  0.00    +0.000 A 
ENDBRANCH  10  11
ENDBRANCH   1  10
TORSDOF 2
ENDMDL
MODEL 7
REMARK VINA RESULT:    -4.835     15.363     16.441
REMARK INTER + INTRA:          -5.520
REMARK INTER:                  -5.358
REMARK INTRA:                  -0.162
REMARK UNBOUND:                -0.119
REMARK  Name = 1550473
REMARK  2 active torsions:
REMARK  status: ('A' for Active; 'I' for Inactive)
REMARK    1  A    between atoms: N_1  and  C_4
REMARK    2  A    between atoms: C_4  and  C_5
REMARK                            x       y       z     vdW  Elec       q    Type
REMARK                         _______ _______ _______ _____ _____    ______ ____
ROOT
ATOM      1  N   UNL     1     -15.390   1.901 -13.481  0.00  0.00    -0.354 N 
ATOM      2  N   UNL     1     -16.829   2.239 -11.698  0.00  0.00    -0.372 N 
ATOM      3  N   UNL     1     -14.567   2.371 -11.338  0.00  0.00    -0.372 N 
ATOM      4  C   UNL     1     -15.583   2.168 -12.183  0.00  0.00    +0.166 C 
ATOM      5  H   UNL     1     -16.202   1.727 -14.063  0.00  0.00    +0.163 HD
ATOM      6  H   UNL     1     -17.006   2.443 -10.724  0.00  0.00    +0.159 HD
ATOM      7  H   UNL     1     -17.640   2.111 -12.291  0.00  0.00    +0.159 HD
ATOM      8  H   UNL     1     -13.603   2.325 -11.640  0.00  0.00    +0.159 HD
ATOM      9  H   UNL     1     -14.723   2.564 -10.357  0.00  0.00    +0.159 HD
ENDROOT
BRANCH   1  10
ATOM     10  C   UNL     1     -14.076   1.855 -14.120  0.00  0.00    +0.151 C 
BRANCH  10  11
ATOM     11  C   UNL     1     -13.815   0.456 -14.605  0.00  0.00    -0.028 A 
ATOM     12  C   UNL     1     -13.781   0.173 -15.978  0.00  0.00    +0.005 A 
ATOM     13  C   UNL     1     -13.594  -0.591 -13.696  0.00  0.00    +0.005 A 
ATOM     14  C   UNL     1     -13.508  -1.121 -16.430  0.00  0.00    +0.000 A 
ATOM     15  C   UNL     1     -13.323  -1.881 -14.151  0.00  0.00    +0.000 A 
ATOM     16  C   UNL     1     -13.278  -2.145 -15.518  0.00  0.00    +0.000 A 
ENDBRANCH  10  11
ENDBRANCH   1  10
TORSDOF 2
ENDMDL
MODEL 8
REMARK VINA RESULT:    -4.757      6.098      7.614
REMARK INTER + INTRA:          -5.433
REMARK INTER:                  -5.303
REMARK INTRA:                  -0.130
REMARK UNBOUND:                -0.119
REMARK  Name = 1550473
REMARK  2 active torsions:
REMARK  status: ('A' for Active; 'I' for Inactive)
REMARK    1  A    between atoms: N_1  and  C_4
REMARK    2  A    between atoms: C_4  and  C_5
REMARK                            x       y       z     vdW  Elec       q    Type
REMARK                         _______ _______ _______ _____ _____    ______ ____
ROOT
ATOM      1  N   UNL     1       4.163 -10.866 -15.692  0.00  0.00    -0.354 N 
ATOM      2  N   UNL     1       5.701 -12.457 -15.007  0.00  0.00    -0.372 N 
ATOM      3  N   UNL     1       6.447 -10.359 -15.562  0.00  0.00    -0.372 N 
ATOM      4  C   UNL     1       5.429 -11.215 -15.426  0.00  0.00    +0.166 C 
ATOM      5  H   UNL     1       3.440 -11.570 -15.598  0.00  0.00    +0.163 HD
ATOM      6  H   UNL     1       6.646 -12.748 -14.795  0.00  0.00    +0.159 HD
ATOM      7  H   UNL     1       4.971 -13.145 -14.870  0.00  0.00    +0.159 HD
ATOM      8  H   UNL     1       6.310  -9.409 -15.880  0.00  0.00    +0.159 HD
ATOM      9  H   UNL     1       7.402 -10.635 -15.366  0.00  0.00    +0.159 HD
ENDROOT
BRANCH   1  10
ATOM     10  C   UNL     1       3.754  -9.524 -16.102  0.00  0.00    +0.151 C 
BRANCH  10  11
ATOM     11  C   UNL     1       2.568  -9.099 -15.280  0.00  0.00    -0.028 A 
ATOM     12  C   UNL     1       2.722  -8.776 -13.924  0.00  0.00    +0.005 A 
ATOM     13  C   UNL     1       1.290  -9.013 -15.853  0.00  0.00    +0.005 A 
ATOM     14  C   UNL     1       1.626  -8.353 -13.167  0.00  0.00    +0.000 A 
ATOM     15  C   UNL     1       0.199  -8.591 -15.093  0.00  0.00    +0.000 A 
ATOM     16  C   UNL     1       0.368  -8.259 -13.752  0.00  0.00    +0.000 A 
ENDBRANCH  10  11
ENDBRANCH   1  10
TORSDOF 2
ENDMDL
MODEL 9
REMARK VINA RESULT:    -4.752     17.975     19.181
REMARK INTER + INTRA:          -5.427
REMARK INTER:                  -5.255
REMARK INTRA:                  -0.172
REMARK UNBOUND:                -0.119
REMARK  Name = 1550473
REMARK  2 active torsions:
REMARK  status: ('A' for Active; 'I' for Inactive)
REMARK    1  A    between atoms: N_1  and  C_4
REMARK    2  A    between atoms: C_4  and  C_5
REMARK                            x       y       z     vdW  Elec       q    Type
REMARK                         _______ _______ _______ _____ _____    ______ ____
ROOT
ATOM      1  N   UNL     1      13.029   8.060 -12.161  0.00  0.00    -0.354 N 
ATOM      2  N   UNL     1      14.329   6.229 -12.728  0.00  0.00    -0.372 N 
ATOM      3  N   UNL     1      12.068   6.145 -13.110  0.00  0.00    -0.372 N 
ATOM      4  C   UNL     1      13.131   6.822 -12.663  0.00  0.00    +0.166 C 
ATOM      5  H   UNL     1      13.868   8.508 -11.811  0.00  0.00    +0.163 HD
ATOM      6  H   UNL     1      14.437   5.297 -13.105  0.00  0.00    +0.159 HD
ATOM      7  H   UNL     1      15.173   6.696 -12.420  0.00  0.00    +0.159 HD
ATOM      8  H   UNL     1      11.135   6.534 -13.084  0.00  0.00    +0.159 HD
ATOM      9  H   UNL     1      12.154   5.207 -13.481  0.00  0.00    +0.159 HD
ENDROOT
BRANCH   1  10
ATOM     10  C   UNL     1      11.779   8.816 -12.096  0.00  0.00    +0.151 C 
BRANCH  10  11
ATOM     11  C   UNL     1      11.367   8.958 -10.657  0.00  0.00    -0.028 A 
ATOM     12  C   UNL     1      11.675  10.124  -9.940  0.00  0.00    +0.005 A 
ATOM     13  C   UNL     1      10.662   7.934 -10.006  0.00  0.00    +0.005 A 
ATOM     14  C   UNL     1      11.265  10.270  -8.613  0.00  0.00    +0.000 A 
ATOM     15  C   UNL     1      10.256   8.083  -8.680  0.00  0.00    +0.000 A 
ATOM     16  C   UNL     1      10.556   9.252  -7.984  0.00  0.00    +0.000 A 
ENDBRANCH  10  11
ENDBRANCH   1  10
TORSDOF 2
ENDMDL
