MODEL 1
REMARK VINA RESULT:    -4.945      0.000      0.000
REMARK INTER + INTRA:          -5.705
REMARK INTER:                  -5.523
REMARK INTRA:                  -0.182
REMARK UNBOUND:                -0.182
REMARK  Name = 1550473
REMARK  2 active torsions:
REMARK  status: ('A' for Active; 'I' for Inactive)
REMARK    1  A    between atoms: N_1  and  C_4
REMARK    2  A    between atoms: C_4  and  C_5
REMARK                            x       y       z     vdW  Elec       q    Type
REMARK                         _______ _______ _______ _____ _____    ______ ____
ROOT
ATOM      1  N   UNL     1      -3.756   5.309  -6.340  0.00  0.00    -0.354 N 
ATOM      2  N   UNL     1      -5.186   5.388  -8.160  0.00  0.00    -0.372 N 
ATOM      3  N   UNL     1      -3.349   4.015  -8.251  0.00  0.00    -0.372 N 
ATOM      4  C   UNL     1      -4.085   4.902  -7.573  0.00  0.00    +0.166 C 
ATOM      5  H   UNL     1      -4.339   6.007  -5.891  0.00  0.00    +0.163 HD
ATOM      6  H   UNL     1      -5.462   5.097  -9.088  0.00  0.00    +0.159 HD
ATOM      7  H   UNL     1      -5.792   6.050  -7.691  0.00  0.00    +0.159 HD
ATOM      8  H   UNL     1      -2.504   3.615  -7.866  0.00  0.00    +0.159 HD
ATOM      9  H   UNL     1      -3.603   3.720  -9.186  0.00  0.00    +0.159 HD
ENDROOT
BRANCH   1  10
ATOM     10  C   UNL     1      -2.608   4.801  -5.591  0.00  0.00    +0.151 C 
BRANCH  10  11
ATOM     11  C   UNL     1      -3.084   3.779  -4.597  0.00  0.00    -0.028 A 
ATOM     12  C   UNL     1      -3.616   4.179  -3.362  0.00  0.00    +0.005 A 
ATOM     13  C   UNL     1      -3.011   2.407  -4.885  0.00  0.00    +0.005 A 
ATOM     14  C   UNL     1      -4.087   3.231  -2.451  0.00  0.00    +0.000 A 
ATOM     15  C   UNL     1      -3.481   1.463  -3.972  0.00  0.00    +0.000 A 
ATOM     16  C   UNL     1      -4.021   1.876  -2.756  0.00  0.00    +0.000 A 
ENDBRANCH  10  11
ENDBRANCH   1  10
TORSDOF 2
ENDMDL
MODEL 2
REMARK VINA RESULT:    -4.800     10.654     12.149
REMARK INTER + INTRA:          -5.543
REMARK INTER:                  -5.373
REMARK INTRA:                  -0.170
REMARK UNBOUND:                -0.182
REMARK  Name = 1550473
REMARK  2 active torsions:
REMARK  status: ('A' for Active; 'I' for Inactive)
REMARK    1  A    between atoms: N_1  and  C_4
REMARK    2  A    between atoms: C_4  and  C_5
REMARK                            x       y       z     vdW  Elec       q    Type
REMARK                         _______ _______ _______ _____ _____    ______ ____
ROOT
ATOM      1  N   UNL     1       4.466   2.483 -10.058  0.00  0.00    -0.354 N 
ATOM      2  N   UNL     1       4.363   0.902  -8.369  0.00  0.00    -0.372 N 
ATOM      3  N   UNL     1       5.642   2.781  -8.053  0.00  0.00    -0.372 N 
ATOM      4  C   UNL     1       4.826   2.067  -8.836  0.00  0.00    +0.166 C 
ATOM      5  H   UNL     1       3.869   1.882 -10.614  0.00  0.00    +0.163 HD
ATOM      6  H   UNL     1       4.615   0.564  -7.450  0.00  0.00    +0.159 HD
ATOM      7  H   UNL     1       3.730   0.325  -8.909  0.00  0.00    +0.159 HD
ATOM      8  H   UNL     1       6.031   3.666  -8.349  0.00  0.00    +0.159 HD
ATOM      9  H   UNL     1       5.915   2.454  -7.134  0.00  0.00    +0.159 HD
ENDROOT
BRANCH   1  10
ATOM     10  C   UNL     1       4.872   3.762 -10.639  0.00  0.00    +0.151 C 
BRANCH  10  11
ATOM     11  C   UNL     1       6.051   3.537 -11.545  0.00  0.00    -0.028 A 
ATOM     12  C   UNL     1       7.353   3.810 -11.099  0.00  0.00    +0.005 A 
ATOM     13  C   UNL     1       5.874   3.047 -12.848  0.00  0.00    +0.005 A 
ATOM     14  C   UNL     1       8.451   3.573 -11.930  0.00  0.00    +0.000 A 
ATOM     15  C   UNL     1       6.973   2.813 -13.674  0.00  0.00    +0.000 A 
ATOM     16  C   UNL     1       8.261   3.074 -13.214  0.00  0.00    +0.000 A 
ENDBRANCH  10  11
ENDBRANCH   1  10
TORSDOF 2
ENDMDL
MODEL 3
REMARK VINA RESULT:    -4.698     11.174     12.419
REMARK INTER + INTRA:          -5.429
REMARK INTER:                  -5.324
REMARK INTRA:                  -0.105
REMARK UNBOUND:                -0.182
REMARK  Name = 1550473
REMARK  2 active torsions:
REMARK  status: ('A' for Active; 'I' for Inactive)
REMARK    1  A    between atoms: N_1  and  C_4
REMARK    2  A    between atoms: C_4  and  C_5
REMARK                            x       y       z     vdW  Elec       q    Type
REMARK                         _______ _______ _______ _____ _____    ______ ____
ROOT
ATOM      1  N   UNL     1       6.816   1.225 -13.307  0.00  0.00    -0.354 N 
ATOM      2  N   UNL     1       8.415   0.841 -14.938  0.00  0.00    -0.372 N 
ATOM      3  N   UNL     1       6.204   0.920 -15.548  0.00  0.00    -0.372 N 
ATOM      4  C   UNL     1       7.132   0.997 -14.589  0.00  0.00    +0.166 C 
ATOM      5  H   UNL     1       7.563   1.242 -12.622  0.00  0.00    +0.163 HD
ATOM      6  H   UNL     1       8.684   0.672 -15.898  0.00  0.00    +0.159 HD
ATOM      7  H   UNL     1       9.163   0.905 -14.259  0.00  0.00    +0.159 HD
ATOM      8  H   UNL     1       5.218   1.023 -15.350  0.00  0.00    +0.159 HD
ATOM      9  H   UNL     1       6.453   0.739 -16.513  0.00  0.00    +0.159 HD
ENDROOT
BRANCH   1  10
ATOM     10  C   UNL     1       5.454   1.462 -12.830  0.00  0.00    +0.151 C 
BRANCH  10  11
ATOM     11  C   UNL     1       5.510   2.281 -11.571  0.00  0.00    -0.028 A 
ATOM     12  C   UNL     1       5.260   1.689 -10.324  0.00  0.00    +0.005 A 
ATOM     13  C   UNL     1       5.820   3.649 -11.616  0.00  0.00    +0.005 A 
ATOM     14  C   UNL     1       5.341   2.443  -9.151  0.00  0.00    +0.000 A 
ATOM     15  C   UNL     1       5.899   4.399 -10.442  0.00  0.00    +0.000 A 
ATOM     16  C   UNL     1       5.663   3.795  -9.210  0.00  0.00    +0.000 A 
ENDBRANCH  10  11
ENDBRANCH   1  10
TORSDOF 2
ENDMDL
MODEL 4
REMARK VINA RESULT:    -4.581     10.040     11.003
REMARK INTER + INTRA:          -5.298
REMARK INTER:                  -5.139
REMARK INTRA:                  -0.160
REMARK UNBOUND:                -0.182
REMARK  Name = 1550473
REMARK  2 active torsions:
REMARK  status: ('A' for Active; 'I' for Inactive)
REMARK    1  A    between atoms: N_1  and  C_4
REMARK    2  A    between atoms: C_4  and  C_5
REMARK                            x       y       z     vdW  Elec       q    Type
REMARK                         _______ _______ _______ _____ _____    ______ ____
ROOT
ATOM      1  N   UNL     1       3.663   1.086 -12.639  0.00  0.00    -0.354 N 
ATOM      2  N   UNL     1       2.252   1.520 -14.423  0.00  0.00    -0.372 N 
ATOM      3  N   UNL     1       4.506   1.336 -14.812  0.00  0.00    -0.372 N 
ATOM      4  C   UNL     1       3.486   1.311 -13.948  0.00  0.00    +0.166 C 
ATOM      5  H   UNL     1       2.852   1.110 -12.032  0.00  0.00    +0.163 HD
ATOM      6  H   UNL     1       2.087   1.690 -15.406  0.00  0.00    +0.159 HD
ATOM      7  H   UNL     1       1.438   1.498 -13.821  0.00  0.00    +0.159 HD
ATOM      8  H   UNL     1       5.462   1.192 -14.515  0.00  0.00    +0.159 HD
ATOM      9  H   UNL     1       4.362   1.516 -15.797  0.00  0.00    +0.159 HD
ENDROOT
BRANCH   1  10
ATOM     10  C   UNL     1       4.959   0.794 -12.029  0.00  0.00    +0.151 C 
BRANCH  10  11
ATOM     11  C   UNL     1       5.282   1.867 -11.026  0.00  0.00    -0.028 A 
ATOM     12  C   UNL     1       5.812   3.096 -11.444  0.00  0.00    +0.005 A 
ATOM     13  C   UNL     1       5.056   1.662  -9.656  0.00  0.00    +0.005 A 
ATOM     14  C   UNL     1       6.084   4.104 -10.516  0.00  0.00    +0.000 A 
ATOM     15  C   UNL     1       5.330   2.671  -8.732  0.00  0.00    +0.000 A 
ATOM     16  C   UNL     1       5.842   3.893  -9.163  0.00  0.00    +0.000 A 
ENDBRANCH  10  11
ENDBRANCH   1  10
TORSDOF 2
ENDMDL
MODEL 5
REMARK VINA RESULT:    -4.392      1.956      2.760
REMARK INTER + INTRA:          -5.088
REMARK INTER:                  -4.944
REMARK INTRA:                  -0.144
REMARK UNBOUND:                -0.182
REMARK  Name = 1550473
REMARK  2 active torsions:
REMARK  status: ('A' for Active; 'I' for Inactive)
REMARK    1  A    between atoms: N_1  and  C_4
REMARK    2  A    between atoms: C_4  and  C_5
REMARK                            x       y       z     vdW  Elec       q    Type
REMARK                         _______ _______ _______ _____ _____    ______ ____
ROOT
ATOM      1  N   UNL     1      -3.943   6.480  -7.223  0.00  0.00    -0.354 N 
ATOM      2  N   UNL     1      -3.509   8.741  -7.478  0.00  0.00    -0.372 N 
ATOM      3  N   UNL     1      -2.321   7.234  -8.736  0.00  0.00    -0.372 N 
ATOM      4  C   UNL     1      -3.258   7.469  -7.812  0.00  0.00    +0.166 C 
ATOM      5  H   UNL     1      -4.620   6.723  -6.508  0.00  0.00    +0.163 HD
ATOM      6  H   UNL     1      -3.010   9.508  -7.908  0.00  0.00    +0.159 HD
ATOM      7  H   UNL     1      -4.218   8.983  -6.796  0.00  0.00    +0.159 HD
ATOM      8  H   UNL     1      -2.080   6.296  -9.029  0.00  0.00    +0.159 HD
ATOM      9  H   UNL     1      -1.803   7.988  -9.170  0.00  0.00    +0.159 HD
ENDROOT
BRANCH   1  10
ATOM     10  C   UNL     1      -3.785   5.065  -7.554  0.00  0.00    +0.151 C 
BRANCH  10  11
ATOM     11  C   UNL     1      -3.451   4.302  -6.302  0.00  0.00    -0.028 A 
ATOM     12  C   UNL     1      -2.773   3.076  -6.375  0.00  0.00    +0.005 A 
ATOM     13  C   UNL     1      -3.806   4.801  -5.040  0.00  0.00    +0.005 A 
ATOM     14  C   UNL     1      -2.437   2.381  -5.211  0.00  0.00    +0.000 A 
ATOM     15  C   UNL     1      -3.469   4.104  -3.880  0.00  0.00    +0.000 A 
ATOM     16  C   UNL     1      -2.782   2.895  -3.966  0.00  0.00    +0.000 A 
ENDBRANCH  10  11
ENDBRANCH   1  10
TORSDOF 2
ENDMDL
MODEL 6
REMARK VINA RESULT:    -4.180     11.874     13.070
REMARK INTER + INTRA:          -4.851
REMARK INTER:                  -4.713
REMARK INTRA:                  -0.139
REMARK UNBOUND:                -0.182
REMARK  Name = 1550473
REMARK  2 active torsions:
REMARK  status: ('A' for Active; 'I' for Inactive)
REMARK    1  A    between atoms: N_1  and  C_4
REMARK    2  A    between atoms: C_4  and  C_5
REMARK                            x       y       z     vdW  Elec       q    Type
REMARK                         _______ _______ _______ _____ _____    ______ ____
ROOT
ATOM      1  N   UNL     1       8.316   2.938 -13.060  0.00  0.00    -0.354 N 
ATOM      2  N   UNL     1       9.605   1.650 -14.490  0.00  0.00    -0.372 N 
ATOM      3  N   UNL     1      10.523   2.371 -12.514  0.00  0.00    -0.372 N 
ATOM      4  C   UNL     1       9.475   2.329 -13.343  0.00  0.00    +0.166 C 
ATOM      5  H   UNL     1       7.569   2.894 -13.744  0.00  0.00    +0.163 HD
ATOM      6  H   UNL     1      10.466   1.177 -14.729  0.00  0.00    +0.159 HD
ATOM      7  H   UNL     1       8.842   1.569 -15.151  0.00  0.00    +0.159 HD
ATOM      8  H   UNL     1      10.492   2.871 -11.636  0.00  0.00    +0.159 HD
ATOM      9  H   UNL     1      11.397   1.914 -12.742  0.00  0.00    +0.159 HD
ENDROOT
BRANCH   1  10
ATOM     10  C   UNL     1       8.053   3.658 -11.815  0.00  0.00    +0.151 C 
BRANCH  10  11
ATOM     11  C   UNL     1       6.801   3.111 -11.187  0.00  0.00    -0.028 A 
ATOM     12  C   UNL     1       6.162   1.989 -11.733  0.00  0.00    +0.005 A 
ATOM     13  C   UNL     1       6.252   3.708 -10.041  0.00  0.00    +0.005 A 
ATOM     14  C   UNL     1       5.016   1.463 -11.132  0.00  0.00    +0.000 A 
ATOM     15  C   UNL     1       5.107   3.180  -9.445  0.00  0.00    +0.000 A 
ATOM     16  C   UNL     1       4.491   2.056  -9.989  0.00  0.00    +0.000 A 
ENDBRANCH  10  11
ENDBRANCH   1  10
TORSDOF 2
ENDMDL
MODEL 7
REMARK VINA RESULT:    -4.078      2.425      4.921
REMARK INTER + INTRA:          -4.737
REMARK INTER:                  -4.623
REMARK INTRA:                  -0.114
REMARK UNBOUND:                -0.182
REMARK  Name = 1550473
REMARK  2 active torsions:
REMARK  status: ('A' for Active; 'I' for Inactive)
REMARK    1  A    between atoms: N_1  and  C_4
REMARK    2  A    between atoms: C_4  and  C_5
REMARK                            x       y       z     vdW  Elec       q    Type
REMARK                         _______ _______ _______ _____ _____    ______ ____
ROOT
ATOM      1  N   UNL     1      -2.920   4.167  -4.902  0.00  0.00    -0.354 N 
ATOM      2  N   UNL     1      -3.133   2.261  -3.604  0.00  0.00    -0.372 N 
ATOM      3  N   UNL     1      -1.908   2.152  -5.541  0.00  0.00    -0.372 N 
ATOM      4  C   UNL     1      -2.651   2.871  -4.693  0.00  0.00    +0.166 C 
ATOM      5  H   UNL     1      -3.514   4.649  -4.237  0.00  0.00    +0.163 HD
ATOM      6  H   UNL     1      -2.944   1.285  -3.418  0.00  0.00    +0.159 HD
ATOM      7  H   UNL     1      -3.688   2.756  -2.917  0.00  0.00    +0.159 HD
ATOM      8  H   UNL     1      -1.520   2.552  -6.385  0.00  0.00    +0.159 HD
ATOM      9  H   UNL     1      -1.718   1.171  -5.378  0.00  0.00    +0.159 HD
ENDROOT
BRANCH   1  10
ATOM     10  C   UNL     1      -2.399   4.939  -6.029  0.00  0.00    +0.151 C 
BRANCH  10  11
ATOM     11  C   UNL     1      -3.509   5.769  -6.611  0.00  0.00    -0.028 A 
ATOM     12  C   UNL     1      -4.172   5.355  -7.776  0.00  0.00    +0.005 A 
ATOM     13  C   UNL     1      -3.908   6.967  -6.000  0.00  0.00    +0.005 A 
ATOM     14  C   UNL     1      -5.223   6.110  -8.301  0.00  0.00    +0.000 A 
ATOM     15  C   UNL     1      -4.958   7.719  -6.527  0.00  0.00    +0.000 A 
ATOM     16  C   UNL     1      -5.617   7.289  -7.676  0.00  0.00    +0.000 A 
ENDBRANCH  10  11
ENDBRANCH   1  10
TORSDOF 2
ENDMDL
MODEL 8
REMARK VINA RESULT:    -4.046     13.514     14.817
REMARK INTER + INTRA:          -4.701
REMARK INTER:                  -4.567
REMARK INTRA:                  -0.135
REMARK UNBOUND:                -0.182
REMARK  Name = 1550473
REMARK  2 active torsions:
REMARK  status: ('A' for Active; 'I' for Inactive)
REMARK    1  A    between atoms: N_1  and  C_4
REMARK    2  A    between atoms: C_4  and  C_5
REMARK                            x       y       z     vdW  Elec       q    Type
REMARK                         _______ _______ _______ _____ _____    ______ ____
ROOT
ATOM      1  N   UNL     1       4.379  -9.260  -5.043  0.00  0.00    -0.354 N 
ATOM      2  N   UNL     1       2.593 -10.498  -5.846  0.00  0.00    -0.372 N 
ATOM      3  N   UNL     1       2.699 -10.031  -3.602  0.00  0.00    -0.372 N 
ATOM      4  C   UNL     1       3.235  -9.922  -4.822  0.00  0.00    +0.166 C 
ATOM      5  H   UNL     1       4.748  -9.240  -5.987  0.00  0.00    +0.163 HD
ATOM      6  H   UNL     1       1.726 -11.000  -5.710  0.00  0.00    +0.159 HD
ATOM      7  H   UNL     1       2.941 -10.436  -6.795  0.00  0.00    +0.159 HD
ATOM      8  H   UNL     1       3.137  -9.624  -2.786  0.00  0.00    +0.159 HD
ATOM      9  H   UNL     1       1.838 -10.540  -3.444  0.00  0.00    +0.159 HD
ENDROOT
BRANCH   1  10
ATOM     10  C   UNL     1       5.127  -8.552  -4.006  0.00  0.00    +0.151 C 
BRANCH  10  11
ATOM     11  C   UNL     1       5.508  -7.191  -4.518  0.00  0.00    -0.028 A 
ATOM     12  C   UNL     1       6.853  -6.794  -4.554  0.00  0.00    +0.005 A 
ATOM     13  C   UNL     1       4.529  -6.295  -4.974  0.00  0.00    +0.005 A 
ATOM     14  C   UNL     1       7.210  -5.541  -5.058  0.00  0.00    +0.000 A 
ATOM     15  C   UNL     1       4.889  -5.044  -5.475  0.00  0.00    +0.000 A 
ATOM     16  C   UNL     1       6.230  -4.668  -5.519  0.00  0.00    +0.000 A 
ENDBRANCH  10  11
ENDBRANCH   1  10
TORSDOF 2
ENDMDL
MODEL 9
REMARK VINA RESULT:    -3.927      3.018      4.897
REMARK INTER + INTRA:          -4.568
REMARK INTER:                  -4.460
REMARK INTRA:                  -0.108
REMARK UNBOUND:                -0.182
REMARK  Name = 1550473
REMARK  2 active torsions:
REMARK  status: ('A' for Active; 'I' for Inactive)
REMARK    1  A    between atoms: N_1  and  C_4
REMARK    2  A    between atoms: C_4  and  C_5
REMARK                            x       y       z     vdW  Elec       q    Type
REMARK                         _______ _______ _______ _____ _____    ______ ____
ROOT
ATOM      1  N   UNL     1      -3.071   4.068  -5.523  0.00  0.00    -0.354 N 
ATOM      2  N   UNL     1      -1.602   2.298  -5.791  0.00  0.00    -0.372 N 
ATOM      3  N   UNL     1      -3.446   2.017  -4.454  0.00  0.00    -0.372 N 
ATOM      4  C   UNL     1      -2.718   2.805  -5.252  0.00  0.00    +0.166 C 
ATOM      5  H   UNL     1      -2.460   4.624  -6.111  0.00  0.00    +0.163 HD
ATOM      6  H   UNL     1      -1.312   1.347  -5.607  0.00  0.00    +0.159 HD
ATOM      7  H   UNL     1      -1.018   2.840  -6.415  0.00  0.00    +0.159 HD
ATOM      8  H   UNL     1      -4.295   2.341  -4.012  0.00  0.00    +0.159 HD
ATOM      9  H   UNL     1      -3.166   1.066  -4.249  0.00  0.00    +0.159 HD
ENDROOT
BRANCH   1  10
ATOM     10  C   UNL     1      -4.295   4.699  -5.030  0.00  0.00    +0.151 C 
BRANCH  10  11
ATOM     11  C   UNL     1      -4.217   6.180  -5.276  0.00  0.00    -0.028 A 
ATOM     12  C   UNL     1      -3.736   6.675  -6.497  0.00  0.00    +0.005 A 
ATOM     13  C   UNL     1      -4.629   7.095  -4.295  0.00  0.00    +0.005 A 
ATOM     14  C   UNL     1      -3.692   8.050  -6.738  0.00  0.00    +0.000 A 
ATOM     15  C   UNL     1      -4.583   8.467  -4.538  0.00  0.00    +0.000 A 
ATOM     16  C   UNL     1      -4.117   8.945  -5.761  0.00  0.00    +0.000 A 
ENDBRANCH  10  11
ENDBRANCH   1  10
TORSDOF 2
ENDMDL
