MODEL 1
REMARK VINA RESULT:    -5.266      0.000      0.000
REMARK INTER + INTRA:          -6.024
REMARK INTER:                  -5.882
REMARK INTRA:                  -0.142
REMARK UNBOUND:                -0.142
REMARK  Name = 1550473
REMARK  2 active torsions:
REMARK  status: ('A' for Active; 'I' for Inactive)
REMARK    1  A    between atoms: N_1  and  C_4
REMARK    2  A    between atoms: C_4  and  C_5
REMARK                            x       y       z     vdW  Elec       q    Type
REMARK                         _______ _______ _______ _____ _____    ______ ____
ROOT
ATOM      1  N   UNL     1      12.261  -8.933 -12.049  0.00  0.00    -0.354 N 
ATOM      2  N   UNL     1      10.876  -8.942 -13.904  0.00  0.00    -0.372 N 
ATOM      3  N   UNL     1       9.967  -9.366 -11.840  0.00  0.00    -0.372 N 
ATOM      4  C   UNL     1      11.042  -9.081 -12.584  0.00  0.00    +0.166 C 
ATOM      5  H   UNL     1      13.040  -8.747 -12.670  0.00  0.00    +0.163 HD
ATOM      6  H   UNL     1       9.967  -9.045 -14.336  0.00  0.00    +0.159 HD
ATOM      7  H   UNL     1      11.648  -8.712 -14.517  0.00  0.00    +0.159 HD
ATOM      8  H   UNL     1      10.027  -9.489 -10.838  0.00  0.00    +0.159 HD
ATOM      9  H   UNL     1       9.052  -9.484 -12.255  0.00  0.00    +0.159 HD
ENDROOT
BRANCH   1  10
ATOM     10  C   UNL     1      12.540  -9.010 -10.616  0.00  0.00    +0.151 C 
BRANCH  10  11
ATOM     11  C   UNL     1      13.085  -7.688 -10.149  0.00  0.00    -0.028 A 
ATOM     12  C   UNL     1      14.078  -7.027 -10.887  0.00  0.00    +0.005 A 
ATOM     13  C   UNL     1      12.609  -7.089  -8.973  0.00  0.00    +0.005 A 
ATOM     14  C   UNL     1      14.563  -5.785 -10.470  0.00  0.00    +0.000 A 
ATOM     15  C   UNL     1      13.096  -5.849  -8.560  0.00  0.00    +0.000 A 
ATOM     16  C   UNL     1      14.071  -5.197  -9.310  0.00  0.00    +0.000 A 
ENDBRANCH  10  11
ENDBRANCH   1  10
TORSDOF 2
ENDMDL
MODEL 2
REMARK VINA RESULT:    -5.211      0.255      1.475
REMARK INTER + INTRA:          -5.963
REMARK INTER:                  -5.807
REMARK INTRA:                  -0.156
REMARK UNBOUND:                -0.142
REMARK  Name = 1550473
REMARK  2 active torsions:
REMARK  status: ('A' for Active; 'I' for Inactive)
REMARK    1  A    between atoms: N_1  and  C_4
REMARK    2  A    between atoms: C_4  and  C_5
REMARK                            x       y       z     vdW  Elec       q    Type
REMARK                         _______ _______ _______ _____ _____    ______ ____
ROOT
ATOM      1  N   UNL     1      12.151  -9.237 -12.005  0.00  0.00    -0.354 N 
ATOM      2  N   UNL     1      10.884  -9.166 -13.942  0.00  0.00    -0.372 N 
ATOM      3  N   UNL     1       9.810  -9.172 -11.914  0.00  0.00    -0.372 N 
ATOM      4  C   UNL     1      10.955  -9.193 -12.606  0.00  0.00    +0.166 C 
ATOM      5  H   UNL     1      12.980  -9.281 -12.586  0.00  0.00    +0.163 HD
ATOM      6  H   UNL     1       9.995  -9.129 -14.423  0.00  0.00    +0.159 HD
ATOM      7  H   UNL     1      11.715  -9.164 -14.520  0.00  0.00    +0.159 HD
ATOM      8  H   UNL     1       9.795  -9.196 -10.903  0.00  0.00    +0.159 HD
ATOM      9  H   UNL     1       8.911  -9.147 -12.378  0.00  0.00    +0.159 HD
ENDROOT
BRANCH   1  10
ATOM     10  C   UNL     1      12.340  -9.214 -10.555  0.00  0.00    +0.151 C 
BRANCH  10  11
ATOM     11  C   UNL     1      12.931  -7.890 -10.157  0.00  0.00    -0.028 A 
ATOM     12  C   UNL     1      12.508  -7.244  -8.987  0.00  0.00    +0.005 A 
ATOM     13  C   UNL     1      13.919  -7.279 -10.944  0.00  0.00    +0.005 A 
ATOM     14  C   UNL     1      13.078  -6.029  -8.601  0.00  0.00    +0.000 A 
ATOM     15  C   UNL     1      14.486  -6.065 -10.556  0.00  0.00    +0.000 A 
ATOM     16  C   UNL     1      14.067  -5.441  -9.383  0.00  0.00    +0.000 A 
ENDBRANCH  10  11
ENDBRANCH   1  10
TORSDOF 2
ENDMDL
MODEL 3
REMARK VINA RESULT:    -5.146      3.115      5.127
REMARK INTER + INTRA:          -5.890
REMARK INTER:                  -5.799
REMARK INTRA:                  -0.091
REMARK UNBOUND:                -0.142
REMARK  Name = 1550473
REMARK  2 active torsions:
REMARK  status: ('A' for Active; 'I' for Inactive)
REMARK    1  A    between atoms: N_1  and  C_4
REMARK    2  A    between atoms: C_4  and  C_5
REMARK                            x       y       z     vdW  Elec       q    Type
REMARK                         _______ _______ _______ _____ _____    ______ ____
ROOT
ATOM      1  N   UNL     1      14.811  -5.959 -11.210  0.00  0.00    -0.354 N 
ATOM      2  N   UNL     1      15.540  -3.762 -11.307  0.00  0.00    -0.372 N 
ATOM      3  N   UNL     1      16.999  -5.385 -10.599  0.00  0.00    -0.372 N 
ATOM      4  C   UNL     1      15.781  -5.051 -11.037  0.00  0.00    +0.166 C 
ATOM      5  H   UNL     1      13.900  -5.637 -11.516  0.00  0.00    +0.163 HD
ATOM      6  H   UNL     1      16.253  -3.055 -11.189  0.00  0.00    +0.159 HD
ATOM      7  H   UNL     1      14.642  -3.450 -11.656  0.00  0.00    +0.159 HD
ATOM      8  H   UNL     1      17.243  -6.340 -10.372  0.00  0.00    +0.159 HD
ATOM      9  H   UNL     1      17.723  -4.690 -10.463  0.00  0.00    +0.159 HD
ENDROOT
BRANCH   1  10
ATOM     10  C   UNL     1      14.987  -7.394 -10.997  0.00  0.00    +0.151 C 
BRANCH  10  11
ATOM     11  C   UNL     1      13.681  -8.093 -11.260  0.00  0.00    -0.028 A 
ATOM     12  C   UNL     1      12.798  -8.371 -10.206  0.00  0.00    +0.005 A 
ATOM     13  C   UNL     1      13.320  -8.476 -12.561  0.00  0.00    +0.005 A 
ATOM     14  C   UNL     1      11.572  -8.993 -10.454  0.00  0.00    +0.000 A 
ATOM     15  C   UNL     1      12.096  -9.098 -12.804  0.00  0.00    +0.000 A 
ATOM     16  C   UNL     1      11.221  -9.354 -11.751  0.00  0.00    +0.000 A 
ENDBRANCH  10  11
ENDBRANCH   1  10
TORSDOF 2
ENDMDL
MODEL 4
REMARK VINA RESULT:    -5.005      2.285      2.707
REMARK INTER + INTRA:          -5.732
REMARK INTER:                  -5.603
REMARK INTRA:                  -0.129
REMARK UNBOUND:                -0.142
REMARK  Name = 1550473
REMARK  2 active torsions:
REMARK  status: ('A' for Active; 'I' for Inactive)
REMARK    1  A    between atoms: N_1  and  C_4
REMARK    2  A    between atoms: C_4  and  C_5
REMARK                            x       y       z     vdW  Elec       q    Type
REMARK                         _______ _______ _______ _____ _____    ______ ____
ROOT
ATOM      1  N   UNL     1      14.887  -8.313 -12.783  0.00  0.00    -0.354 N 
ATOM      2  N   UNL     1      15.814  -8.371 -14.904  0.00  0.00    -0.372 N 
ATOM      3  N   UNL     1      13.956  -9.646 -14.470  0.00  0.00    -0.372 N 
ATOM      4  C   UNL     1      14.877  -8.778 -14.039  0.00  0.00    +0.166 C 
ATOM      5  H   UNL     1      15.630  -7.680 -12.509  0.00  0.00    +0.163 HD
ATOM      6  H   UNL     1      15.830  -8.702 -15.859  0.00  0.00    +0.159 HD
ATOM      7  H   UNL     1      16.528  -7.703 -14.641  0.00  0.00    +0.159 HD
ATOM      8  H   UNL     1      13.226  -9.997 -13.865  0.00  0.00    +0.159 HD
ATOM      9  H   UNL     1      13.963  -9.998 -15.419  0.00  0.00    +0.159 HD
ENDROOT
BRANCH   1  10
ATOM     10  C   UNL     1      13.881  -8.652 -11.778  0.00  0.00    +0.151 C 
BRANCH  10  11
ATOM     11  C   UNL     1      13.796  -7.537 -10.772  0.00  0.00    -0.028 A 
ATOM     12  C   UNL     1      14.647  -6.426 -10.867  0.00  0.00    +0.005 A 
ATOM     13  C   UNL     1      12.863  -7.583  -9.725  0.00  0.00    +0.005 A 
ATOM     14  C   UNL     1      14.549  -5.376  -9.950  0.00  0.00    +0.000 A 
ATOM     15  C   UNL     1      12.768  -6.533  -8.811  0.00  0.00    +0.000 A 
ATOM     16  C   UNL     1      13.610  -5.429  -8.926  0.00  0.00    +0.000 A 
ENDBRANCH  10  11
ENDBRANCH   1  10
TORSDOF 2
ENDMDL
MODEL 5
REMARK VINA RESULT:    -4.824     15.527     16.745
REMARK INTER + INTRA:          -5.531
REMARK INTER:                  -5.419
REMARK INTRA:                  -0.112
REMARK UNBOUND:                -0.142
REMARK  Name = 1550473
REMARK  2 active torsions:
REMARK  status: ('A' for Active; 'I' for Inactive)
REMARK    1  A    between atoms: N_1  and  C_4
REMARK    2  A    between atoms: C_4  and  C_5
REMARK                            x       y       z     vdW  Elec       q    Type
REMARK                         _______ _______ _______ _____ _____    ______ ____
ROOT
ATOM      1  N   UNL     1       2.477 -13.769   1.383  0.00  0.00    -0.354 N 
ATOM      2  N   UNL     1       1.859 -11.970   2.704  0.00  0.00    -0.372 N 
ATOM      3  N   UNL     1       1.838 -11.730   0.422  0.00  0.00    -0.372 N 
ATOM      4  C   UNL     1       2.062 -12.500   1.492  0.00  0.00    +0.166 C 
ATOM      5  H   UNL     1       2.658 -14.291   2.233  0.00  0.00    +0.163 HD
ATOM      6  H   UNL     1       1.542 -11.017   2.818  0.00  0.00    +0.159 HD
ATOM      7  H   UNL     1       1.996 -12.508   3.551  0.00  0.00    +0.159 HD
ATOM      8  H   UNL     1       1.978 -12.068  -0.520  0.00  0.00    +0.159 HD
ATOM      9  H   UNL     1       1.532 -10.769   0.516  0.00  0.00    +0.159 HD
ENDROOT
BRANCH   1  10
ATOM     10  C   UNL     1       2.676 -14.458   0.110  0.00  0.00    +0.151 C 
BRANCH  10  11
ATOM     11  C   UNL     1       3.824 -15.421   0.246  0.00  0.00    -0.028 A 
ATOM     12  C   UNL     1       4.836 -15.464  -0.724  0.00  0.00    +0.005 A 
ATOM     13  C   UNL     1       3.908 -16.288   1.346  0.00  0.00    +0.005 A 
ATOM     14  C   UNL     1       5.918 -16.337  -0.583  0.00  0.00    +0.000 A 
ATOM     15  C   UNL     1       4.989 -17.159   1.483  0.00  0.00    +0.000 A 
ATOM     16  C   UNL     1       5.995 -17.181   0.520  0.00  0.00    +0.000 A 
ENDBRANCH  10  11
ENDBRANCH   1  10
TORSDOF 2
ENDMDL
MODEL 6
REMARK VINA RESULT:    -4.787      2.610      3.317
REMARK INTER + INTRA:          -5.489
REMARK INTER:                  -5.351
REMARK INTRA:                  -0.139
REMARK UNBOUND:                -0.142
REMARK  Name = 1550473
REMARK  2 active torsions:
REMARK  status: ('A' for Active; 'I' for Inactive)
REMARK    1  A    between atoms: N_1  and  C_4
REMARK    2  A    between atoms: C_4  and  C_5
REMARK                            x       y       z     vdW  Elec       q    Type
REMARK                         _______ _______ _______ _____ _____    ______ ____
ROOT
ATOM      1  N   UNL     1      13.539  -8.492  -8.605  0.00  0.00    -0.354 N 
ATOM      2  N   UNL     1      12.691 -10.626  -8.911  0.00  0.00    -0.372 N 
ATOM      3  N   UNL     1      11.246  -8.844  -8.941  0.00  0.00    -0.372 N 
ATOM      4  C   UNL     1      12.495  -9.305  -8.817  0.00  0.00    +0.166 C 
ATOM      5  H   UNL     1      14.457  -8.907  -8.490  0.00  0.00    +0.163 HD
ATOM      6  H   UNL     1      11.924 -11.264  -9.074  0.00  0.00    +0.159 HD
ATOM      7  H   UNL     1      13.616 -11.034  -8.841  0.00  0.00    +0.159 HD
ATOM      8  H   UNL     1      11.031  -7.858  -8.874  0.00  0.00    +0.159 HD
ATOM      9  H   UNL     1      10.464  -9.467  -9.093  0.00  0.00    +0.159 HD
ENDROOT
BRANCH   1  10
ATOM     10  C   UNL     1      13.441  -7.035  -8.541  0.00  0.00    +0.151 C 
BRANCH  10  11
ATOM     11  C   UNL     1      14.491  -6.432  -9.432  0.00  0.00    -0.028 A 
ATOM     12  C   UNL     1      15.610  -7.182  -9.822  0.00  0.00    +0.005 A 
ATOM     13  C   UNL     1      14.371  -5.112  -9.894  0.00  0.00    +0.005 A 
ATOM     14  C   UNL     1      16.571  -6.633 -10.674  0.00  0.00    +0.000 A 
ATOM     15  C   UNL     1      15.333  -4.567 -10.744  0.00  0.00    +0.000 A 
ATOM     16  C   UNL     1      16.432  -5.328 -11.135  0.00  0.00    +0.000 A 
ENDBRANCH  10  11
ENDBRANCH   1  10
TORSDOF 2
ENDMDL
MODEL 7
REMARK VINA RESULT:    -4.712     29.062     30.304
REMARK INTER + INTRA:          -5.405
REMARK INTER:                  -5.236
REMARK INTRA:                  -0.169
REMARK UNBOUND:                -0.142
REMARK  Name = 1550473
REMARK  2 active torsions:
REMARK  status: ('A' for Active; 'I' for Inactive)
REMARK    1  A    between atoms: N_1  and  C_4
REMARK    2  A    between atoms: C_4  and  C_5
REMARK                            x       y       z     vdW  Elec       q    Type
REMARK                         _______ _______ _______ _____ _____    ______ ____
ROOT
ATOM      1  N   UNL     1      -8.978   6.342   3.150  0.00  0.00    -0.354 N 
ATOM      2  N   UNL     1      -6.909   5.445   2.622  0.00  0.00    -0.372 N 
ATOM      3  N   UNL     1      -7.924   4.814   4.581  0.00  0.00    -0.372 N 
ATOM      4  C   UNL     1      -7.951   5.538   3.457  0.00  0.00    +0.166 C 
ATOM      5  H   UNL     1      -8.925   6.888   2.298  0.00  0.00    +0.163 HD
ATOM      6  H   UNL     1      -6.122   4.845   2.825  0.00  0.00    +0.159 HD
ATOM      7  H   UNL     1      -6.879   5.957   1.748  0.00  0.00    +0.159 HD
ATOM      8  H   UNL     1      -8.676   4.844   5.256  0.00  0.00    +0.159 HD
ATOM      9  H   UNL     1      -7.139   4.216   4.807  0.00  0.00    +0.159 HD
ENDROOT
BRANCH   1  10
ATOM     10  C   UNL     1     -10.185   6.474   3.966  0.00  0.00    +0.151 C 
BRANCH  10  11
ATOM     11  C   UNL     1     -11.336   5.823   3.249  0.00  0.00    -0.028 A 
ATOM     12  C   UNL     1     -11.959   6.469   2.171  0.00  0.00    +0.005 A 
ATOM     13  C   UNL     1     -11.804   4.559   3.639  0.00  0.00    +0.005 A 
ATOM     14  C   UNL     1     -13.009   5.852   1.485  0.00  0.00    +0.000 A 
ATOM     15  C   UNL     1     -12.852   3.947   2.953  0.00  0.00    +0.000 A 
ATOM     16  C   UNL     1     -13.453   4.593   1.874  0.00  0.00    +0.000 A 
ENDBRANCH  10  11
ENDBRANCH   1  10
TORSDOF 2
ENDMDL
MODEL 8
REMARK VINA RESULT:    -4.542      4.853      6.176
REMARK INTER + INTRA:          -5.216
REMARK INTER:                  -5.111
REMARK INTRA:                  -0.105
REMARK UNBOUND:                -0.142
REMARK  Name = 1550473
REMARK  2 active torsions:
REMARK  status: ('A' for Active; 'I' for Inactive)
REMARK    1  A    between atoms: N_1  and  C_4
REMARK    2  A    between atoms: C_4  and  C_5
REMARK                            x       y       z     vdW  Elec       q    Type
REMARK                         _______ _______ _______ _____ _____    ______ ____
ROOT
ATOM      1  N   UNL     1      18.533  -7.659  -9.779  0.00  0.00    -0.354 N 
ATOM      2  N   UNL     1      20.743  -7.633  -9.085  0.00  0.00    -0.372 N 
ATOM      3  N   UNL     1      20.269  -8.206 -11.256  0.00  0.00    -0.372 N 
ATOM      4  C   UNL     1      19.834  -7.834 -10.047  0.00  0.00    +0.166 C 
ATOM      5  H   UNL     1      18.267  -7.405  -8.835  0.00  0.00    +0.163 HD
ATOM      6  H   UNL     1      21.732  -7.754  -9.259  0.00  0.00    +0.159 HD
ATOM      7  H   UNL     1      20.477  -7.335  -8.155  0.00  0.00    +0.159 HD
ATOM      8  H   UNL     1      19.634  -8.380 -12.023  0.00  0.00    +0.159 HD
ATOM      9  H   UNL     1      21.254  -8.344 -11.446  0.00  0.00    +0.159 HD
ENDROOT
BRANCH   1  10
ATOM     10  C   UNL     1      17.468  -7.800 -10.770  0.00  0.00    +0.151 C 
BRANCH  10  11
ATOM     11  C   UNL     1      16.382  -6.804 -10.469  0.00  0.00    -0.028 A 
ATOM     12  C   UNL     1      16.437  -5.508 -11.003  0.00  0.00    +0.005 A 
ATOM     13  C   UNL     1      15.293  -7.152  -9.656  0.00  0.00    +0.005 A 
ATOM     14  C   UNL     1      15.414  -4.592 -10.748  0.00  0.00    +0.000 A 
ATOM     15  C   UNL     1      14.274  -6.234  -9.403  0.00  0.00    +0.000 A 
ATOM     16  C   UNL     1      14.333  -4.955  -9.952  0.00  0.00    +0.000 A 
ENDBRANCH  10  11
ENDBRANCH   1  10
TORSDOF 2
ENDMDL
MODEL 9
REMARK VINA RESULT:    -4.389     26.563     27.624
REMARK INTER + INTRA:          -5.044
REMARK INTER:                  -4.913
REMARK INTRA:                  -0.131
REMARK UNBOUND:                -0.142
REMARK  Name = 1550473
REMARK  2 active torsions:
REMARK  status: ('A' for Active; 'I' for Inactive)
REMARK    1  A    between atoms: N_1  and  C_4
REMARK    2  A    between atoms: C_4  and  C_5
REMARK                            x       y       z     vdW  Elec       q    Type
REMARK                         _______ _______ _______ _____ _____    ______ ____
ROOT
ATOM      1  N   UNL     1     -11.517 -10.367   2.340  0.00  0.00    -0.354 N 
ATOM      2  N   UNL     1     -10.804  -9.943   4.502  0.00  0.00    -0.372 N 
ATOM      3  N   UNL     1      -9.279 -10.689   2.958  0.00  0.00    -0.372 N 
ATOM      4  C   UNL     1     -10.536 -10.337   3.252  0.00  0.00    +0.166 C 
ATOM      5  H   UNL     1     -12.454 -10.116   2.633  0.00  0.00    +0.163 HD
ATOM      6  H   UNL     1     -10.084  -9.907   5.211  0.00  0.00    +0.159 HD
ATOM      7  H   UNL     1     -11.733  -9.650   4.781  0.00  0.00    +0.159 HD
ATOM      8  H   UNL     1      -9.013 -11.001   2.034  0.00  0.00    +0.159 HD
ATOM      9  H   UNL     1      -8.547 -10.671   3.657  0.00  0.00    +0.159 HD
ENDROOT
BRANCH   1  10
ATOM     10  C   UNL     1     -11.319 -10.728   0.937  0.00  0.00    +0.151 C 
BRANCH  10  11
ATOM     11  C   UNL     1     -12.207  -9.870   0.079  0.00  0.00    -0.028 A 
ATOM     12  C   UNL     1     -12.011  -9.807  -1.309  0.00  0.00    +0.005 A 
ATOM     13  C   UNL     1     -13.251  -9.123   0.646  0.00  0.00    +0.005 A 
ATOM     14  C   UNL     1     -12.854  -9.034  -2.110  0.00  0.00    +0.000 A 
ATOM     15  C   UNL     1     -14.091  -8.352  -0.158  0.00  0.00    +0.000 A 
ATOM     16  C   UNL     1     -13.894  -8.310  -1.536  0.00  0.00    +0.000 A 
ENDBRANCH  10  11
ENDBRANCH   1  10
TORSDOF 2
ENDMDL
