MODEL 1
REMARK VINA RESULT:    -5.773      0.000      0.000
REMARK INTER + INTRA:          -6.579
REMARK INTER:                  -6.448
REMARK INTRA:                  -0.131
REMARK UNBOUND:                -0.131
REMARK  Name = 1550473
REMARK  2 active torsions:
REMARK  status: ('A' for Active; 'I' for Inactive)
REMARK    1  A    between atoms: N_1  and  C_4
REMARK    2  A    between atoms: C_4  and  C_5
REMARK                            x       y       z     vdW  Elec       q    Type
REMARK                         _______ _______ _______ _____ _____    ______ ____
ROOT
ATOM      1  N   UNL     1      -5.246  11.256  11.766  0.00  0.00    -0.354 N 
ATOM      2  N   UNL     1      -7.338  11.343  10.775  0.00  0.00    -0.372 N 
ATOM      3  N   UNL     1      -7.156  10.524  12.911  0.00  0.00    -0.372 N 
ATOM      4  C   UNL     1      -6.567  11.039  11.826  0.00  0.00    +0.166 C 
ATOM      5  H   UNL     1      -4.857  11.620  10.904  0.00  0.00    +0.163 HD
ATOM      6  H   UNL     1      -8.338  11.194  10.792  0.00  0.00    +0.159 HD
ATOM      7  H   UNL     1      -6.953  11.750   9.932  0.00  0.00    +0.159 HD
ATOM      8  H   UNL     1      -6.629  10.268  13.735  0.00  0.00    +0.159 HD
ATOM      9  H   UNL     1      -8.154  10.357  12.943  0.00  0.00    +0.159 HD
ENDROOT
BRANCH   1  10
ATOM     10  C   UNL     1      -4.326  11.009  12.874  0.00  0.00    +0.151 C 
BRANCH  10  11
ATOM     11  C   UNL     1      -2.961  10.705  12.321  0.00  0.00    -0.028 A 
ATOM     12  C   UNL     1      -2.784  10.475  10.949  0.00  0.00    +0.005 A 
ATOM     13  C   UNL     1      -1.840  10.651  13.163  0.00  0.00    +0.005 A 
ATOM     14  C   UNL     1      -1.512  10.222  10.430  0.00  0.00    +0.000 A 
ATOM     15  C   UNL     1      -0.571  10.397  12.642  0.00  0.00    +0.000 A 
ATOM     16  C   UNL     1      -0.407  10.185  11.275  0.00  0.00    +0.000 A 
ENDBRANCH  10  11
ENDBRANCH   1  10
TORSDOF 2
ENDMDL
MODEL 2
REMARK VINA RESULT:    -5.734      2.313      2.960
REMARK INTER + INTRA:          -6.536
REMARK INTER:                  -6.373
REMARK INTRA:                  -0.163
REMARK UNBOUND:                -0.131
REMARK  Name = 1550473
REMARK  2 active torsions:
REMARK  status: ('A' for Active; 'I' for Inactive)
REMARK    1  A    between atoms: N_1  and  C_4
REMARK    2  A    between atoms: C_4  and  C_5
REMARK                            x       y       z     vdW  Elec       q    Type
REMARK                         _______ _______ _______ _____ _____    ______ ____
ROOT
ATOM      1  N   UNL     1      -3.872  11.087  13.082  0.00  0.00    -0.354 N 
ATOM      2  N   UNL     1      -6.131  11.298  12.619  0.00  0.00    -0.372 N 
ATOM      3  N   UNL     1      -4.715  10.617  10.946  0.00  0.00    -0.372 N 
ATOM      4  C   UNL     1      -4.890  10.999  12.216  0.00  0.00    +0.166 C 
ATOM      5  H   UNL     1      -4.066  11.411  14.022  0.00  0.00    +0.163 HD
ATOM      6  H   UNL     1      -6.920  11.237  11.989  0.00  0.00    +0.159 HD
ATOM      7  H   UNL     1      -6.329  11.577  13.572  0.00  0.00    +0.159 HD
ATOM      8  H   UNL     1      -3.802  10.384  10.579  0.00  0.00    +0.159 HD
ATOM      9  H   UNL     1      -5.490  10.562  10.298  0.00  0.00    +0.159 HD
ENDROOT
BRANCH   1  10
ATOM     10  C   UNL     1      -2.491  10.732  12.759  0.00  0.00    +0.151 C 
BRANCH  10  11
ATOM     11  C   UNL     1      -1.750  11.972  12.340  0.00  0.00    -0.028 A 
ATOM     12  C   UNL     1      -1.872  13.158  13.080  0.00  0.00    +0.005 A 
ATOM     13  C   UNL     1      -0.921  11.967  11.209  0.00  0.00    +0.005 A 
ATOM     14  C   UNL     1      -1.161  14.302  12.708  0.00  0.00    +0.000 A 
ATOM     15  C   UNL     1      -0.213  13.111  10.841  0.00  0.00    +0.000 A 
ATOM     16  C   UNL     1      -0.332  14.278  11.592  0.00  0.00    +0.000 A 
ENDBRANCH  10  11
ENDBRANCH   1  10
TORSDOF 2
ENDMDL
MODEL 3
REMARK VINA RESULT:    -5.678      0.165      1.463
REMARK INTER + INTRA:          -6.473
REMARK INTER:                  -6.348
REMARK INTRA:                  -0.125
REMARK UNBOUND:                -0.131
REMARK  Name = 1550473
REMARK  2 active torsions:
REMARK  status: ('A' for Active; 'I' for Inactive)
REMARK    1  A    between atoms: N_1  and  C_4
REMARK    2  A    between atoms: C_4  and  C_5
REMARK                            x       y       z     vdW  Elec       q    Type
REMARK                         _______ _______ _______ _____ _____    ______ ____
ROOT
ATOM      1  N   UNL     1      -5.265  11.190  11.635  0.00  0.00    -0.354 N 
ATOM      2  N   UNL     1      -7.307  11.527  10.594  0.00  0.00    -0.372 N 
ATOM      3  N   UNL     1      -7.274  10.632  12.706  0.00  0.00    -0.372 N 
ATOM      4  C   UNL     1      -6.603  11.113  11.654  0.00  0.00    +0.166 C 
ATOM      5  H   UNL     1      -4.815  11.535  10.795  0.00  0.00    +0.163 HD
ATOM      6  H   UNL     1      -8.317  11.484  10.581  0.00  0.00    +0.159 HD
ATOM      7  H   UNL     1      -6.856  11.915   9.774  0.00  0.00    +0.159 HD
ATOM      8  H   UNL     1      -6.801  10.298  13.536  0.00  0.00    +0.159 HD
ATOM      9  H   UNL     1      -8.284  10.570  12.708  0.00  0.00    +0.159 HD
ENDROOT
BRANCH   1  10
ATOM     10  C   UNL     1      -4.409  10.815  12.759  0.00  0.00    +0.151 C 
BRANCH  10  11
ATOM     11  C   UNL     1      -3.006  10.608  12.259  0.00  0.00    -0.028 A 
ATOM     12  C   UNL     1      -1.926  10.591  13.154  0.00  0.00    +0.005 A 
ATOM     13  C   UNL     1      -2.750  10.421  10.892  0.00  0.00    +0.005 A 
ATOM     14  C   UNL     1      -0.626  10.369  12.694  0.00  0.00    +0.000 A 
ATOM     15  C   UNL     1      -1.450  10.200  10.436  0.00  0.00    +0.000 A 
ATOM     16  C   UNL     1      -0.389  10.171  11.337  0.00  0.00    +0.000 A 
ENDBRANCH  10  11
ENDBRANCH   1  10
TORSDOF 2
ENDMDL
MODEL 4
REMARK VINA RESULT:    -5.430      4.086      5.062
REMARK INTER + INTRA:          -6.195
REMARK INTER:                  -6.095
REMARK INTRA:                  -0.101
REMARK UNBOUND:                -0.131
REMARK  Name = 1550473
REMARK  2 active torsions:
REMARK  status: ('A' for Active; 'I' for Inactive)
REMARK    1  A    between atoms: N_1  and  C_4
REMARK    2  A    between atoms: C_4  and  C_5
REMARK                            x       y       z     vdW  Elec       q    Type
REMARK                         _______ _______ _______ _____ _____    ______ ____
ROOT
ATOM      1  N   UNL     1      -1.372  14.638  13.676  0.00  0.00    -0.354 N 
ATOM      2  N   UNL     1      -1.212  16.138  15.434  0.00  0.00    -0.372 N 
ATOM      3  N   UNL     1      -2.181  16.828  13.472  0.00  0.00    -0.372 N 
ATOM      4  C   UNL     1      -1.591  15.860  14.180  0.00  0.00    +0.166 C 
ATOM      5  H   UNL     1      -0.893  13.957  14.254  0.00  0.00    +0.163 HD
ATOM      6  H   UNL     1      -1.367  17.050  15.842  0.00  0.00    +0.159 HD
ATOM      7  H   UNL     1      -0.774  15.442  16.025  0.00  0.00    +0.159 HD
ATOM      8  H   UNL     1      -2.485  16.684  12.518  0.00  0.00    +0.159 HD
ATOM      9  H   UNL     1      -2.334  17.750  13.859  0.00  0.00    +0.159 HD
ENDROOT
BRANCH   1  10
ATOM     10  C   UNL     1      -1.794  14.216  12.341  0.00  0.00    +0.151 C 
BRANCH  10  11
ATOM     11  C   UNL     1      -1.306  12.816  12.091  0.00  0.00    -0.028 A 
ATOM     12  C   UNL     1      -1.665  11.772  12.955  0.00  0.00    +0.005 A 
ATOM     13  C   UNL     1      -0.488  12.527  10.988  0.00  0.00    +0.005 A 
ATOM     14  C   UNL     1      -1.236  10.466  12.706  0.00  0.00    +0.000 A 
ATOM     15  C   UNL     1      -0.062  11.221  10.743  0.00  0.00    +0.000 A 
ATOM     16  C   UNL     1      -0.438  10.191  11.601  0.00  0.00    +0.000 A 
ENDBRANCH  10  11
ENDBRANCH   1  10
TORSDOF 2
ENDMDL
MODEL 5
REMARK VINA RESULT:    -5.296      3.492      4.392
REMARK INTER + INTRA:          -6.046
REMARK INTER:                  -5.872
REMARK INTRA:                  -0.174
REMARK UNBOUND:                -0.131
REMARK  Name = 1550473
REMARK  2 active torsions:
REMARK  status: ('A' for Active; 'I' for Inactive)
REMARK    1  A    between atoms: N_1  and  C_4
REMARK    2  A    between atoms: C_4  and  C_5
REMARK                            x       y       z     vdW  Elec       q    Type
REMARK                         _______ _______ _______ _____ _____    ______ ____
ROOT
ATOM      1  N   UNL     1      -1.252  10.281  10.198  0.00  0.00    -0.354 N 
ATOM      2  N   UNL     1      -3.173   8.990  10.279  0.00  0.00    -0.372 N 
ATOM      3  N   UNL     1      -2.352   9.879  12.228  0.00  0.00    -0.372 N 
ATOM      4  C   UNL     1      -2.246   9.725  10.904  0.00  0.00    +0.166 C 
ATOM      5  H   UNL     1      -1.211  10.102   9.202  0.00  0.00    +0.163 HD
ATOM      6  H   UNL     1      -3.936   8.561  10.785  0.00  0.00    +0.159 HD
ATOM      7  H   UNL     1      -3.155   8.850   9.276  0.00  0.00    +0.159 HD
ATOM      8  H   UNL     1      -1.681  10.417  12.760  0.00  0.00    +0.159 HD
ATOM      9  H   UNL     1      -3.102   9.448  12.754  0.00  0.00    +0.159 HD
ENDROOT
BRANCH   1  10
ATOM     10  C   UNL     1      -0.223  11.144  10.775  0.00  0.00    +0.151 C 
BRANCH  10  11
ATOM     11  C   UNL     1      -0.630  12.581  10.597  0.00  0.00    -0.028 A 
ATOM     12  C   UNL     1      -1.055  13.051   9.346  0.00  0.00    +0.005 A 
ATOM     13  C   UNL     1      -0.599  13.476  11.678  0.00  0.00    +0.005 A 
ATOM     14  C   UNL     1      -1.462  14.378   9.187  0.00  0.00    +0.000 A 
ATOM     15  C   UNL     1      -1.006  14.800  11.515  0.00  0.00    +0.000 A 
ATOM     16  C   UNL     1      -1.439  15.250  10.270  0.00  0.00    +0.000 A 
ENDBRANCH  10  11
ENDBRANCH   1  10
TORSDOF 2
ENDMDL
MODEL 6
REMARK VINA RESULT:    -5.277      3.555      4.255
REMARK INTER + INTRA:          -6.025
REMARK INTER:                  -5.852
REMARK INTRA:                  -0.173
REMARK UNBOUND:                -0.131
REMARK  Name = 1550473
REMARK  2 active torsions:
REMARK  status: ('A' for Active; 'I' for Inactive)
REMARK    1  A    between atoms: N_1  and  C_4
REMARK    2  A    between atoms: C_4  and  C_5
REMARK                            x       y       z     vdW  Elec       q    Type
REMARK                         _______ _______ _______ _____ _____    ______ ____
ROOT
ATOM      1  N   UNL     1      -2.056  13.127   8.853  0.00  0.00    -0.354 N 
ATOM      2  N   UNL     1      -4.024  13.951   7.951  0.00  0.00    -0.372 N 
ATOM      3  N   UNL     1      -2.850  15.255   9.430  0.00  0.00    -0.372 N 
ATOM      4  C   UNL     1      -2.963  14.108   8.752  0.00  0.00    +0.166 C 
ATOM      5  H   UNL     1      -2.215  12.269   8.337  0.00  0.00    +0.163 HD
ATOM      6  H   UNL     1      -4.723  14.675   7.852  0.00  0.00    +0.159 HD
ATOM      7  H   UNL     1      -4.156  13.111   7.401  0.00  0.00    +0.159 HD
ATOM      8  H   UNL     1      -2.076  15.434  10.056  0.00  0.00    +0.159 HD
ATOM      9  H   UNL     1      -3.546  15.987   9.353  0.00  0.00    +0.159 HD
ENDROOT
BRANCH   1  10
ATOM     10  C   UNL     1      -0.838  13.219   9.657  0.00  0.00    +0.151 C 
BRANCH  10  11
ATOM     11  C   UNL     1      -0.978  12.333  10.864  0.00  0.00    -0.028 A 
ATOM     12  C   UNL     1      -1.654  12.786  12.006  0.00  0.00    +0.005 A 
ATOM     13  C   UNL     1      -0.441  11.036  10.869  0.00  0.00    +0.005 A 
ATOM     14  C   UNL     1      -1.809  11.952  13.116  0.00  0.00    +0.000 A 
ATOM     15  C   UNL     1      -0.598  10.207  11.980  0.00  0.00    +0.000 A 
ATOM     16  C   UNL     1      -1.284  10.665  13.102  0.00  0.00    +0.000 A 
ENDBRANCH  10  11
ENDBRANCH   1  10
TORSDOF 2
ENDMDL
MODEL 7
REMARK VINA RESULT:    -5.006     28.291     29.689
REMARK INTER + INTRA:          -5.722
REMARK INTER:                  -5.606
REMARK INTRA:                  -0.116
REMARK UNBOUND:                -0.131
REMARK  Name = 1550473
REMARK  2 active torsions:
REMARK  status: ('A' for Active; 'I' for Inactive)
REMARK    1  A    between atoms: N_1  and  C_4
REMARK    2  A    between atoms: C_4  and  C_5
REMARK                            x       y       z     vdW  Elec       q    Type
REMARK                         _______ _______ _______ _____ _____    ______ ____
ROOT
ATOM      1  N   UNL     1       5.402  -6.093  -9.463  0.00  0.00    -0.354 N 
ATOM      2  N   UNL     1       6.716  -5.365  -7.700  0.00  0.00    -0.372 N 
ATOM      3  N   UNL     1       4.471  -4.890  -7.680  0.00  0.00    -0.372 N 
ATOM      4  C   UNL     1       5.519  -5.453  -8.292  0.00  0.00    +0.166 C 
ATOM      5  H   UNL     1       6.239  -6.472  -9.889  0.00  0.00    +0.163 HD
ATOM      6  H   UNL     1       6.834  -4.891  -6.815  0.00  0.00    +0.159 HD
ATOM      7  H   UNL     1       7.543  -5.784  -8.106  0.00  0.00    +0.159 HD
ATOM      8  H   UNL     1       3.541  -4.916  -8.077  0.00  0.00    +0.159 HD
ATOM      9  H   UNL     1       4.571  -4.401  -6.799  0.00  0.00    +0.159 HD
ENDROOT
BRANCH   1  10
ATOM     10  C   UNL     1       4.134  -6.292 -10.163  0.00  0.00    +0.151 C 
BRANCH  10  11
ATOM     11  C   UNL     1       4.321  -5.962 -11.619  0.00  0.00    -0.028 A 
ATOM     12  C   UNL     1       5.294  -6.626 -12.380  0.00  0.00    +0.005 A 
ATOM     13  C   UNL     1       3.523  -4.992 -12.244  0.00  0.00    +0.005 A 
ATOM     14  C   UNL     1       5.447  -6.342 -13.739  0.00  0.00    +0.000 A 
ATOM     15  C   UNL     1       3.680  -4.710 -13.601  0.00  0.00    +0.000 A 
ATOM     16  C   UNL     1       4.640  -5.388 -14.349  0.00  0.00    +0.000 A 
ENDBRANCH  10  11
ENDBRANCH   1  10
TORSDOF 2
ENDMDL
MODEL 8
REMARK VINA RESULT:    -4.888     26.789     27.303
REMARK INTER + INTRA:          -5.590
REMARK INTER:                  -5.469
REMARK INTRA:                  -0.121
REMARK UNBOUND:                -0.131
REMARK  Name = 1550473
REMARK  2 active torsions:
REMARK  status: ('A' for Active; 'I' for Inactive)
REMARK    1  A    between atoms: N_1  and  C_4
REMARK    2  A    between atoms: C_4  and  C_5
REMARK                            x       y       z     vdW  Elec       q    Type
REMARK                         _______ _______ _______ _____ _____    ______ ____
ROOT
ATOM      1  N   UNL     1       4.799  -4.519  -9.865  0.00  0.00    -0.354 N 
ATOM      2  N   UNL     1       4.361  -6.793  -9.845  0.00  0.00    -0.372 N 
ATOM      3  N   UNL     1       5.636  -5.895  -8.163  0.00  0.00    -0.372 N 
ATOM      4  C   UNL     1       4.937  -5.721  -9.289  0.00  0.00    +0.166 C 
ATOM      5  H   UNL     1       4.282  -4.458 -10.734  0.00  0.00    +0.163 HD
ATOM      6  H   UNL     1       4.444  -7.712  -9.432  0.00  0.00    +0.159 HD
ATOM      7  H   UNL     1       3.805  -6.722 -10.689  0.00  0.00    +0.159 HD
ATOM      8  H   UNL     1       6.100  -5.128  -7.696  0.00  0.00    +0.159 HD
ATOM      9  H   UNL     1       5.741  -6.809  -7.740  0.00  0.00    +0.159 HD
ENDROOT
BRANCH   1  10
ATOM     10  C   UNL     1       5.342  -3.280  -9.310  0.00  0.00    +0.151 C 
BRANCH  10  11
ATOM     11  C   UNL     1       4.602  -2.112  -9.903  0.00  0.00    -0.028 A 
ATOM     12  C   UNL     1       3.229  -2.202 -10.174  0.00  0.00    +0.005 A 
ATOM     13  C   UNL     1       5.268  -0.910 -10.190  0.00  0.00    +0.005 A 
ATOM     14  C   UNL     1       2.536  -1.107 -10.696  0.00  0.00    +0.000 A 
ATOM     15  C   UNL     1       4.572   0.180 -10.712  0.00  0.00    +0.000 A 
ATOM     16  C   UNL     1       3.206   0.082 -10.963  0.00  0.00    +0.000 A 
ENDBRANCH  10  11
ENDBRANCH   1  10
TORSDOF 2
ENDMDL
MODEL 9
REMARK VINA RESULT:    -4.566     27.009     27.985
REMARK INTER + INTRA:          -5.231
REMARK INTER:                  -5.069
REMARK INTRA:                  -0.162
REMARK UNBOUND:                -0.131
REMARK  Name = 1550473
REMARK  2 active torsions:
REMARK  status: ('A' for Active; 'I' for Inactive)
REMARK    1  A    between atoms: N_1  and  C_4
REMARK    2  A    between atoms: C_4  and  C_5
REMARK                            x       y       z     vdW  Elec       q    Type
REMARK                         _______ _______ _______ _____ _____    ______ ____
ROOT
ATOM      1  N   UNL     1       3.919  -5.256 -11.226  0.00  0.00    -0.354 N 
ATOM      2  N   UNL     1       5.078  -7.230 -11.575  0.00  0.00    -0.372 N 
ATOM      3  N   UNL     1       4.322  -6.747  -9.463  0.00  0.00    -0.372 N 
ATOM      4  C   UNL     1       4.432  -6.398 -10.750  0.00  0.00    +0.166 C 
ATOM      5  H   UNL     1       4.062  -5.035 -12.205  0.00  0.00    +0.163 HD
ATOM      6  H   UNL     1       5.473  -8.101 -11.245  0.00  0.00    +0.159 HD
ATOM      7  H   UNL     1       5.180  -7.029 -12.562  0.00  0.00    +0.159 HD
ATOM      8  H   UNL     1       3.851  -6.160  -8.788  0.00  0.00    +0.159 HD
ATOM      9  H   UNL     1       4.721  -7.608  -9.112  0.00  0.00    +0.159 HD
ENDROOT
BRANCH   1  10
ATOM     10  C   UNL     1       3.150  -4.307 -10.422  0.00  0.00    +0.151 C 
BRANCH  10  11
ATOM     11  C   UNL     1       3.996  -3.093 -10.154  0.00  0.00    -0.028 A 
ATOM     12  C   UNL     1       4.992  -3.122  -9.167  0.00  0.00    +0.005 A 
ATOM     13  C   UNL     1       3.810  -1.911 -10.888  0.00  0.00    +0.005 A 
ATOM     14  C   UNL     1       5.798  -2.004  -8.938  0.00  0.00    +0.000 A 
ATOM     15  C   UNL     1       4.616  -0.797 -10.656  0.00  0.00    +0.000 A 
ATOM     16  C   UNL     1       5.612  -0.844  -9.683  0.00  0.00    +0.000 A 
ENDBRANCH  10  11
ENDBRANCH   1  10
TORSDOF 2
ENDMDL
