MODEL 1
REMARK VINA RESULT:    -5.360      0.000      0.000
REMARK INTER + INTRA:          -6.093
REMARK INTER:                  -5.987
REMARK INTRA:                  -0.106
REMARK UNBOUND:                -0.106
REMARK  Name = 1550473
REMARK  2 active torsions:
REMARK  status: ('A' for Active; 'I' for Inactive)
REMARK    1  A    between atoms: N_1  and  C_4
REMARK    2  A    between atoms: C_4  and  C_5
REMARK                            x       y       z     vdW  Elec       q    Type
REMARK                         _______ _______ _______ _____ _____    ______ ____
ROOT
ATOM      1  N   UNL     1       0.076  12.612  -7.009  0.00  0.00    -0.354 N 
ATOM      2  N   UNL     1      -1.469  12.443  -5.292  0.00  0.00    -0.372 N 
ATOM      3  N   UNL     1       0.515  11.304  -5.114  0.00  0.00    -0.372 N 
ATOM      4  C   UNL     1      -0.281  12.119  -5.815  0.00  0.00    +0.166 C 
ATOM      5  H   UNL     1      -0.584  13.200  -7.504  0.00  0.00    +0.163 HD
ATOM      6  H   UNL     1      -1.765  12.089  -4.392  0.00  0.00    +0.159 HD
ATOM      7  H   UNL     1      -2.109  13.067  -5.768  0.00  0.00    +0.159 HD
ATOM      8  H   UNL     1       1.422  11.016  -5.456  0.00  0.00    +0.159 HD
ATOM      9  H   UNL     1       0.232  10.930  -4.217  0.00  0.00    +0.159 HD
ENDROOT
BRANCH   1  10
ATOM     10  C   UNL     1       1.370  12.364  -7.642  0.00  0.00    +0.151 C 
BRANCH  10  11
ATOM     11  C   UNL     1       1.170  11.467  -8.833  0.00  0.00    -0.028 A 
ATOM     12  C   UNL     1       0.488  10.249  -8.701  0.00  0.00    +0.005 A 
ATOM     13  C   UNL     1       1.656  11.833 -10.098  0.00  0.00    +0.005 A 
ATOM     14  C   UNL     1       0.276   9.430  -9.812  0.00  0.00    +0.000 A 
ATOM     15  C   UNL     1       1.443  11.013 -11.205  0.00  0.00    +0.000 A 
ATOM     16  C   UNL     1       0.751   9.812 -11.063  0.00  0.00    +0.000 A 
ENDBRANCH  10  11
ENDBRANCH   1  10
TORSDOF 2
ENDMDL
MODEL 2
REMARK VINA RESULT:    -5.343     22.989     25.686
REMARK INTER + INTRA:          -6.074
REMARK INTER:                  -5.936
REMARK INTRA:                  -0.138
REMARK UNBOUND:                -0.106
REMARK  Name = 1550473
REMARK  2 active torsions:
REMARK  status: ('A' for Active; 'I' for Inactive)
REMARK    1  A    between atoms: N_1  and  C_4
REMARK    2  A    between atoms: C_4  and  C_5
REMARK                            x       y       z     vdW  Elec       q    Type
REMARK                         _______ _______ _______ _____ _____    ______ ____
ROOT
ATOM      1  N   UNL     1      -6.260   3.708  13.305  0.00  0.00    -0.354 N 
ATOM      2  N   UNL     1      -4.275   3.341  12.168  0.00  0.00    -0.372 N 
ATOM      3  N   UNL     1      -5.379   5.329  11.861  0.00  0.00    -0.372 N 
ATOM      4  C   UNL     1      -5.319   4.131  12.451  0.00  0.00    +0.166 C 
ATOM      5  H   UNL     1      -6.172   2.777  13.696  0.00  0.00    +0.163 HD
ATOM      6  H   UNL     1      -3.548   3.635  11.531  0.00  0.00    +0.159 HD
ATOM      7  H   UNL     1      -4.166   2.430  12.596  0.00  0.00    +0.159 HD
ATOM      8  H   UNL     1      -6.143   5.970  12.027  0.00  0.00    +0.159 HD
ATOM      9  H   UNL     1      -4.667   5.636  11.210  0.00  0.00    +0.159 HD
ENDROOT
BRANCH   1  10
ATOM     10  C   UNL     1      -7.408   4.512  13.721  0.00  0.00    +0.151 C 
BRANCH  10  11
ATOM     11  C   UNL     1      -7.529   4.455  15.219  0.00  0.00    -0.028 A 
ATOM     12  C   UNL     1      -6.424   4.738  16.034  0.00  0.00    +0.005 A 
ATOM     13  C   UNL     1      -8.749   4.126  15.829  0.00  0.00    +0.005 A 
ATOM     14  C   UNL     1      -6.544   4.715  17.426  0.00  0.00    +0.000 A 
ATOM     15  C   UNL     1      -8.865   4.104  17.219  0.00  0.00    +0.000 A 
ATOM     16  C   UNL     1      -7.763   4.401  18.017  0.00  0.00    +0.000 A 
ENDBRANCH  10  11
ENDBRANCH   1  10
TORSDOF 2
ENDMDL
MODEL 3
REMARK VINA RESULT:    -5.202      1.218      1.978
REMARK INTER + INTRA:          -5.916
REMARK INTER:                  -5.770
REMARK INTRA:                  -0.147
REMARK UNBOUND:                -0.106
REMARK  Name = 1550473
REMARK  2 active torsions:
REMARK  status: ('A' for Active; 'I' for Inactive)
REMARK    1  A    between atoms: N_1  and  C_4
REMARK    2  A    between atoms: C_4  and  C_5
REMARK                            x       y       z     vdW  Elec       q    Type
REMARK                         _______ _______ _______ _____ _____    ______ ____
ROOT
ATOM      1  N   UNL     1       0.776  10.766  -6.742  0.00  0.00    -0.354 N 
ATOM      2  N   UNL     1       0.704  12.159  -4.893  0.00  0.00    -0.372 N 
ATOM      3  N   UNL     1      -1.106  12.091  -6.302  0.00  0.00    -0.372 N 
ATOM      4  C   UNL     1       0.123  11.664  -5.992  0.00  0.00    +0.166 C 
ATOM      5  H   UNL     1       1.717  10.505  -6.470  0.00  0.00    +0.163 HD
ATOM      6  H   UNL     1       0.234  12.835  -4.306  0.00  0.00    +0.159 HD
ATOM      7  H   UNL     1       1.626  11.862  -4.598  0.00  0.00    +0.159 HD
ATOM      8  H   UNL     1      -1.597  11.761  -7.122  0.00  0.00    +0.159 HD
ATOM      9  H   UNL     1      -1.588  12.776  -5.733  0.00  0.00    +0.159 HD
ENDROOT
BRANCH   1  10
ATOM     10  C   UNL     1       0.211  10.125  -7.928  0.00  0.00    +0.151 C 
BRANCH  10  11
ATOM     11  C   UNL     1       1.135  10.348  -9.093  0.00  0.00    -0.028 A 
ATOM     12  C   UNL     1       0.721  10.042 -10.398  0.00  0.00    +0.005 A 
ATOM     13  C   UNL     1       2.423  10.871  -8.900  0.00  0.00    +0.005 A 
ATOM     14  C   UNL     1       1.568  10.277 -11.484  0.00  0.00    +0.000 A 
ATOM     15  C   UNL     1       3.265  11.103  -9.987  0.00  0.00    +0.000 A 
ATOM     16  C   UNL     1       2.837  10.809 -11.279  0.00  0.00    +0.000 A 
ENDBRANCH  10  11
ENDBRANCH   1  10
TORSDOF 2
ENDMDL
MODEL 4
REMARK VINA RESULT:    -5.178     16.873     17.444
REMARK INTER + INTRA:          -5.889
REMARK INTER:                  -5.757
REMARK INTRA:                  -0.133
REMARK UNBOUND:                -0.106
REMARK  Name = 1550473
REMARK  2 active torsions:
REMARK  status: ('A' for Active; 'I' for Inactive)
REMARK    1  A    between atoms: N_1  and  C_4
REMARK    2  A    between atoms: C_4  and  C_5
REMARK                            x       y       z     vdW  Elec       q    Type
REMARK                         _______ _______ _______ _____ _____    ______ ____
ROOT
ATOM      1  N   UNL     1      11.607  13.087   3.979  0.00  0.00    -0.354 N 
ATOM      2  N   UNL     1      10.466  14.808   5.027  0.00  0.00    -0.372 N 
ATOM      3  N   UNL     1      10.558  12.755   6.048  0.00  0.00    -0.372 N 
ATOM      4  C   UNL     1      10.884  13.536   5.013  0.00  0.00    +0.166 C 
ATOM      5  H   UNL     1      11.795  13.721   3.211  0.00  0.00    +0.163 HD
ATOM      6  H   UNL     1       9.921  15.177   5.795  0.00  0.00    +0.159 HD
ATOM      7  H   UNL     1      10.694  15.452   4.279  0.00  0.00    +0.159 HD
ATOM      8  H   UNL     1      10.838  11.785   6.095  0.00  0.00    +0.159 HD
ATOM      9  H   UNL     1      10.004  13.103   6.821  0.00  0.00    +0.159 HD
ENDROOT
BRANCH   1  10
ATOM     10  C   UNL     1      12.157  11.735   3.892  0.00  0.00    +0.151 C 
BRANCH  10  11
ATOM     11  C   UNL     1      13.512  11.796   3.244  0.00  0.00    -0.028 A 
ATOM     12  C   UNL     1      13.977  10.728   2.462  0.00  0.00    +0.005 A 
ATOM     13  C   UNL     1      14.335  12.922   3.402  0.00  0.00    +0.005 A 
ATOM     14  C   UNL     1      15.223  10.797   1.836  0.00  0.00    +0.000 A 
ATOM     15  C   UNL     1      15.579  12.987   2.775  0.00  0.00    +0.000 A 
ATOM     16  C   UNL     1      16.022  11.925   1.990  0.00  0.00    +0.000 A 
ENDBRANCH  10  11
ENDBRANCH   1  10
TORSDOF 2
ENDMDL
MODEL 5
REMARK VINA RESULT:    -5.177     16.825     17.429
REMARK INTER + INTRA:          -5.889
REMARK INTER:                  -5.756
REMARK INTRA:                  -0.132
REMARK UNBOUND:                -0.106
REMARK  Name = 1550473
REMARK  2 active torsions:
REMARK  status: ('A' for Active; 'I' for Inactive)
REMARK    1  A    between atoms: N_1  and  C_4
REMARK    2  A    between atoms: C_4  and  C_5
REMARK                            x       y       z     vdW  Elec       q    Type
REMARK                         _______ _______ _______ _____ _____    ______ ____
ROOT
ATOM      1  N   UNL     1      11.607  13.152   3.930  0.00  0.00    -0.354 N 
ATOM      2  N   UNL     1      10.509  14.897   4.986  0.00  0.00    -0.372 N 
ATOM      3  N   UNL     1      10.542  12.836   5.994  0.00  0.00    -0.372 N 
ATOM      4  C   UNL     1      10.892  13.615   4.965  0.00  0.00    +0.166 C 
ATOM      5  H   UNL     1      11.814  13.786   3.167  0.00  0.00    +0.163 HD
ATOM      6  H   UNL     1       9.973  15.275   5.755  0.00  0.00    +0.159 HD
ATOM      7  H   UNL     1      10.758  15.540   4.244  0.00  0.00    +0.159 HD
ATOM      8  H   UNL     1      10.795  11.858   6.035  0.00  0.00    +0.159 HD
ATOM      9  H   UNL     1       9.995  13.193   6.767  0.00  0.00    +0.159 HD
ENDROOT
BRANCH   1  10
ATOM     10  C   UNL     1      12.119  11.786   3.836  0.00  0.00    +0.151 C 
BRANCH  10  11
ATOM     11  C   UNL     1      13.470  11.813   3.176  0.00  0.00    -0.028 A 
ATOM     12  C   UNL     1      14.315  12.922   3.329  0.00  0.00    +0.005 A 
ATOM     13  C   UNL     1      13.913  10.730   2.401  0.00  0.00    +0.005 A 
ATOM     14  C   UNL     1      15.582  12.934   2.740  0.00  0.00    +0.000 A 
ATOM     15  C   UNL     1      15.179  10.747   1.815  0.00  0.00    +0.000 A 
ATOM     16  C   UNL     1      16.014  11.848   1.987  0.00  0.00    +0.000 A 
ENDBRANCH  10  11
ENDBRANCH   1  10
TORSDOF 2
ENDMDL
MODEL 6
REMARK VINA RESULT:    -5.076     10.253     11.874
REMARK INTER + INTRA:          -5.776
REMARK INTER:                  -5.601
REMARK INTRA:                  -0.175
REMARK UNBOUND:                -0.106
REMARK  Name = 1550473
REMARK  2 active torsions:
REMARK  status: ('A' for Active; 'I' for Inactive)
REMARK    1  A    between atoms: N_1  and  C_4
REMARK    2  A    between atoms: C_4  and  C_5
REMARK                            x       y       z     vdW  Elec       q    Type
REMARK                         _______ _______ _______ _____ _____    ______ ____
ROOT
ATOM      1  N   UNL     1      -1.046   7.375 -20.144  0.00  0.00    -0.354 N 
ATOM      2  N   UNL     1      -2.300   5.874 -21.384  0.00  0.00    -0.372 N 
ATOM      3  N   UNL     1      -0.460   5.108 -20.249  0.00  0.00    -0.372 N 
ATOM      4  C   UNL     1      -1.258   6.127 -20.584  0.00  0.00    +0.166 C 
ATOM      5  H   UNL     1      -1.670   8.109 -20.459  0.00  0.00    +0.163 HD
ATOM      6  H   UNL     1      -2.488   4.942 -21.729  0.00  0.00    +0.159 HD
ATOM      7  H   UNL     1      -2.950   6.601 -21.660  0.00  0.00    +0.159 HD
ATOM      8  H   UNL     1       0.347   5.234 -19.652  0.00  0.00    +0.159 HD
ATOM      9  H   UNL     1      -0.624   4.171 -20.593  0.00  0.00    +0.159 HD
ENDROOT
BRANCH   1  10
ATOM     10  C   UNL     1       0.029   7.747 -19.225  0.00  0.00    +0.151 C 
BRANCH  10  11
ATOM     11  C   UNL     1      -0.500   7.726 -17.818  0.00  0.00    -0.028 A 
ATOM     12  C   UNL     1      -1.657   8.443 -17.481  0.00  0.00    +0.005 A 
ATOM     13  C   UNL     1       0.149   6.986 -16.817  0.00  0.00    +0.005 A 
ATOM     14  C   UNL     1      -2.166   8.399 -16.180  0.00  0.00    +0.000 A 
ATOM     15  C   UNL     1      -0.361   6.946 -15.520  0.00  0.00    +0.000 A 
ATOM     16  C   UNL     1      -1.519   7.651 -15.202  0.00  0.00    +0.000 A 
ENDBRANCH  10  11
ENDBRANCH   1  10
TORSDOF 2
ENDMDL
MODEL 7
REMARK VINA RESULT:    -5.059     22.538     24.884
REMARK INTER + INTRA:          -5.757
REMARK INTER:                  -5.616
REMARK INTRA:                  -0.141
REMARK UNBOUND:                -0.106
REMARK  Name = 1550473
REMARK  2 active torsions:
REMARK  status: ('A' for Active; 'I' for Inactive)
REMARK    1  A    between atoms: N_1  and  C_4
REMARK    2  A    between atoms: C_4  and  C_5
REMARK                            x       y       z     vdW  Elec       q    Type
REMARK                         _______ _______ _______ _____ _____    ______ ____
ROOT
ATOM      1  N   UNL     1      -6.004   4.336  13.647  0.00  0.00    -0.354 N 
ATOM      2  N   UNL     1      -4.484   3.304  12.237  0.00  0.00    -0.372 N 
ATOM      3  N   UNL     1      -5.200   5.425  11.734  0.00  0.00    -0.372 N 
ATOM      4  C   UNL     1      -5.240   4.364  12.547  0.00  0.00    +0.166 C 
ATOM      5  H   UNL     1      -6.014   3.491  14.205  0.00  0.00    +0.163 HD
ATOM      6  H   UNL     1      -3.895   3.297  11.415  0.00  0.00    +0.159 HD
ATOM      7  H   UNL     1      -4.461   2.477  12.821  0.00  0.00    +0.159 HD
ATOM      8  H   UNL     1      -5.751   6.255  11.909  0.00  0.00    +0.159 HD
ATOM      9  H   UNL     1      -4.625   5.433  10.901  0.00  0.00    +0.159 HD
ENDROOT
BRANCH   1  10
ATOM     10  C   UNL     1      -6.823   5.459  14.102  0.00  0.00    +0.151 C 
BRANCH  10  11
ATOM     11  C   UNL     1      -8.225   4.975  14.350  0.00  0.00    -0.028 A 
ATOM     12  C   UNL     1      -8.479   3.616  14.584  0.00  0.00    +0.005 A 
ATOM     13  C   UNL     1      -9.304   5.873  14.359  0.00  0.00    +0.005 A 
ATOM     14  C   UNL     1      -9.777   3.171  14.844  0.00  0.00    +0.000 A 
ATOM     15  C   UNL     1     -10.599   5.425  14.618  0.00  0.00    +0.000 A 
ATOM     16  C   UNL     1     -10.835   4.074  14.863  0.00  0.00    +0.000 A 
ENDBRANCH  10  11
ENDBRANCH   1  10
TORSDOF 2
ENDMDL
MODEL 8
REMARK VINA RESULT:    -4.751      1.836      2.391
REMARK INTER + INTRA:          -5.413
REMARK INTER:                  -5.290
REMARK INTRA:                  -0.123
REMARK UNBOUND:                -0.106
REMARK  Name = 1550473
REMARK  2 active torsions:
REMARK  status: ('A' for Active; 'I' for Inactive)
REMARK    1  A    between atoms: N_1  and  C_4
REMARK    2  A    between atoms: C_4  and  C_5
REMARK                            x       y       z     vdW  Elec       q    Type
REMARK                         _______ _______ _______ _____ _____    ______ ____
ROOT
ATOM      1  N   UNL     1       1.026  13.708  -7.360  0.00  0.00    -0.354 N 
ATOM      2  N   UNL     1       2.468  15.517  -7.484  0.00  0.00    -0.372 N 
ATOM      3  N   UNL     1       3.043  13.728  -6.167  0.00  0.00    -0.372 N 
ATOM      4  C   UNL     1       2.171  14.304  -7.001  0.00  0.00    +0.166 C 
ATOM      5  H   UNL     1       0.393  14.211  -7.972  0.00  0.00    +0.163 HD
ATOM      6  H   UNL     1       3.325  15.990  -7.234  0.00  0.00    +0.159 HD
ATOM      7  H   UNL     1       1.855  15.997  -8.132  0.00  0.00    +0.159 HD
ATOM      8  H   UNL     1       2.875  12.817  -5.762  0.00  0.00    +0.159 HD
ATOM      9  H   UNL     1       3.901  14.191  -5.895  0.00  0.00    +0.159 HD
ENDROOT
BRANCH   1  10
ATOM     10  C   UNL     1       0.634  12.366  -6.933  0.00  0.00    +0.151 C 
BRANCH  10  11
ATOM     11  C   UNL     1       0.600  11.459  -8.132  0.00  0.00    -0.028 A 
ATOM     12  C   UNL     1       0.238  10.111  -7.995  0.00  0.00    +0.005 A 
ATOM     13  C   UNL     1       0.924  11.943  -9.409  0.00  0.00    +0.005 A 
ATOM     14  C   UNL     1       0.177   9.276  -9.113  0.00  0.00    +0.000 A 
ATOM     15  C   UNL     1       0.863  11.105 -10.522  0.00  0.00    +0.000 A 
ATOM     16  C   UNL     1       0.487   9.773 -10.374  0.00  0.00    +0.000 A 
ENDBRANCH  10  11
ENDBRANCH   1  10
TORSDOF 2
ENDMDL
MODEL 9
REMARK VINA RESULT:    -4.550     14.927     16.015
REMARK INTER + INTRA:          -5.188
REMARK INTER:                  -5.045
REMARK INTRA:                  -0.144
REMARK UNBOUND:                -0.106
REMARK  Name = 1550473
REMARK  2 active torsions:
REMARK  status: ('A' for Active; 'I' for Inactive)
REMARK    1  A    between atoms: N_1  and  C_4
REMARK    2  A    between atoms: C_4  and  C_5
REMARK                            x       y       z     vdW  Elec       q    Type
REMARK                         _______ _______ _______ _____ _____    ______ ____
ROOT
ATOM      1  N   UNL     1       5.906  -2.649  -5.831  0.00  0.00    -0.354 N 
ATOM      2  N   UNL     1       4.979  -4.273  -7.199  0.00  0.00    -0.372 N 
ATOM      3  N   UNL     1       3.614  -2.651  -6.321  0.00  0.00    -0.372 N 
ATOM      4  C   UNL     1       4.837  -3.179  -6.440  0.00  0.00    +0.166 C 
ATOM      5  H   UNL     1       6.800  -3.115  -5.937  0.00  0.00    +0.163 HD
ATOM      6  H   UNL     1       4.191  -4.693  -7.673  0.00  0.00    +0.159 HD
ATOM      7  H   UNL     1       5.882  -4.709  -7.340  0.00  0.00    +0.159 HD
ATOM      8  H   UNL     1       3.438  -1.829  -5.758  0.00  0.00    +0.159 HD
ATOM      9  H   UNL     1       2.811  -3.064  -6.779  0.00  0.00    +0.159 HD
ENDROOT
BRANCH   1  10
ATOM     10  C   UNL     1       5.868  -1.429  -5.027  0.00  0.00    +0.151 C 
BRANCH  10  11
ATOM     11  C   UNL     1       6.488  -1.705  -3.686  0.00  0.00    -0.028 A 
ATOM     12  C   UNL     1       7.272  -2.851  -3.486  0.00  0.00    +0.005 A 
ATOM     13  C   UNL     1       6.300  -0.822  -2.611  0.00  0.00    +0.005 A 
ATOM     14  C   UNL     1       7.874  -3.092  -2.248  0.00  0.00    +0.000 A 
ATOM     15  C   UNL     1       6.901  -1.067  -1.377  0.00  0.00    +0.000 A 
ATOM     16  C   UNL     1       7.690  -2.201  -1.196  0.00  0.00    +0.000 A 
ENDBRANCH  10  11
ENDBRANCH   1  10
TORSDOF 2
ENDMDL
