MODEL 1
REMARK VINA RESULT:    -7.058      0.000      0.000
REMARK INTER + INTRA:          -7.991
REMARK INTER:                  -7.883
REMARK INTRA:                  -0.109
REMARK UNBOUND:                -0.109
REMARK  Name = 1550473
REMARK  2 active torsions:
REMARK  status: ('A' for Active; 'I' for Inactive)
REMARK    1  A    between atoms: N_1  and  C_4
REMARK    2  A    between atoms: C_4  and  C_5
REMARK                            x       y       z     vdW  Elec       q    Type
REMARK                         _______ _______ _______ _____ _____    ______ ____
ROOT
ATOM      1  N   UNL     1      -2.135  -0.029   1.745  0.00  0.00    -0.354 N 
ATOM      2  N   UNL     1      -3.309   1.398   3.140  0.00  0.00    -0.372 N 
ATOM      3  N   UNL     1      -1.056   1.728   2.859  0.00  0.00    -0.372 N 
ATOM      4  C   UNL     1      -2.157   1.024   2.573  0.00  0.00    +0.166 C 
ATOM      5  H   UNL     1      -2.997  -0.539   1.592  0.00  0.00    +0.163 HD
ATOM      6  H   UNL     1      -3.357   2.191   3.767  0.00  0.00    +0.159 HD
ATOM      7  H   UNL     1      -4.179   0.914   2.950  0.00  0.00    +0.159 HD
ATOM      8  H   UNL     1      -0.154   1.494   2.467  0.00  0.00    +0.159 HD
ATOM      9  H   UNL     1      -1.082   2.518   3.492  0.00  0.00    +0.159 HD
ENDROOT
BRANCH   1  10
ATOM     10  C   UNL     1      -0.942  -0.485   1.033  0.00  0.00    +0.151 C 
BRANCH  10  11
ATOM     11  C   UNL     1      -1.327  -0.883  -0.365  0.00  0.00    -0.028 A 
ATOM     12  C   UNL     1      -2.228  -1.935  -0.584  0.00  0.00    +0.005 A 
ATOM     13  C   UNL     1      -0.798  -0.208  -1.476  0.00  0.00    +0.005 A 
ATOM     14  C   UNL     1      -2.609  -2.286  -1.881  0.00  0.00    +0.000 A 
ATOM     15  C   UNL     1      -1.180  -0.562  -2.770  0.00  0.00    +0.000 A 
ATOM     16  C   UNL     1      -2.087  -1.599  -2.972  0.00  0.00    +0.000 A 
ENDBRANCH  10  11
ENDBRANCH   1  10
TORSDOF 2
ENDMDL
MODEL 2
REMARK VINA RESULT:    -6.859      2.950      3.538
REMARK INTER + INTRA:          -7.770
REMARK INTER:                  -7.641
REMARK INTRA:                  -0.129
REMARK UNBOUND:                -0.109
REMARK  Name = 1550473
REMARK  2 active torsions:
REMARK  status: ('A' for Active; 'I' for Inactive)
REMARK    1  A    between atoms: N_1  and  C_4
REMARK    2  A    between atoms: C_4  and  C_5
REMARK                            x       y       z     vdW  Elec       q    Type
REMARK                         _______ _______ _______ _____ _____    ______ ____
ROOT
ATOM      1  N   UNL     1       1.442  -0.119  -0.731  0.00  0.00    -0.354 N 
ATOM      2  N   UNL     1       3.474   0.934  -1.090  0.00  0.00    -0.372 N 
ATOM      3  N   UNL     1       2.554   0.985   1.012  0.00  0.00    -0.372 N 
ATOM      4  C   UNL     1       2.476   0.594  -0.265  0.00  0.00    +0.166 C 
ATOM      5  H   UNL     1       1.428  -0.358  -1.715  0.00  0.00    +0.163 HD
ATOM      6  H   UNL     1       4.269   1.468  -0.766  0.00  0.00    +0.159 HD
ATOM      7  H   UNL     1       3.479   0.654  -2.063  0.00  0.00    +0.159 HD
ATOM      8  H   UNL     1       1.832   0.766   1.684  0.00  0.00    +0.159 HD
ATOM      9  H   UNL     1       3.336   1.531   1.352  0.00  0.00    +0.159 HD
ENDROOT
BRANCH   1  10
ATOM     10  C   UNL     1       0.332  -0.586   0.097  0.00  0.00    +0.151 C 
BRANCH  10  11
ATOM     11  C   UNL     1      -0.881  -0.780  -0.771  0.00  0.00    -0.028 A 
ATOM     12  C   UNL     1      -2.052  -1.343  -0.243  0.00  0.00    +0.005 A 
ATOM     13  C   UNL     1      -0.867  -0.398  -2.121  0.00  0.00    +0.005 A 
ATOM     14  C   UNL     1      -3.188  -1.497  -1.042  0.00  0.00    +0.000 A 
ATOM     15  C   UNL     1      -2.003  -0.553  -2.915  0.00  0.00    +0.000 A 
ATOM     16  C   UNL     1      -3.164  -1.100  -2.375  0.00  0.00    +0.000 A 
ENDBRANCH  10  11
ENDBRANCH   1  10
TORSDOF 2
ENDMDL
MODEL 3
REMARK VINA RESULT:    -5.208     12.183     13.668
REMARK INTER + INTRA:          -5.925
REMARK INTER:                  -5.752
REMARK INTRA:                  -0.173
REMARK UNBOUND:                -0.109
REMARK  Name = 1550473
REMARK  2 active torsions:
REMARK  status: ('A' for Active; 'I' for Inactive)
REMARK    1  A    between atoms: N_1  and  C_4
REMARK    2  A    between atoms: C_4  and  C_5
REMARK                            x       y       z     vdW  Elec       q    Type
REMARK                         _______ _______ _______ _____ _____    ______ ____
ROOT
ATOM      1  N   UNL     1     -14.285  -4.625  -6.549  0.00  0.00    -0.354 N 
ATOM      2  N   UNL     1     -14.448  -2.919  -8.107  0.00  0.00    -0.372 N 
ATOM      3  N   UNL     1     -14.681  -2.414  -5.881  0.00  0.00    -0.372 N 
ATOM      4  C   UNL     1     -14.471  -3.329  -6.833  0.00  0.00    +0.166 C 
ATOM      5  H   UNL     1     -14.161  -5.273  -7.318  0.00  0.00    +0.163 HD
ATOM      6  H   UNL     1     -14.582  -1.947  -8.352  0.00  0.00    +0.159 HD
ATOM      7  H   UNL     1     -14.278  -3.562  -8.871  0.00  0.00    +0.159 HD
ATOM      8  H   UNL     1     -14.715  -2.659  -4.901  0.00  0.00    +0.159 HD
ATOM      9  H   UNL     1     -14.828  -1.438  -6.107  0.00  0.00    +0.159 HD
ENDROOT
BRANCH   1  10
ATOM     10  C   UNL     1     -14.238  -5.166  -5.192  0.00  0.00    +0.151 C 
BRANCH  10  11
ATOM     11  C   UNL     1     -12.808  -5.464  -4.831  0.00  0.00    -0.028 A 
ATOM     12  C   UNL     1     -12.186  -4.789  -3.771  0.00  0.00    +0.005 A 
ATOM     13  C   UNL     1     -12.073  -6.425  -5.542  0.00  0.00    +0.005 A 
ATOM     14  C   UNL     1     -10.868  -5.087  -3.416  0.00  0.00    +0.000 A 
ATOM     15  C   UNL     1     -10.757  -6.719  -5.186  0.00  0.00    +0.000 A 
ATOM     16  C   UNL     1     -10.156  -6.051  -4.121  0.00  0.00    +0.000 A 
ENDBRANCH  10  11
ENDBRANCH   1  10
TORSDOF 2
ENDMDL
MODEL 4
REMARK VINA RESULT:    -5.178     12.688     14.127
REMARK INTER + INTRA:          -5.892
REMARK INTER:                  -5.752
REMARK INTRA:                  -0.141
REMARK UNBOUND:                -0.109
REMARK  Name = 1550473
REMARK  2 active torsions:
REMARK  status: ('A' for Active; 'I' for Inactive)
REMARK    1  A    between atoms: N_1  and  C_4
REMARK    2  A    between atoms: C_4  and  C_5
REMARK                            x       y       z     vdW  Elec       q    Type
REMARK                         _______ _______ _______ _____ _____    ______ ____
ROOT
ATOM      1  N   UNL     1     -14.586  -4.134  -5.901  0.00  0.00    -0.354 N 
ATOM      2  N   UNL     1     -16.049  -4.232  -7.694  0.00  0.00    -0.372 N 
ATOM      3  N   UNL     1     -16.622  -5.282  -5.736  0.00  0.00    -0.372 N 
ATOM      4  C   UNL     1     -15.744  -4.550  -6.430  0.00  0.00    +0.166 C 
ATOM      5  H   UNL     1     -13.949  -3.607  -6.489  0.00  0.00    +0.163 HD
ATOM      6  H   UNL     1     -16.917  -4.529  -8.119  0.00  0.00    +0.159 HD
ATOM      7  H   UNL     1     -15.432  -3.667  -8.264  0.00  0.00    +0.159 HD
ATOM      8  H   UNL     1     -16.448  -5.561  -4.779  0.00  0.00    +0.159 HD
ATOM      9  H   UNL     1     -17.490  -5.599  -6.148  0.00  0.00    +0.159 HD
ENDROOT
BRANCH   1  10
ATOM     10  C   UNL     1     -14.183  -4.381  -4.518  0.00  0.00    +0.151 C 
BRANCH  10  11
ATOM     11  C   UNL     1     -12.835  -5.048  -4.510  0.00  0.00    -0.028 A 
ATOM     12  C   UNL     1     -12.540  -6.067  -5.428  0.00  0.00    +0.005 A 
ATOM     13  C   UNL     1     -11.847  -4.663  -3.591  0.00  0.00    +0.005 A 
ATOM     14  C   UNL     1     -11.278  -6.666  -5.442  0.00  0.00    +0.000 A 
ATOM     15  C   UNL     1     -10.589  -5.265  -3.607  0.00  0.00    +0.000 A 
ATOM     16  C   UNL     1     -10.304  -6.265  -4.534  0.00  0.00    +0.000 A 
ENDBRANCH  10  11
ENDBRANCH   1  10
TORSDOF 2
ENDMDL
MODEL 5
REMARK VINA RESULT:    -4.961     11.336     12.834
REMARK INTER + INTRA:          -5.650
REMARK INTER:                  -5.525
REMARK INTRA:                  -0.125
REMARK UNBOUND:                -0.109
REMARK  Name = 1550473
REMARK  2 active torsions:
REMARK  status: ('A' for Active; 'I' for Inactive)
REMARK    1  A    between atoms: N_1  and  C_4
REMARK    2  A    between atoms: C_4  and  C_5
REMARK                            x       y       z     vdW  Elec       q    Type
REMARK                         _______ _______ _______ _____ _____    ______ ____
ROOT
ATOM      1  N   UNL     1     -11.487  -5.298  -3.635  0.00  0.00    -0.354 N 
ATOM      2  N   UNL     1      -9.323  -6.050  -3.973  0.00  0.00    -0.372 N 
ATOM      3  N   UNL     1     -10.973  -6.740  -5.410  0.00  0.00    -0.372 N 
ATOM      4  C   UNL     1     -10.610  -6.026  -4.339  0.00  0.00    +0.166 C 
ATOM      5  H   UNL     1     -11.154  -4.803  -2.816  0.00  0.00    +0.163 HD
ATOM      6  H   UNL     1      -8.637  -6.587  -4.487  0.00  0.00    +0.159 HD
ATOM      7  H   UNL     1      -8.984  -5.518  -3.181  0.00  0.00    +0.159 HD
ATOM      8  H   UNL     1     -11.931  -6.769  -5.734  0.00  0.00    +0.159 HD
ATOM      9  H   UNL     1     -10.304  -7.294  -5.930  0.00  0.00    +0.159 HD
ENDROOT
BRANCH   1  10
ATOM     10  C   UNL     1     -12.901  -5.162  -3.982  0.00  0.00    +0.151 C 
BRANCH  10  11
ATOM     11  C   UNL     1     -13.354  -3.766  -3.654  0.00  0.00    -0.028 A 
ATOM     12  C   UNL     1     -12.731  -3.037  -2.631  0.00  0.00    +0.005 A 
ATOM     13  C   UNL     1     -14.403  -3.165  -4.366  0.00  0.00    +0.005 A 
ATOM     14  C   UNL     1     -13.132  -1.729  -2.346  0.00  0.00    +0.000 A 
ATOM     15  C   UNL     1     -14.801  -1.860  -4.078  0.00  0.00    +0.000 A 
ATOM     16  C   UNL     1     -14.164  -1.141  -3.070  0.00  0.00    +0.000 A 
ENDBRANCH  10  11
ENDBRANCH   1  10
TORSDOF 2
ENDMDL
MODEL 6
REMARK VINA RESULT:    -4.895     13.759     15.257
REMARK INTER + INTRA:          -5.576
REMARK INTER:                  -5.436
REMARK INTRA:                  -0.140
REMARK UNBOUND:                -0.109
REMARK  Name = 1550473
REMARK  2 active torsions:
REMARK  status: ('A' for Active; 'I' for Inactive)
REMARK    1  A    between atoms: N_1  and  C_4
REMARK    2  A    between atoms: C_4  and  C_5
REMARK                            x       y       z     vdW  Elec       q    Type
REMARK                         _______ _______ _______ _____ _____    ______ ____
ROOT
ATOM      1  N   UNL     1     -15.475  -5.237  -6.725  0.00  0.00    -0.354 N 
ATOM      2  N   UNL     1     -16.588  -6.435  -8.366  0.00  0.00    -0.372 N 
ATOM      3  N   UNL     1     -17.527  -6.275  -6.278  0.00  0.00    -0.372 N 
ATOM      4  C   UNL     1     -16.524  -5.975  -7.110  0.00  0.00    +0.166 C 
ATOM      5  H   UNL     1     -14.732  -5.070  -7.395  0.00  0.00    +0.163 HD
ATOM      6  H   UNL     1     -17.370  -6.991  -8.686  0.00  0.00    +0.159 HD
ATOM      7  H   UNL     1     -15.867  -6.227  -9.046  0.00  0.00    +0.159 HD
ATOM      8  H   UNL     1     -17.537  -5.964  -5.316  0.00  0.00    +0.159 HD
ATOM      9  H   UNL     1     -18.312  -6.841  -6.576  0.00  0.00    +0.159 HD
ENDROOT
BRANCH   1  10
ATOM     10  C   UNL     1     -15.335  -4.644  -5.396  0.00  0.00    +0.151 C 
BRANCH  10  11
ATOM     11  C   UNL     1     -13.929  -4.860  -4.907  0.00  0.00    -0.028 A 
ATOM     12  C   UNL     1     -13.420  -4.097  -3.847  0.00  0.00    +0.005 A 
ATOM     13  C   UNL     1     -13.104  -5.829  -5.497  0.00  0.00    +0.005 A 
ATOM     14  C   UNL     1     -12.124  -4.317  -3.372  0.00  0.00    +0.000 A 
ATOM     15  C   UNL     1     -11.811  -6.046  -5.021  0.00  0.00    +0.000 A 
ATOM     16  C   UNL     1     -11.322  -5.291  -3.957  0.00  0.00    +0.000 A 
ENDBRANCH  10  11
ENDBRANCH   1  10
TORSDOF 2
ENDMDL
MODEL 7
REMARK VINA RESULT:    -4.580     10.992     12.625
REMARK INTER + INTRA:          -5.224
REMARK INTER:                  -5.095
REMARK INTRA:                  -0.129
REMARK UNBOUND:                -0.109
REMARK  Name = 1550473
REMARK  2 active torsions:
REMARK  status: ('A' for Active; 'I' for Inactive)
REMARK    1  A    between atoms: N_1  and  C_4
REMARK    2  A    between atoms: C_4  and  C_5
REMARK                            x       y       z     vdW  Elec       q    Type
REMARK                         _______ _______ _______ _____ _____    ______ ____
ROOT
ATOM      1  N   UNL     1       3.865  -7.017   6.827  0.00  0.00    -0.354 N 
ATOM      2  N   UNL     1       2.253  -7.405   5.210  0.00  0.00    -0.372 N 
ATOM      3  N   UNL     1       4.395  -8.138   4.838  0.00  0.00    -0.372 N 
ATOM      4  C   UNL     1       3.517  -7.518   5.634  0.00  0.00    +0.166 C 
ATOM      5  H   UNL     1       3.159  -6.532   7.369  0.00  0.00    +0.163 HD
ATOM      6  H   UNL     1       1.960  -7.777   4.316  0.00  0.00    +0.159 HD
ATOM      7  H   UNL     1       1.539  -6.961   5.774  0.00  0.00    +0.159 HD
ATOM      8  H   UNL     1       5.366  -8.251   5.098  0.00  0.00    +0.159 HD
ATOM      9  H   UNL     1       4.124  -8.506   3.935  0.00  0.00    +0.159 HD
ENDROOT
BRANCH   1  10
ATOM     10  C   UNL     1       5.202  -7.134   7.405  0.00  0.00    +0.151 C 
BRANCH  10  11
ATOM     11  C   UNL     1       5.412  -6.017   8.389  0.00  0.00    -0.028 A 
ATOM     12  C   UNL     1       4.513  -4.942   8.448  0.00  0.00    +0.005 A 
ATOM     13  C   UNL     1       6.506  -6.029   9.268  0.00  0.00    +0.005 A 
ATOM     14  C   UNL     1       4.691  -3.919   9.382  0.00  0.00    +0.000 A 
ATOM     15  C   UNL     1       6.681  -5.005  10.198  0.00  0.00    +0.000 A 
ATOM     16  C   UNL     1       5.772  -3.951  10.257  0.00  0.00    +0.000 A 
ENDBRANCH  10  11
ENDBRANCH   1  10
TORSDOF 2
ENDMDL
MODEL 8
REMARK VINA RESULT:    -4.530     13.847     15.271
REMARK INTER + INTRA:          -5.169
REMARK INTER:                  -5.121
REMARK INTRA:                  -0.048
REMARK UNBOUND:                -0.109
REMARK  Name = 1550473
REMARK  2 active torsions:
REMARK  status: ('A' for Active; 'I' for Inactive)
REMARK    1  A    between atoms: N_1  and  C_4
REMARK    2  A    between atoms: C_4  and  C_5
REMARK                            x       y       z     vdW  Elec       q    Type
REMARK                         _______ _______ _______ _____ _____    ______ ____
ROOT
ATOM      1  N   UNL     1     -15.386  -4.628  -6.838  0.00  0.00    -0.354 N 
ATOM      2  N   UNL     1     -16.166  -6.668  -7.610  0.00  0.00    -0.372 N 
ATOM      3  N   UNL     1     -17.406  -5.522  -6.055  0.00  0.00    -0.372 N 
ATOM      4  C   UNL     1     -16.316  -5.592  -6.827  0.00  0.00    +0.166 C 
ATOM      5  H   UNL     1     -14.568  -4.755  -7.423  0.00  0.00    +0.163 HD
ATOM      6  H   UNL     1     -16.853  -7.410  -7.626  0.00  0.00    +0.159 HD
ATOM      7  H   UNL     1     -15.370  -6.770  -8.228  0.00  0.00    +0.159 HD
ATOM      8  H   UNL     1     -17.576  -4.740  -5.438  0.00  0.00    +0.159 HD
ATOM      9  H   UNL     1     -18.099  -6.260  -6.049  0.00  0.00    +0.159 HD
ENDROOT
BRANCH   1  10
ATOM     10  C   UNL     1     -15.481  -3.392  -6.064  0.00  0.00    +0.151 C 
BRANCH  10  11
ATOM     11  C   UNL     1     -14.559  -3.482  -4.879  0.00  0.00    -0.028 A 
ATOM     12  C   UNL     1     -13.932  -4.694  -4.556  0.00  0.00    +0.005 A 
ATOM     13  C   UNL     1     -14.303  -2.357  -4.081  0.00  0.00    +0.005 A 
ATOM     14  C   UNL     1     -13.052  -4.770  -3.474  0.00  0.00    +0.000 A 
ATOM     15  C   UNL     1     -13.424  -2.437  -3.001  0.00  0.00    +0.000 A 
ATOM     16  C   UNL     1     -12.797  -3.644  -2.699  0.00  0.00    +0.000 A 
ENDBRANCH  10  11
ENDBRANCH   1  10
TORSDOF 2
ENDMDL
MODEL 9
REMARK VINA RESULT:    -4.459     13.446     14.840
REMARK INTER + INTRA:          -5.089
REMARK INTER:                  -4.912
REMARK INTRA:                  -0.177
REMARK UNBOUND:                -0.109
REMARK  Name = 1550473
REMARK  2 active torsions:
REMARK  status: ('A' for Active; 'I' for Inactive)
REMARK    1  A    between atoms: N_1  and  C_4
REMARK    2  A    between atoms: C_4  and  C_5
REMARK                            x       y       z     vdW  Elec       q    Type
REMARK                         _______ _______ _______ _____ _____    ______ ____
ROOT
ATOM      1  N   UNL     1     -15.280  -3.843  -7.201  0.00  0.00    -0.354 N 
ATOM      2  N   UNL     1     -14.513  -2.755  -9.096  0.00  0.00    -0.372 N 
ATOM      3  N   UNL     1     -15.507  -1.523  -7.436  0.00  0.00    -0.372 N 
ATOM      4  C   UNL     1     -15.106  -2.712  -7.897  0.00  0.00    +0.166 C 
ATOM      5  H   UNL     1     -14.981  -4.717  -7.620  0.00  0.00    +0.163 HD
ATOM      6  H   UNL     1     -14.365  -1.917  -9.643  0.00  0.00    +0.159 HD
ATOM      7  H   UNL     1     -14.174  -3.623  -9.492  0.00  0.00    +0.159 HD
ATOM      8  H   UNL     1     -15.967  -1.423  -6.541  0.00  0.00    +0.159 HD
ATOM      9  H   UNL     1     -15.378  -0.674  -7.974  0.00  0.00    +0.159 HD
ENDROOT
BRANCH   1  10
ATOM     10  C   UNL     1     -15.867  -3.898  -5.863  0.00  0.00    +0.151 C 
BRANCH  10  11
ATOM     11  C   UNL     1     -14.763  -3.880  -4.842  0.00  0.00    -0.028 A 
ATOM     12  C   UNL     1     -13.971  -5.018  -4.630  0.00  0.00    +0.005 A 
ATOM     13  C   UNL     1     -14.501  -2.726  -4.087  0.00  0.00    +0.005 A 
ATOM     14  C   UNL     1     -12.926  -4.992  -3.703  0.00  0.00    +0.000 A 
ATOM     15  C   UNL     1     -13.457  -2.705  -3.162  0.00  0.00    +0.000 A 
ATOM     16  C   UNL     1     -12.669  -3.837  -2.972  0.00  0.00    +0.000 A 
ENDBRANCH  10  11
ENDBRANCH   1  10
TORSDOF 2
ENDMDL
