MODEL 1
REMARK VINA RESULT:    -6.123      0.000      0.000
REMARK INTER + INTRA:          -6.958
REMARK INTER:                  -6.838
REMARK INTRA:                  -0.119
REMARK UNBOUND:                -0.119
REMARK  Name = 1550473
REMARK  2 active torsions:
REMARK  status: ('A' for Active; 'I' for Inactive)
REMARK    1  A    between atoms: N_1  and  C_4
REMARK    2  A    between atoms: C_4  and  C_5
REMARK                            x       y       z     vdW  Elec       q    Type
REMARK                         _______ _______ _______ _____ _____    ______ ____
ROOT
ATOM      1  N   UNL     1      12.515   9.005   7.254  0.00  0.00    -0.354 N 
ATOM      2  N   UNL     1      11.710  10.182   9.079  0.00  0.00    -0.372 N 
ATOM      3  N   UNL     1      12.156  11.318   7.136  0.00  0.00    -0.372 N 
ATOM      4  C   UNL     1      12.133  10.162   7.809  0.00  0.00    +0.166 C 
ATOM      5  H   UNL     1      12.503   8.169   7.827  0.00  0.00    +0.163 HD
ATOM      6  H   UNL     1      11.411  11.039   9.523  0.00  0.00    +0.159 HD
ATOM      7  H   UNL     1      11.655   9.337   9.635  0.00  0.00    +0.159 HD
ATOM      8  H   UNL     1      12.470  11.372   6.176  0.00  0.00    +0.159 HD
ATOM      9  H   UNL     1      11.872  12.188   7.567  0.00  0.00    +0.159 HD
ENDROOT
BRANCH   1  10
ATOM     10  C   UNL     1      12.941   8.867   5.862  0.00  0.00    +0.151 C 
BRANCH  10  11
ATOM     11  C   UNL     1      12.314   7.632   5.277  0.00  0.00    -0.028 A 
ATOM     12  C   UNL     1      10.987   7.653   4.824  0.00  0.00    +0.005 A 
ATOM     13  C   UNL     1      13.044   6.438   5.166  0.00  0.00    +0.005 A 
ATOM     14  C   UNL     1      10.413   6.515   4.253  0.00  0.00    +0.000 A 
ATOM     15  C   UNL     1      12.468   5.303   4.596  0.00  0.00    +0.000 A 
ATOM     16  C   UNL     1      11.153   5.343   4.137  0.00  0.00    +0.000 A 
ENDBRANCH  10  11
ENDBRANCH   1  10
TORSDOF 2
ENDMDL
MODEL 2
REMARK VINA RESULT:    -6.063      2.489      3.337
REMARK INTER + INTRA:          -6.891
REMARK INTER:                  -6.719
REMARK INTRA:                  -0.172
REMARK UNBOUND:                -0.119
REMARK  Name = 1550473
REMARK  2 active torsions:
REMARK  status: ('A' for Active; 'I' for Inactive)
REMARK    1  A    between atoms: N_1  and  C_4
REMARK    2  A    between atoms: C_4  and  C_5
REMARK                            x       y       z     vdW  Elec       q    Type
REMARK                         _______ _______ _______ _____ _____    ______ ____
ROOT
ATOM      1  N   UNL     1      14.690   5.756   6.856  0.00  0.00    -0.354 N 
ATOM      2  N   UNL     1      14.758   4.612   8.869  0.00  0.00    -0.372 N 
ATOM      3  N   UNL     1      14.035   6.790   8.855  0.00  0.00    -0.372 N 
ATOM      4  C   UNL     1      14.493   5.730   8.181  0.00  0.00    +0.166 C 
ATOM      5  H   UNL     1      15.068   4.929   6.409  0.00  0.00    +0.163 HD
ATOM      6  H   UNL     1      14.616   4.561   9.869  0.00  0.00    +0.159 HD
ATOM      7  H   UNL     1      15.092   3.772   8.412  0.00  0.00    +0.159 HD
ATOM      8  H   UNL     1      13.822   7.665   8.395  0.00  0.00    +0.159 HD
ATOM      9  H   UNL     1      13.898   6.762   9.857  0.00  0.00    +0.159 HD
ENDROOT
BRANCH   1  10
ATOM     10  C   UNL     1      14.382   6.905   6.007  0.00  0.00    +0.151 C 
BRANCH  10  11
ATOM     11  C   UNL     1      13.025   6.709   5.387  0.00  0.00    -0.028 A 
ATOM     12  C   UNL     1      12.092   7.756   5.370  0.00  0.00    +0.005 A 
ATOM     13  C   UNL     1      12.670   5.480   4.811  0.00  0.00    +0.005 A 
ATOM     14  C   UNL     1      10.843   7.583   4.768  0.00  0.00    +0.000 A 
ATOM     15  C   UNL     1      11.421   5.311   4.212  0.00  0.00    +0.000 A 
ATOM     16  C   UNL     1      10.510   6.364   4.189  0.00  0.00    +0.000 A 
ENDBRANCH  10  11
ENDBRANCH   1  10
TORSDOF 2
ENDMDL
MODEL 3
REMARK VINA RESULT:    -5.684     32.970     34.593
REMARK INTER + INTRA:          -6.467
REMARK INTER:                  -6.309
REMARK INTRA:                  -0.159
REMARK UNBOUND:                -0.119
REMARK  Name = 1550473
REMARK  2 active torsions:
REMARK  status: ('A' for Active; 'I' for Inactive)
REMARK    1  A    between atoms: N_1  and  C_4
REMARK    2  A    between atoms: C_4  and  C_5
REMARK                            x       y       z     vdW  Elec       q    Type
REMARK                         _______ _______ _______ _____ _____    ______ ____
ROOT
ATOM      1  N   UNL     1      -5.869  -5.104 -20.533  0.00  0.00    -0.354 N 
ATOM      2  N   UNL     1      -4.814  -6.366 -22.164  0.00  0.00    -0.372 N 
ATOM      3  N   UNL     1      -7.056  -5.929 -22.378  0.00  0.00    -0.372 N 
ATOM      4  C   UNL     1      -5.923  -5.791 -21.682  0.00  0.00    +0.166 C 
ATOM      5  H   UNL     1      -4.986  -5.062 -20.038  0.00  0.00    +0.163 HD
ATOM      6  H   UNL     1      -4.823  -6.888 -23.029  0.00  0.00    +0.159 HD
ATOM      7  H   UNL     1      -3.922  -6.283 -21.690  0.00  0.00    +0.159 HD
ATOM      8  H   UNL     1      -7.929  -5.525 -22.065  0.00  0.00    +0.159 HD
ATOM      9  H   UNL     1      -7.088  -6.458 -23.241  0.00  0.00    +0.159 HD
ENDROOT
BRANCH   1  10
ATOM     10  C   UNL     1      -7.008  -4.395 -19.951  0.00  0.00    +0.151 C 
BRANCH  10  11
ATOM     11  C   UNL     1      -6.752  -2.915 -20.019  0.00  0.00    -0.028 A 
ATOM     12  C   UNL     1      -6.821  -2.236 -21.244  0.00  0.00    +0.005 A 
ATOM     13  C   UNL     1      -6.447  -2.184 -18.860  0.00  0.00    +0.005 A 
ATOM     14  C   UNL     1      -6.613  -0.856 -21.303  0.00  0.00    +0.000 A 
ATOM     15  C   UNL     1      -6.240  -0.807 -18.923  0.00  0.00    +0.000 A 
ATOM     16  C   UNL     1      -6.325  -0.142 -20.144  0.00  0.00    +0.000 A 
ENDBRANCH  10  11
ENDBRANCH   1  10
TORSDOF 2
ENDMDL
MODEL 4
REMARK VINA RESULT:    -5.421     31.514     32.834
REMARK INTER + INTRA:          -6.174
REMARK INTER:                  -6.078
REMARK INTRA:                  -0.095
REMARK UNBOUND:                -0.119
REMARK  Name = 1550473
REMARK  2 active torsions:
REMARK  status: ('A' for Active; 'I' for Inactive)
REMARK    1  A    between atoms: N_1  and  C_4
REMARK    2  A    between atoms: C_4  and  C_5
REMARK                            x       y       z     vdW  Elec       q    Type
REMARK                         _______ _______ _______ _____ _____    ______ ____
ROOT
ATOM      1  N   UNL     1      -4.520   0.990 -20.256  0.00  0.00    -0.354 N 
ATOM      2  N   UNL     1      -2.570   2.155 -20.708  0.00  0.00    -0.372 N 
ATOM      3  N   UNL     1      -4.587   3.163 -21.130  0.00  0.00    -0.372 N 
ATOM      4  C   UNL     1      -3.907   2.097 -20.696  0.00  0.00    +0.166 C 
ATOM      5  H   UNL     1      -3.947   0.204 -19.969  0.00  0.00    +0.163 HD
ATOM      6  H   UNL     1      -2.080   2.978 -21.031  0.00  0.00    +0.159 HD
ATOM      7  H   UNL     1      -2.000   1.386 -20.377  0.00  0.00    +0.159 HD
ATOM      8  H   UNL     1      -5.598   3.181 -21.152  0.00  0.00    +0.159 HD
ATOM      9  H   UNL     1      -4.115   3.992 -21.468  0.00  0.00    +0.159 HD
ENDROOT
BRANCH   1  10
ATOM     10  C   UNL     1      -5.971   0.845 -20.152  0.00  0.00    +0.151 C 
BRANCH  10  11
ATOM     11  C   UNL     1      -6.323  -0.617 -20.200  0.00  0.00    -0.028 A 
ATOM     12  C   UNL     1      -6.269  -1.401 -19.039  0.00  0.00    +0.005 A 
ATOM     13  C   UNL     1      -6.717  -1.222 -21.404  0.00  0.00    +0.005 A 
ATOM     14  C   UNL     1      -6.625  -2.751 -19.077  0.00  0.00    +0.000 A 
ATOM     15  C   UNL     1      -7.070  -2.570 -21.438  0.00  0.00    +0.000 A 
ATOM     16  C   UNL     1      -7.027  -3.334 -20.275  0.00  0.00    +0.000 A 
ENDBRANCH  10  11
ENDBRANCH   1  10
TORSDOF 2
ENDMDL
MODEL 5
REMARK VINA RESULT:    -5.391     35.063     36.216
REMARK INTER + INTRA:          -6.140
REMARK INTER:                  -6.011
REMARK INTRA:                  -0.129
REMARK UNBOUND:                -0.119
REMARK  Name = 1550473
REMARK  2 active torsions:
REMARK  status: ('A' for Active; 'I' for Inactive)
REMARK    1  A    between atoms: N_1  and  C_4
REMARK    2  A    between atoms: C_4  and  C_5
REMARK                            x       y       z     vdW  Elec       q    Type
REMARK                         _______ _______ _______ _____ _____    ______ ____
ROOT
ATOM      1  N   UNL     1      -3.954  -7.142 -22.674  0.00  0.00    -0.354 N 
ATOM      2  N   UNL     1      -2.267  -8.519 -21.887  0.00  0.00    -0.372 N 
ATOM      3  N   UNL     1      -2.190  -7.806 -24.066  0.00  0.00    -0.372 N 
ATOM      4  C   UNL     1      -2.814  -7.813 -22.884  0.00  0.00    +0.166 C 
ATOM      5  H   UNL     1      -4.394  -7.212 -21.763  0.00  0.00    +0.163 HD
ATOM      6  H   UNL     1      -1.405  -9.033 -22.014  0.00  0.00    +0.159 HD
ATOM      7  H   UNL     1      -2.684  -8.550 -20.964  0.00  0.00    +0.159 HD
ATOM      8  H   UNL     1      -2.555  -7.297 -24.861  0.00  0.00    +0.159 HD
ATOM      9  H   UNL     1      -1.333  -8.323 -24.217  0.00  0.00    +0.159 HD
ENDROOT
BRANCH   1  10
ATOM     10  C   UNL     1      -4.604  -6.299 -23.676  0.00  0.00    +0.151 C 
BRANCH  10  11
ATOM     11  C   UNL     1      -5.450  -5.270 -22.980  0.00  0.00    -0.028 A 
ATOM     12  C   UNL     1      -5.457  -5.183 -21.580  0.00  0.00    +0.005 A 
ATOM     13  C   UNL     1      -6.242  -4.374 -23.714  0.00  0.00    +0.005 A 
ATOM     14  C   UNL     1      -6.220  -4.208 -20.933  0.00  0.00    +0.000 A 
ATOM     15  C   UNL     1      -7.003  -3.402 -23.065  0.00  0.00    +0.000 A 
ATOM     16  C   UNL     1      -6.990  -3.317 -21.675  0.00  0.00    +0.000 A 
ENDBRANCH  10  11
ENDBRANCH   1  10
TORSDOF 2
ENDMDL
MODEL 6
REMARK VINA RESULT:    -5.386     32.200     33.810
REMARK INTER + INTRA:          -6.136
REMARK INTER:                  -6.009
REMARK INTRA:                  -0.127
REMARK UNBOUND:                -0.119
REMARK  Name = 1550473
REMARK  2 active torsions:
REMARK  status: ('A' for Active; 'I' for Inactive)
REMARK    1  A    between atoms: N_1  and  C_4
REMARK    2  A    between atoms: C_4  and  C_5
REMARK                            x       y       z     vdW  Elec       q    Type
REMARK                         _______ _______ _______ _____ _____    ______ ____
ROOT
ATOM      1  N   UNL     1      -6.241  -3.875 -20.125  0.00  0.00    -0.354 N 
ATOM      2  N   UNL     1      -5.062  -5.637 -21.058  0.00  0.00    -0.372 N 
ATOM      3  N   UNL     1      -6.959  -4.891 -22.111  0.00  0.00    -0.372 N 
ATOM      4  C   UNL     1      -6.097  -4.789 -21.094  0.00  0.00    +0.166 C 
ATOM      5  H   UNL     1      -5.571  -3.869 -19.365  0.00  0.00    +0.163 HD
ATOM      6  H   UNL     1      -4.925  -6.335 -21.776  0.00  0.00    +0.159 HD
ATOM      7  H   UNL     1      -4.367  -5.598 -20.322  0.00  0.00    +0.159 HD
ATOM      8  H   UNL     1      -7.764  -4.286 -22.194  0.00  0.00    +0.159 HD
ATOM      9  H   UNL     1      -6.845  -5.591 -22.834  0.00  0.00    +0.159 HD
ENDROOT
BRANCH   1  10
ATOM     10  C   UNL     1      -7.304  -2.871 -20.100  0.00  0.00    +0.151 C 
BRANCH  10  11
ATOM     11  C   UNL     1      -6.695  -1.518 -19.860  0.00  0.00    -0.028 A 
ATOM     12  C   UNL     1      -6.588  -1.006 -18.558  0.00  0.00    +0.005 A 
ATOM     13  C   UNL     1      -6.218  -0.744 -20.929  0.00  0.00    +0.005 A 
ATOM     14  C   UNL     1      -5.995   0.239 -18.332  0.00  0.00    +0.000 A 
ATOM     15  C   UNL     1      -5.628   0.499 -20.699  0.00  0.00    +0.000 A 
ATOM     16  C   UNL     1      -5.514   0.988 -19.400  0.00  0.00    +0.000 A 
ENDBRANCH  10  11
ENDBRANCH   1  10
TORSDOF 2
ENDMDL
MODEL 7
REMARK VINA RESULT:    -5.299      3.502      4.585
REMARK INTER + INTRA:          -6.038
REMARK INTER:                  -5.892
REMARK INTRA:                  -0.146
REMARK UNBOUND:                -0.119
REMARK  Name = 1550473
REMARK  2 active torsions:
REMARK  status: ('A' for Active; 'I' for Inactive)
REMARK    1  A    between atoms: N_1  and  C_4
REMARK    2  A    between atoms: C_4  and  C_5
REMARK                            x       y       z     vdW  Elec       q    Type
REMARK                         _______ _______ _______ _____ _____    ______ ____
ROOT
ATOM      1  N   UNL     1      15.025   5.115   5.688  0.00  0.00    -0.354 N 
ATOM      2  N   UNL     1      16.441   4.981   7.516  0.00  0.00    -0.372 N 
ATOM      3  N   UNL     1      14.736   3.458   7.320  0.00  0.00    -0.372 N 
ATOM      4  C   UNL     1      15.389   4.517   6.830  0.00  0.00    +0.166 C 
ATOM      5  H   UNL     1      15.543   5.932   5.387  0.00  0.00    +0.163 HD
ATOM      6  H   UNL     1      16.741   4.548   8.379  0.00  0.00    +0.159 HD
ATOM      7  H   UNL     1      16.985   5.770   7.188  0.00  0.00    +0.159 HD
ATOM      8  H   UNL     1      13.930   3.063   6.853  0.00  0.00    +0.159 HD
ATOM      9  H   UNL     1      15.014   3.018   8.188  0.00  0.00    +0.159 HD
ENDROOT
BRANCH   1  10
ATOM     10  C   UNL     1      13.928   4.656   4.838  0.00  0.00    +0.151 C 
BRANCH  10  11
ATOM     11  C   UNL     1      12.857   5.711   4.805  0.00  0.00    -0.028 A 
ATOM     12  C   UNL     1      11.595   5.427   4.263  0.00  0.00    +0.005 A 
ATOM     13  C   UNL     1      13.096   6.995   5.319  0.00  0.00    +0.005 A 
ATOM     14  C   UNL     1      10.590   6.398   4.259  0.00  0.00    +0.000 A 
ATOM     15  C   UNL     1      12.091   7.961   5.312  0.00  0.00    +0.000 A 
ATOM     16  C   UNL     1      10.837   7.662   4.785  0.00  0.00    +0.000 A 
ENDBRANCH  10  11
ENDBRANCH   1  10
TORSDOF 2
ENDMDL
MODEL 8
REMARK VINA RESULT:    -5.266     35.774     37.377
REMARK INTER + INTRA:          -6.001
REMARK INTER:                  -5.822
REMARK INTRA:                  -0.179
REMARK UNBOUND:                -0.119
REMARK  Name = 1550473
REMARK  2 active torsions:
REMARK  status: ('A' for Active; 'I' for Inactive)
REMARK    1  A    between atoms: N_1  and  C_4
REMARK    2  A    between atoms: C_4  and  C_5
REMARK                            x       y       z     vdW  Elec       q    Type
REMARK                         _______ _______ _______ _____ _____    ______ ____
ROOT
ATOM      1  N   UNL     1      -5.888  -5.562 -23.254  0.00  0.00    -0.354 N 
ATOM      2  N   UNL     1      -4.320  -7.100 -22.519  0.00  0.00    -0.372 N 
ATOM      3  N   UNL     1      -5.170  -5.582 -21.023  0.00  0.00    -0.372 N 
ATOM      4  C   UNL     1      -5.136  -6.070 -22.268  0.00  0.00    +0.166 C 
ATOM      5  H   UNL     1      -5.794  -5.958 -24.183  0.00  0.00    +0.163 HD
ATOM      6  H   UNL     1      -3.743  -7.506 -21.794  0.00  0.00    +0.159 HD
ATOM      7  H   UNL     1      -4.262  -7.523 -23.437  0.00  0.00    +0.159 HD
ATOM      8  H   UNL     1      -5.761  -4.802 -20.770  0.00  0.00    +0.159 HD
ATOM      9  H   UNL     1      -4.592  -5.968 -20.287  0.00  0.00    +0.159 HD
ENDROOT
BRANCH   1  10
ATOM     10  C   UNL     1      -6.849  -4.476 -23.073  0.00  0.00    +0.151 C 
BRANCH  10  11
ATOM     11  C   UNL     1      -8.215  -5.062 -22.844  0.00  0.00    -0.028 A 
ATOM     12  C   UNL     1      -8.907  -5.686 -23.892  0.00  0.00    +0.005 A 
ATOM     13  C   UNL     1      -8.821  -5.001 -21.580  0.00  0.00    +0.005 A 
ATOM     14  C   UNL     1     -10.163  -6.257 -23.673  0.00  0.00    +0.000 A 
ATOM     15  C   UNL     1     -10.075  -5.571 -21.365  0.00  0.00    +0.000 A 
ATOM     16  C   UNL     1     -10.745  -6.201 -22.411  0.00  0.00    +0.000 A 
ENDBRANCH  10  11
ENDBRANCH   1  10
TORSDOF 2
ENDMDL
MODEL 9
REMARK VINA RESULT:    -5.056     34.481     36.071
REMARK INTER + INTRA:          -5.766
REMARK INTER:                  -5.618
REMARK INTRA:                  -0.148
REMARK UNBOUND:                -0.119
REMARK  Name = 1550473
REMARK  2 active torsions:
REMARK  status: ('A' for Active; 'I' for Inactive)
REMARK    1  A    between atoms: N_1  and  C_4
REMARK    2  A    between atoms: C_4  and  C_5
REMARK                            x       y       z     vdW  Elec       q    Type
REMARK                         _______ _______ _______ _____ _____    ______ ____
ROOT
ATOM      1  N   UNL     1      -8.271  -3.975 -23.230  0.00  0.00    -0.354 N 
ATOM      2  N   UNL     1      -9.603  -5.800 -23.739  0.00  0.00    -0.372 N 
ATOM      3  N   UNL     1      -7.324  -6.014 -23.891  0.00  0.00    -0.372 N 
ATOM      4  C   UNL     1      -8.388  -5.252 -23.617  0.00  0.00    +0.166 C 
ATOM      5  H   UNL     1      -9.117  -3.442 -23.066  0.00  0.00    +0.163 HD
ATOM      6  H   UNL     1      -9.723  -6.762 -24.026  0.00  0.00    +0.159 HD
ATOM      7  H   UNL     1     -10.446  -5.279 -23.530  0.00  0.00    +0.159 HD
ATOM      8  H   UNL     1      -6.380  -5.659 -23.825  0.00  0.00    +0.159 HD
ATOM      9  H   UNL     1      -7.424  -6.976 -24.191  0.00  0.00    +0.159 HD
ENDROOT
BRANCH   1  10
ATOM     10  C   UNL     1      -6.992  -3.300 -23.015  0.00  0.00    +0.151 C 
BRANCH  10  11
ATOM     11  C   UNL     1      -6.952  -2.759 -21.613  0.00  0.00    -0.028 A 
ATOM     12  C   UNL     1      -7.037  -3.625 -20.513  0.00  0.00    +0.005 A 
ATOM     13  C   UNL     1      -6.823  -1.381 -21.377  0.00  0.00    +0.005 A 
ATOM     14  C   UNL     1      -6.970  -3.125 -19.210  0.00  0.00    +0.000 A 
ATOM     15  C   UNL     1      -6.757  -0.887 -20.075  0.00  0.00    +0.000 A 
ATOM     16  C   UNL     1      -6.828  -1.759 -18.991  0.00  0.00    +0.000 A 
ENDBRANCH  10  11
ENDBRANCH   1  10
TORSDOF 2
ENDMDL
