MODEL 1
REMARK VINA RESULT:    -5.094      0.000      0.000
REMARK INTER + INTRA:          -5.786
REMARK INTER:                  -5.690
REMARK INTRA:                  -0.096
REMARK UNBOUND:                -0.096
REMARK  Name = 1550473
REMARK  2 active torsions:
REMARK  status: ('A' for Active; 'I' for Inactive)
REMARK    1  A    between atoms: N_1  and  C_4
REMARK    2  A    between atoms: C_4  and  C_5
REMARK                            x       y       z     vdW  Elec       q    Type
REMARK                         _______ _______ _______ _____ _____    ______ ____
ROOT
ATOM      1  N   UNL     1     -11.210  -1.437 -19.407  0.00  0.00    -0.354 N 
ATOM      2  N   UNL     1      -9.841  -2.009 -17.629  0.00  0.00    -0.372 N 
ATOM      3  N   UNL     1     -11.857  -1.003 -17.196  0.00  0.00    -0.372 N 
ATOM      4  C   UNL     1     -10.980  -1.478 -18.087  0.00  0.00    +0.166 C 
ATOM      5  H   UNL     1     -10.493  -1.786 -20.031  0.00  0.00    +0.163 HD
ATOM      6  H   UNL     1      -9.641  -2.057 -16.639  0.00  0.00    +0.159 HD
ATOM      7  H   UNL     1      -9.145  -2.399 -18.253  0.00  0.00    +0.159 HD
ATOM      8  H   UNL     1     -12.734  -0.585 -17.478  0.00  0.00    +0.159 HD
ATOM      9  H   UNL     1     -11.670  -1.032 -16.202  0.00  0.00    +0.159 HD
ENDROOT
BRANCH   1  10
ATOM     10  C   UNL     1     -12.443  -0.929 -20.006  0.00  0.00    +0.151 C 
BRANCH  10  11
ATOM     11  C   UNL     1     -12.183  -0.585 -21.447  0.00  0.00    -0.028 A 
ATOM     12  C   UNL     1     -12.201   0.751 -21.875  0.00  0.00    +0.005 A 
ATOM     13  C   UNL     1     -11.912  -1.590 -22.388  0.00  0.00    +0.005 A 
ATOM     14  C   UNL     1     -11.930   1.073 -23.207  0.00  0.00    +0.000 A 
ATOM     15  C   UNL     1     -11.642  -1.264 -23.717  0.00  0.00    +0.000 A 
ATOM     16  C   UNL     1     -11.649   0.068 -24.126  0.00  0.00    +0.000 A 
ENDBRANCH  10  11
ENDBRANCH   1  10
TORSDOF 2
ENDMDL
MODEL 2
REMARK VINA RESULT:    -5.083      0.160      1.462
REMARK INTER + INTRA:          -5.774
REMARK INTER:                  -5.679
REMARK INTRA:                  -0.095
REMARK UNBOUND:                -0.096
REMARK  Name = 1550473
REMARK  2 active torsions:
REMARK  status: ('A' for Active; 'I' for Inactive)
REMARK    1  A    between atoms: N_1  and  C_4
REMARK    2  A    between atoms: C_4  and  C_5
REMARK                            x       y       z     vdW  Elec       q    Type
REMARK                         _______ _______ _______ _____ _____    ______ ____
ROOT
ATOM      1  N   UNL     1     -11.174  -1.307 -19.335  0.00  0.00    -0.354 N 
ATOM      2  N   UNL     1      -9.906  -2.024 -17.535  0.00  0.00    -0.372 N 
ATOM      3  N   UNL     1     -12.074  -1.367 -17.172  0.00  0.00    -0.372 N 
ATOM      4  C   UNL     1     -11.062  -1.560 -18.024  0.00  0.00    +0.166 C 
ATOM      5  H   UNL     1     -10.361  -1.446 -19.924  0.00  0.00    +0.163 HD
ATOM      6  H   UNL     1      -9.792  -2.227 -16.551  0.00  0.00    +0.159 HD
ATOM      7  H   UNL     1      -9.108  -2.205 -18.133  0.00  0.00    +0.159 HD
ATOM      8  H   UNL     1     -12.971  -1.013 -17.477  0.00  0.00    +0.159 HD
ATOM      9  H   UNL     1     -11.976  -1.553 -16.182  0.00  0.00    +0.159 HD
ENDROOT
BRANCH   1  10
ATOM     10  C   UNL     1     -12.406  -0.852 -19.977  0.00  0.00    +0.151 C 
BRANCH  10  11
ATOM     11  C   UNL     1     -12.125  -0.554 -21.424  0.00  0.00    -0.028 A 
ATOM     12  C   UNL     1     -11.821  -1.591 -22.318  0.00  0.00    +0.005 A 
ATOM     13  C   UNL     1     -12.166   0.763 -21.908  0.00  0.00    +0.005 A 
ATOM     14  C   UNL     1     -11.589  -1.318 -23.669  0.00  0.00    +0.000 A 
ATOM     15  C   UNL     1     -11.933   1.031 -23.257  0.00  0.00    +0.000 A 
ATOM     16  C   UNL     1     -11.647  -0.010 -24.137  0.00  0.00    +0.000 A 
ENDBRANCH  10  11
ENDBRANCH   1  10
TORSDOF 2
ENDMDL
MODEL 3
REMARK VINA RESULT:    -4.981      2.504      3.345
REMARK INTER + INTRA:          -5.660
REMARK INTER:                  -5.517
REMARK INTRA:                  -0.143
REMARK UNBOUND:                -0.096
REMARK  Name = 1550473
REMARK  2 active torsions:
REMARK  status: ('A' for Active; 'I' for Inactive)
REMARK    1  A    between atoms: N_1  and  C_4
REMARK    2  A    between atoms: C_4  and  C_5
REMARK                            x       y       z     vdW  Elec       q    Type
REMARK                         _______ _______ _______ _____ _____    ______ ____
ROOT
ATOM      1  N   UNL     1     -12.527  -2.928 -21.123  0.00  0.00    -0.354 N 
ATOM      2  N   UNL     1     -12.354  -4.979 -22.184  0.00  0.00    -0.372 N 
ATOM      3  N   UNL     1     -14.439  -4.100 -21.802  0.00  0.00    -0.372 N 
ATOM      4  C   UNL     1     -13.111  -3.989 -21.696  0.00  0.00    +0.166 C 
ATOM      5  H   UNL     1     -11.516  -2.918 -21.046  0.00  0.00    +0.163 HD
ATOM      6  H   UNL     1     -12.766  -5.791 -22.625  0.00  0.00    +0.159 HD
ATOM      7  H   UNL     1     -11.343  -4.945 -22.148  0.00  0.00    +0.159 HD
ATOM      8  H   UNL     1     -15.066  -3.390 -21.448  0.00  0.00    +0.159 HD
ATOM      9  H   UNL     1     -14.871  -4.910 -22.229  0.00  0.00    +0.159 HD
ENDROOT
BRANCH   1  10
ATOM     10  C   UNL     1     -13.257  -1.772 -20.608  0.00  0.00    +0.151 C 
BRANCH  10  11
ATOM     11  C   UNL     1     -12.764  -0.531 -21.300  0.00  0.00    -0.028 A 
ATOM     12  C   UNL     1     -13.361   0.712 -21.044  0.00  0.00    +0.005 A 
ATOM     13  C   UNL     1     -11.695  -0.591 -22.207  0.00  0.00    +0.005 A 
ATOM     14  C   UNL     1     -12.884   1.869 -21.664  0.00  0.00    +0.000 A 
ATOM     15  C   UNL     1     -11.222   0.567 -22.825  0.00  0.00    +0.000 A 
ATOM     16  C   UNL     1     -11.815   1.797 -22.551  0.00  0.00    +0.000 A 
ENDBRANCH  10  11
ENDBRANCH   1  10
TORSDOF 2
ENDMDL
MODEL 4
REMARK VINA RESULT:    -4.920      3.631      5.263
REMARK INTER + INTRA:          -5.592
REMARK INTER:                  -5.440
REMARK INTRA:                  -0.152
REMARK UNBOUND:                -0.096
REMARK  Name = 1550473
REMARK  2 active torsions:
REMARK  status: ('A' for Active; 'I' for Inactive)
REMARK    1  A    between atoms: N_1  and  C_4
REMARK    2  A    between atoms: C_4  and  C_5
REMARK                            x       y       z     vdW  Elec       q    Type
REMARK                         _______ _______ _______ _____ _____    ______ ____
ROOT
ATOM      1  N   UNL     1     -11.642  -0.472 -24.379  0.00  0.00    -0.354 N 
ATOM      2  N   UNL     1     -12.685   0.078 -26.373  0.00  0.00    -0.372 N 
ATOM      3  N   UNL     1     -12.719   1.592 -24.649  0.00  0.00    -0.372 N 
ATOM      4  C   UNL     1     -12.343   0.398 -25.119  0.00  0.00    +0.166 C 
ATOM      5  H   UNL     1     -11.413  -1.373 -24.784  0.00  0.00    +0.163 HD
ATOM      6  H   UNL     1     -13.210   0.715 -26.956  0.00  0.00    +0.159 HD
ATOM      7  H   UNL     1     -12.416  -0.805 -26.790  0.00  0.00    +0.159 HD
ATOM      8  H   UNL     1     -12.497   1.891 -23.709  0.00  0.00    +0.159 HD
ATOM      9  H   UNL     1     -13.256   2.239 -25.214  0.00  0.00    +0.159 HD
ENDROOT
BRANCH   1  10
ATOM     10  C   UNL     1     -11.173  -0.199 -23.022  0.00  0.00    +0.151 C 
BRANCH  10  11
ATOM     11  C   UNL     1     -11.879  -1.119 -22.064  0.00  0.00    -0.028 A 
ATOM     12  C   UNL     1     -11.924  -0.821 -20.694  0.00  0.00    +0.005 A 
ATOM     13  C   UNL     1     -12.510  -2.286 -22.521  0.00  0.00    +0.005 A 
ATOM     14  C   UNL     1     -12.606  -1.660 -19.809  0.00  0.00    +0.000 A 
ATOM     15  C   UNL     1     -13.189  -3.120 -21.634  0.00  0.00    +0.000 A 
ATOM     16  C   UNL     1     -13.239  -2.806 -20.278  0.00  0.00    +0.000 A 
ENDBRANCH  10  11
ENDBRANCH   1  10
TORSDOF 2
ENDMDL
MODEL 5
REMARK VINA RESULT:    -4.787     10.086     10.988
REMARK INTER + INTRA:          -5.443
REMARK INTER:                  -5.321
REMARK INTRA:                  -0.123
REMARK UNBOUND:                -0.096
REMARK  Name = 1550473
REMARK  2 active torsions:
REMARK  status: ('A' for Active; 'I' for Inactive)
REMARK    1  A    between atoms: N_1  and  C_4
REMARK    2  A    between atoms: C_4  and  C_5
REMARK                            x       y       z     vdW  Elec       q    Type
REMARK                         _______ _______ _______ _____ _____    ______ ____
ROOT
ATOM      1  N   UNL     1      -5.120  -0.312 -30.188  0.00  0.00    -0.354 N 
ATOM      2  N   UNL     1      -2.884  -0.364 -30.791  0.00  0.00    -0.372 N 
ATOM      3  N   UNL     1      -3.671  -1.932 -29.311  0.00  0.00    -0.372 N 
ATOM      4  C   UNL     1      -3.906  -0.871 -30.091  0.00  0.00    +0.166 C 
ATOM      5  H   UNL     1      -5.226   0.509 -30.773  0.00  0.00    +0.163 HD
ATOM      6  H   UNL     1      -1.958  -0.767 -30.740  0.00  0.00    +0.159 HD
ATOM      7  H   UNL     1      -3.003   0.428 -31.410  0.00  0.00    +0.159 HD
ATOM      8  H   UNL     1      -4.398  -2.358 -28.753  0.00  0.00    +0.159 HD
ATOM      9  H   UNL     1      -2.748  -2.342 -29.239  0.00  0.00    +0.159 HD
ENDROOT
BRANCH   1  10
ATOM     10  C   UNL     1      -6.311  -0.820 -29.510  0.00  0.00    +0.151 C 
BRANCH  10  11
ATOM     11  C   UNL     1      -7.470   0.090 -29.806  0.00  0.00    -0.028 A 
ATOM     12  C   UNL     1      -7.257   1.350 -30.385  0.00  0.00    +0.005 A 
ATOM     13  C   UNL     1      -8.785  -0.302 -29.514  0.00  0.00    +0.005 A 
ATOM     14  C   UNL     1      -8.336   2.184 -30.688  0.00  0.00    +0.000 A 
ATOM     15  C   UNL     1      -9.860   0.534 -29.816  0.00  0.00    +0.000 A 
ATOM     16  C   UNL     1      -9.635   1.775 -30.405  0.00  0.00    +0.000 A 
ENDBRANCH  10  11
ENDBRANCH   1  10
TORSDOF 2
ENDMDL
MODEL 6
REMARK VINA RESULT:    -4.564     10.715     11.432
REMARK INTER + INTRA:          -5.194
REMARK INTER:                  -5.029
REMARK INTRA:                  -0.165
REMARK UNBOUND:                -0.096
REMARK  Name = 1550473
REMARK  2 active torsions:
REMARK  status: ('A' for Active; 'I' for Inactive)
REMARK    1  A    between atoms: N_1  and  C_4
REMARK    2  A    between atoms: C_4  and  C_5
REMARK                            x       y       z     vdW  Elec       q    Type
REMARK                         _______ _______ _______ _____ _____    ______ ____
ROOT
ATOM      1  N   UNL     1      -2.874  -0.055 -23.914  0.00  0.00    -0.354 N 
ATOM      2  N   UNL     1      -4.321  -1.121 -25.374  0.00  0.00    -0.372 N 
ATOM      3  N   UNL     1      -2.070  -1.530 -25.548  0.00  0.00    -0.372 N 
ATOM      4  C   UNL     1      -3.077  -0.896 -24.937  0.00  0.00    +0.166 C 
ATOM      5  H   UNL     1      -3.676   0.417 -23.513  0.00  0.00    +0.163 HD
ATOM      6  H   UNL     1      -4.505  -1.753 -26.142  0.00  0.00    +0.159 HD
ATOM      7  H   UNL     1      -5.125  -0.683 -24.942  0.00  0.00    +0.159 HD
ATOM      8  H   UNL     1      -1.107  -1.399 -25.269  0.00  0.00    +0.159 HD
ATOM      9  H   UNL     1      -2.233  -2.158 -26.326  0.00  0.00    +0.159 HD
ENDROOT
BRANCH   1  10
ATOM     10  C   UNL     1      -1.563   0.217 -23.327  0.00  0.00    +0.151 C 
BRANCH  10  11
ATOM     11  C   UNL     1      -1.069   1.547 -23.826  0.00  0.00    -0.028 A 
ATOM     12  C   UNL     1      -1.299   2.716 -23.085  0.00  0.00    +0.005 A 
ATOM     13  C   UNL     1      -0.364   1.644 -25.035  0.00  0.00    +0.005 A 
ATOM     14  C   UNL     1      -0.813   3.947 -23.534  0.00  0.00    +0.000 A 
ATOM     15  C   UNL     1       0.118   2.875 -25.480  0.00  0.00    +0.000 A 
ATOM     16  C   UNL     1      -0.105   4.025 -24.728  0.00  0.00    +0.000 A 
ENDBRANCH  10  11
ENDBRANCH   1  10
TORSDOF 2
ENDMDL
MODEL 7
REMARK VINA RESULT:    -4.467      3.588      5.194
REMARK INTER + INTRA:          -5.085
REMARK INTER:                  -4.978
REMARK INTRA:                  -0.107
REMARK UNBOUND:                -0.096
REMARK  Name = 1550473
REMARK  2 active torsions:
REMARK  status: ('A' for Active; 'I' for Inactive)
REMARK    1  A    between atoms: N_1  and  C_4
REMARK    2  A    between atoms: C_4  and  C_5
REMARK                            x       y       z     vdW  Elec       q    Type
REMARK                         _______ _______ _______ _____ _____    ______ ____
ROOT
ATOM      1  N   UNL     1     -13.151  -0.224 -23.595  0.00  0.00    -0.354 N 
ATOM      2  N   UNL     1     -12.737   0.200 -25.834  0.00  0.00    -0.372 N 
ATOM      3  N   UNL     1     -10.982  -0.374 -24.472  0.00  0.00    -0.372 N 
ATOM      4  C   UNL     1     -12.290  -0.136 -24.618  0.00  0.00    +0.166 C 
ATOM      5  H   UNL     1     -14.125  -0.002 -23.766  0.00  0.00    +0.163 HD
ATOM      6  H   UNL     1     -12.111   0.271 -26.626  0.00  0.00    +0.159 HD
ATOM      7  H   UNL     1     -13.718   0.377 -26.011  0.00  0.00    +0.159 HD
ATOM      8  H   UNL     1     -10.581  -0.626 -23.578  0.00  0.00    +0.159 HD
ATOM      9  H   UNL     1     -10.339  -0.296 -25.249  0.00  0.00    +0.159 HD
ENDROOT
BRANCH   1  10
ATOM     10  C   UNL     1     -12.775  -0.634 -22.244  0.00  0.00    +0.151 C 
BRANCH  10  11
ATOM     11  C   UNL     1     -12.988   0.519 -21.303  0.00  0.00    -0.028 A 
ATOM     12  C   UNL     1     -12.723   1.833 -21.716  0.00  0.00    +0.005 A 
ATOM     13  C   UNL     1     -13.462   0.306 -19.999  0.00  0.00    +0.005 A 
ATOM     14  C   UNL     1     -12.950   2.908 -20.852  0.00  0.00    +0.000 A 
ATOM     15  C   UNL     1     -13.686   1.381 -19.140  0.00  0.00    +0.000 A 
ATOM     16  C   UNL     1     -13.433   2.682 -19.568  0.00  0.00    +0.000 A 
ENDBRANCH  10  11
ENDBRANCH   1  10
TORSDOF 2
ENDMDL
MODEL 8
REMARK VINA RESULT:    -4.399     18.975     19.692
REMARK INTER + INTRA:          -5.010
REMARK INTER:                  -4.898
REMARK INTRA:                  -0.112
REMARK UNBOUND:                -0.096
REMARK  Name = 1550473
REMARK  2 active torsions:
REMARK  status: ('A' for Active; 'I' for Inactive)
REMARK    1  A    between atoms: N_1  and  C_4
REMARK    2  A    between atoms: C_4  and  C_5
REMARK                            x       y       z     vdW  Elec       q    Type
REMARK                         _______ _______ _______ _____ _____    ______ ____
ROOT
ATOM      1  N   UNL     1       5.617  -9.984 -20.395  0.00  0.00    -0.354 N 
ATOM      2  N   UNL     1       6.487  -8.874 -18.558  0.00  0.00    -0.372 N 
ATOM      3  N   UNL     1       6.563  -7.851 -20.610  0.00  0.00    -0.372 N 
ATOM      4  C   UNL     1       6.218  -8.909 -19.869  0.00  0.00    +0.166 C 
ATOM      5  H   UNL     1       5.408 -10.766 -19.785  0.00  0.00    +0.163 HD
ATOM      6  H   UNL     1       6.936  -8.075 -18.132  0.00  0.00    +0.159 HD
ATOM      7  H   UNL     1       6.235  -9.638 -17.942  0.00  0.00    +0.159 HD
ATOM      8  H   UNL     1       6.393  -7.817 -21.607  0.00  0.00    +0.159 HD
ATOM      9  H   UNL     1       7.024  -7.046 -20.204  0.00  0.00    +0.159 HD
ENDROOT
BRANCH   1  10
ATOM     10  C   UNL     1       5.232 -10.099 -21.801  0.00  0.00    +0.151 C 
BRANCH  10  11
ATOM     11  C   UNL     1       4.530 -11.412 -22.012  0.00  0.00    -0.028 A 
ATOM     12  C   UNL     1       3.461 -11.511 -22.914  0.00  0.00    +0.005 A 
ATOM     13  C   UNL     1       4.932 -12.563 -21.316  0.00  0.00    +0.005 A 
ATOM     14  C   UNL     1       2.827 -12.737 -23.133  0.00  0.00    +0.000 A 
ATOM     15  C   UNL     1       4.297 -13.785 -21.537  0.00  0.00    +0.000 A 
ATOM     16  C   UNL     1       3.246 -13.872 -22.447  0.00  0.00    +0.000 A 
ENDBRANCH  10  11
ENDBRANCH   1  10
TORSDOF 2
ENDMDL
MODEL 9
REMARK VINA RESULT:    -4.290     18.102     19.165
REMARK INTER + INTRA:          -4.887
REMARK INTER:                  -4.734
REMARK INTRA:                  -0.153
REMARK UNBOUND:                -0.096
REMARK  Name = 1550473
REMARK  2 active torsions:
REMARK  status: ('A' for Active; 'I' for Inactive)
REMARK    1  A    between atoms: N_1  and  C_4
REMARK    2  A    between atoms: C_4  and  C_5
REMARK                            x       y       z     vdW  Elec       q    Type
REMARK                         _______ _______ _______ _____ _____    ______ ____
ROOT
ATOM      1  N   UNL     1       3.252 -10.120 -24.992  0.00  0.00    -0.354 N 
ATOM      2  N   UNL     1       4.487  -8.557 -26.173  0.00  0.00    -0.372 N 
ATOM      3  N   UNL     1       3.259  -7.862 -24.364  0.00  0.00    -0.372 N 
ATOM      4  C   UNL     1       3.656  -8.855 -25.166  0.00  0.00    +0.166 C 
ATOM      5  H   UNL     1       3.566 -10.821 -25.653  0.00  0.00    +0.163 HD
ATOM      6  H   UNL     1       4.812  -7.612 -26.328  0.00  0.00    +0.159 HD
ATOM      7  H   UNL     1       4.835  -9.268 -26.805  0.00  0.00    +0.159 HD
ATOM      8  H   UNL     1       2.628  -8.020 -23.589  0.00  0.00    +0.159 HD
ATOM      9  H   UNL     1       3.564  -6.908 -24.509  0.00  0.00    +0.159 HD
ENDROOT
BRANCH   1  10
ATOM     10  C   UNL     1       2.392 -10.559 -23.894  0.00  0.00    +0.151 C 
BRANCH  10  11
ATOM     11  C   UNL     1       3.142 -11.550 -23.048  0.00  0.00    -0.028 A 
ATOM     12  C   UNL     1       2.716 -12.884 -22.966  0.00  0.00    +0.005 A 
ATOM     13  C   UNL     1       4.284 -11.163 -22.329  0.00  0.00    +0.005 A 
ATOM     14  C   UNL     1       3.430 -13.812 -22.204  0.00  0.00    +0.000 A 
ATOM     15  C   UNL     1       4.993 -12.092 -21.569  0.00  0.00    +0.000 A 
ATOM     16  C   UNL     1       4.568 -13.417 -21.509  0.00  0.00    +0.000 A 
ENDBRANCH  10  11
ENDBRANCH   1  10
TORSDOF 2
ENDMDL
