MODEL 1
REMARK VINA RESULT:    -5.618      0.000      0.000
REMARK INTER + INTRA:          -6.396
REMARK INTER:                  -6.275
REMARK INTRA:                  -0.121
REMARK UNBOUND:                -0.121
REMARK  Name = 1550473
REMARK  2 active torsions:
REMARK  status: ('A' for Active; 'I' for Inactive)
REMARK    1  A    between atoms: N_1  and  C_4
REMARK    2  A    between atoms: C_4  and  C_5
REMARK                            x       y       z     vdW  Elec       q    Type
REMARK                         _______ _______ _______ _____ _____    ______ ____
ROOT
ATOM      1  N   UNL     1      -2.556   0.006  -1.803  0.00  0.00    -0.354 N 
ATOM      2  N   UNL     1      -1.761   0.141  -3.974  0.00  0.00    -0.372 N 
ATOM      3  N   UNL     1      -0.255   0.035  -2.247  0.00  0.00    -0.372 N 
ATOM      4  C   UNL     1      -1.526   0.060  -2.659  0.00  0.00    +0.166 C 
ATOM      5  H   UNL     1      -3.496   0.060  -2.177  0.00  0.00    +0.163 HD
ATOM      6  H   UNL     1      -1.004   0.179  -4.644  0.00  0.00    +0.159 HD
ATOM      7  H   UNL     1      -2.702   0.148  -4.349  0.00  0.00    +0.159 HD
ATOM      8  H   UNL     1      -0.010  -0.020  -1.267  0.00  0.00    +0.159 HD
ATOM      9  H   UNL     1       0.516   0.084  -2.901  0.00  0.00    +0.159 HD
ENDROOT
BRANCH   1  10
ATOM     10  C   UNL     1      -2.409  -0.137  -0.356  0.00  0.00    +0.151 C 
BRANCH  10  11
ATOM     11  C   UNL     1      -3.705   0.235   0.309  0.00  0.00    -0.028 A 
ATOM     12  C   UNL     1      -3.734   0.586   1.666  0.00  0.00    +0.005 A 
ATOM     13  C   UNL     1      -4.907   0.246  -0.415  0.00  0.00    +0.005 A 
ATOM     14  C   UNL     1      -4.934   0.961   2.277  0.00  0.00    +0.000 A 
ATOM     15  C   UNL     1      -6.103   0.620   0.198  0.00  0.00    +0.000 A 
ATOM     16  C   UNL     1      -6.115   0.980   1.543  0.00  0.00    +0.000 A 
ENDBRANCH  10  11
ENDBRANCH   1  10
TORSDOF 2
ENDMDL
MODEL 2
REMARK VINA RESULT:    -5.227      9.853     11.563
REMARK INTER + INTRA:          -5.959
REMARK INTER:                  -5.855
REMARK INTRA:                  -0.104
REMARK UNBOUND:                -0.121
REMARK  Name = 1550473
REMARK  2 active torsions:
REMARK  status: ('A' for Active; 'I' for Inactive)
REMARK    1  A    between atoms: N_1  and  C_4
REMARK    2  A    between atoms: C_4  and  C_5
REMARK                            x       y       z     vdW  Elec       q    Type
REMARK                         _______ _______ _______ _____ _____    ______ ____
ROOT
ATOM      1  N   UNL     1      -5.158   8.249   8.230  0.00  0.00    -0.354 N 
ATOM      2  N   UNL     1      -5.866  10.434   8.526  0.00  0.00    -0.372 N 
ATOM      3  N   UNL     1      -6.728   8.795   9.881  0.00  0.00    -0.372 N 
ATOM      4  C   UNL     1      -5.914   9.143   8.879  0.00  0.00    +0.166 C 
ATOM      5  H   UNL     1      -4.584   8.572   7.459  0.00  0.00    +0.163 HD
ATOM      6  H   UNL     1      -6.423  11.132   9.000  0.00  0.00    +0.159 HD
ATOM      7  H   UNL     1      -5.258  10.761   7.786  0.00  0.00    +0.159 HD
ATOM      8  H   UNL     1      -6.815   7.836  10.192  0.00  0.00    +0.159 HD
ATOM      9  H   UNL     1      -7.302   9.478  10.360  0.00  0.00    +0.159 HD
ENDROOT
BRANCH   1  10
ATOM     10  C   UNL     1      -5.096   6.828   8.571  0.00  0.00    +0.151 C 
BRANCH  10  11
ATOM     11  C   UNL     1      -4.327   6.099   7.504  0.00  0.00    -0.028 A 
ATOM     12  C   UNL     1      -4.757   6.131   6.170  0.00  0.00    +0.005 A 
ATOM     13  C   UNL     1      -3.165   5.380   7.821  0.00  0.00    +0.005 A 
ATOM     14  C   UNL     1      -4.027   5.479   5.173  0.00  0.00    +0.000 A 
ATOM     15  C   UNL     1      -2.439   4.730   6.823  0.00  0.00    +0.000 A 
ATOM     16  C   UNL     1      -2.868   4.781   5.499  0.00  0.00    +0.000 A 
ENDBRANCH  10  11
ENDBRANCH   1  10
TORSDOF 2
ENDMDL
MODEL 3
REMARK VINA RESULT:    -5.081     12.327     12.645
REMARK INTER + INTRA:          -5.797
REMARK INTER:                  -5.653
REMARK INTRA:                  -0.144
REMARK UNBOUND:                -0.121
REMARK  Name = 1550473
REMARK  2 active torsions:
REMARK  status: ('A' for Active; 'I' for Inactive)
REMARK    1  A    between atoms: N_1  and  C_4
REMARK    2  A    between atoms: C_4  and  C_5
REMARK                            x       y       z     vdW  Elec       q    Type
REMARK                         _______ _______ _______ _____ _____    ______ ____
ROOT
ATOM      1  N   UNL     1      -5.413 -10.280   2.965  0.00  0.00    -0.354 N 
ATOM      2  N   UNL     1      -5.139  -8.819   1.189  0.00  0.00    -0.372 N 
ATOM      3  N   UNL     1      -5.346 -11.063   0.757  0.00  0.00    -0.372 N 
ATOM      4  C   UNL     1      -5.301 -10.066   1.647  0.00  0.00    +0.166 C 
ATOM      5  H   UNL     1      -5.340  -9.485   3.589  0.00  0.00    +0.163 HD
ATOM      6  H   UNL     1      -5.055  -8.626   0.200  0.00  0.00    +0.159 HD
ATOM      7  H   UNL     1      -5.112  -8.021   1.812  0.00  0.00    +0.159 HD
ATOM      8  H   UNL     1      -5.461 -12.027   1.039  0.00  0.00    +0.159 HD
ATOM      9  H   UNL     1      -5.253 -10.891  -0.236  0.00  0.00    +0.159 HD
ENDROOT
BRANCH   1  10
ATOM     10  C   UNL     1      -5.646 -11.593   3.563  0.00  0.00    +0.151 C 
BRANCH  10  11
ATOM     11  C   UNL     1      -6.822 -11.506   4.496  0.00  0.00    -0.028 A 
ATOM     12  C   UNL     1      -7.467 -10.280   4.716  0.00  0.00    +0.005 A 
ATOM     13  C   UNL     1      -7.301 -12.647   5.159  0.00  0.00    +0.005 A 
ATOM     14  C   UNL     1      -8.578 -10.204   5.559  0.00  0.00    +0.000 A 
ATOM     15  C   UNL     1      -8.410 -12.566   6.000  0.00  0.00    +0.000 A 
ATOM     16  C   UNL     1      -9.050 -11.345   6.198  0.00  0.00    +0.000 A 
ENDBRANCH  10  11
ENDBRANCH   1  10
TORSDOF 2
ENDMDL
MODEL 4
REMARK VINA RESULT:    -5.041      3.332      4.195
REMARK INTER + INTRA:          -5.752
REMARK INTER:                  -5.605
REMARK INTRA:                  -0.147
REMARK UNBOUND:                -0.121
REMARK  Name = 1550473
REMARK  2 active torsions:
REMARK  status: ('A' for Active; 'I' for Inactive)
REMARK    1  A    between atoms: N_1  and  C_4
REMARK    2  A    between atoms: C_4  and  C_5
REMARK                            x       y       z     vdW  Elec       q    Type
REMARK                         _______ _______ _______ _____ _____    ______ ____
ROOT
ATOM      1  N   UNL     1      -6.098  -1.231  -3.059  0.00  0.00    -0.354 N 
ATOM      2  N   UNL     1      -7.834  -0.851  -4.544  0.00  0.00    -0.372 N 
ATOM      3  N   UNL     1      -7.931  -2.686  -3.171  0.00  0.00    -0.372 N 
ATOM      4  C   UNL     1      -7.277  -1.595  -3.580  0.00  0.00    +0.166 C 
ATOM      5  H   UNL     1      -5.638  -0.409  -3.434  0.00  0.00    +0.163 HD
ATOM      6  H   UNL     1      -8.724  -1.098  -4.954  0.00  0.00    +0.159 HD
ATOM      7  H   UNL     1      -7.394  -0.005  -4.885  0.00  0.00    +0.159 HD
ATOM      8  H   UNL     1      -7.562  -3.293  -2.451  0.00  0.00    +0.159 HD
ATOM      9  H   UNL     1      -8.818  -2.957  -3.577  0.00  0.00    +0.159 HD
ENDROOT
BRANCH   1  10
ATOM     10  C   UNL     1      -5.432  -1.942  -1.968  0.00  0.00    +0.151 C 
BRANCH  10  11
ATOM     11  C   UNL     1      -5.162  -0.977  -0.847  0.00  0.00    -0.028 A 
ATOM     12  C   UNL     1      -3.850  -0.744  -0.409  0.00  0.00    +0.005 A 
ATOM     13  C   UNL     1      -6.213  -0.289  -0.221  0.00  0.00    +0.005 A 
ATOM     14  C   UNL     1      -3.595   0.174   0.613  0.00  0.00    +0.000 A 
ATOM     15  C   UNL     1      -5.955   0.626   0.799  0.00  0.00    +0.000 A 
ATOM     16  C   UNL     1      -4.646   0.859   1.214  0.00  0.00    +0.000 A 
ENDBRANCH  10  11
ENDBRANCH   1  10
TORSDOF 2
ENDMDL
MODEL 5
REMARK VINA RESULT:    -5.022     14.188     14.756
REMARK INTER + INTRA:          -5.730
REMARK INTER:                  -5.592
REMARK INTRA:                  -0.139
REMARK UNBOUND:                -0.121
REMARK  Name = 1550473
REMARK  2 active torsions:
REMARK  status: ('A' for Active; 'I' for Inactive)
REMARK    1  A    between atoms: N_1  and  C_4
REMARK    2  A    between atoms: C_4  and  C_5
REMARK                            x       y       z     vdW  Elec       q    Type
REMARK                         _______ _______ _______ _____ _____    ______ ____
ROOT
ATOM      1  N   UNL     1      -7.045 -13.908   5.287  0.00  0.00    -0.354 N 
ATOM      2  N   UNL     1      -6.982 -16.216   5.107  0.00  0.00    -0.372 N 
ATOM      3  N   UNL     1      -8.991 -15.137   4.848  0.00  0.00    -0.372 N 
ATOM      4  C   UNL     1      -7.676 -15.071   5.082  0.00  0.00    +0.166 C 
ATOM      5  H   UNL     1      -6.052 -13.927   5.489  0.00  0.00    +0.163 HD
ATOM      6  H   UNL     1      -7.430 -17.109   4.952  0.00  0.00    +0.159 HD
ATOM      7  H   UNL     1      -5.981 -16.229   5.263  0.00  0.00    +0.159 HD
ATOM      8  H   UNL     1      -9.572 -14.310   4.822  0.00  0.00    +0.159 HD
ATOM      9  H   UNL     1      -9.459 -16.023   4.702  0.00  0.00    +0.159 HD
ENDROOT
BRANCH   1  10
ATOM     10  C   UNL     1      -7.698 -12.601   5.227  0.00  0.00    +0.151 C 
BRANCH  10  11
ATOM     11  C   UNL     1      -6.817 -11.646   4.470  0.00  0.00    -0.028 A 
ATOM     12  C   UNL     1      -6.980 -10.260   4.616  0.00  0.00    +0.005 A 
ATOM     13  C   UNL     1      -5.814 -12.119   3.611  0.00  0.00    +0.005 A 
ATOM     14  C   UNL     1      -6.142  -9.372   3.937  0.00  0.00    +0.000 A 
ATOM     15  C   UNL     1      -4.980 -11.229   2.934  0.00  0.00    +0.000 A 
ATOM     16  C   UNL     1      -5.143  -9.856   3.099  0.00  0.00    +0.000 A 
ENDBRANCH  10  11
ENDBRANCH   1  10
TORSDOF 2
ENDMDL
MODEL 6
REMARK VINA RESULT:    -4.955      7.393      8.293
REMARK INTER + INTRA:          -5.656
REMARK INTER:                  -5.537
REMARK INTRA:                  -0.119
REMARK UNBOUND:                -0.121
REMARK  Name = 1550473
REMARK  2 active torsions:
REMARK  status: ('A' for Active; 'I' for Inactive)
REMARK    1  A    between atoms: N_1  and  C_4
REMARK    2  A    between atoms: C_4  and  C_5
REMARK                            x       y       z     vdW  Elec       q    Type
REMARK                         _______ _______ _______ _____ _____    ______ ____
ROOT
ATOM      1  N   UNL     1      -0.482   4.453   5.627  0.00  0.00    -0.354 N 
ATOM      2  N   UNL     1       1.791   4.225   6.011  0.00  0.00    -0.372 N 
ATOM      3  N   UNL     1       0.571   2.367   5.442  0.00  0.00    -0.372 N 
ATOM      4  C   UNL     1       0.611   3.680   5.690  0.00  0.00    +0.166 C 
ATOM      5  H   UNL     1      -0.390   5.436   5.856  0.00  0.00    +0.163 HD
ATOM      6  H   UNL     1       2.633   3.669   6.063  0.00  0.00    +0.159 HD
ATOM      7  H   UNL     1       1.888   5.217   6.194  0.00  0.00    +0.159 HD
ATOM      8  H   UNL     1      -0.289   1.894   5.200  0.00  0.00    +0.159 HD
ATOM      9  H   UNL     1       1.401   1.791   5.501  0.00  0.00    +0.159 HD
ENDROOT
BRANCH   1  10
ATOM     10  C   UNL     1      -1.804   3.968   5.234  0.00  0.00    +0.151 C 
BRANCH  10  11
ATOM     11  C   UNL     1      -2.854   4.817   5.895  0.00  0.00    -0.028 A 
ATOM     12  C   UNL     1      -2.836   5.020   7.283  0.00  0.00    +0.005 A 
ATOM     13  C   UNL     1      -3.868   5.425   5.138  0.00  0.00    +0.005 A 
ATOM     14  C   UNL     1      -3.794   5.833   7.893  0.00  0.00    +0.000 A 
ATOM     15  C   UNL     1      -4.823   6.235   5.752  0.00  0.00    +0.000 A 
ATOM     16  C   UNL     1      -4.784   6.441   7.129  0.00  0.00    +0.000 A 
ENDBRANCH  10  11
ENDBRANCH   1  10
TORSDOF 2
ENDMDL
MODEL 7
REMARK VINA RESULT:    -4.840     16.731     17.746
REMARK INTER + INTRA:          -5.527
REMARK INTER:                  -5.434
REMARK INTRA:                  -0.093
REMARK UNBOUND:                -0.121
REMARK  Name = 1550473
REMARK  2 active torsions:
REMARK  status: ('A' for Active; 'I' for Inactive)
REMARK    1  A    between atoms: N_1  and  C_4
REMARK    2  A    between atoms: C_4  and  C_5
REMARK                            x       y       z     vdW  Elec       q    Type
REMARK                         _______ _______ _______ _____ _____    ______ ____
ROOT
ATOM      1  N   UNL     1       6.062 -14.097   2.322  0.00  0.00    -0.354 N 
ATOM      2  N   UNL     1       6.116 -14.818   4.523  0.00  0.00    -0.372 N 
ATOM      3  N   UNL     1       7.573 -15.749   3.015  0.00  0.00    -0.372 N 
ATOM      4  C   UNL     1       6.585 -14.885   3.271  0.00  0.00    +0.166 C 
ATOM      5  H   UNL     1       5.295 -13.485   2.574  0.00  0.00    +0.163 HD
ATOM      6  H   UNL     1       6.493 -15.397   5.261  0.00  0.00    +0.159 HD
ATOM      7  H   UNL     1       5.380 -14.172   4.782  0.00  0.00    +0.159 HD
ATOM      8  H   UNL     1       7.968 -15.853   2.090  0.00  0.00    +0.159 HD
ATOM      9  H   UNL     1       7.956 -16.346   3.738  0.00  0.00    +0.159 HD
ENDROOT
BRANCH   1  10
ATOM     10  C   UNL     1       6.538 -14.055   0.941  0.00  0.00    +0.151 C 
BRANCH  10  11
ATOM     11  C   UNL     1       7.215 -12.734   0.695  0.00  0.00    -0.028 A 
ATOM     12  C   UNL     1       7.434 -11.839   1.752  0.00  0.00    +0.005 A 
ATOM     13  C   UNL     1       7.644 -12.375  -0.592  0.00  0.00    +0.005 A 
ATOM     14  C   UNL     1       8.089 -10.625   1.529  0.00  0.00    +0.000 A 
ATOM     15  C   UNL     1       8.297 -11.162  -0.810  0.00  0.00    +0.000 A 
ATOM     16  C   UNL     1       8.522 -10.289   0.251  0.00  0.00    +0.000 A 
ENDBRANCH  10  11
ENDBRANCH   1  10
TORSDOF 2
ENDMDL
MODEL 8
REMARK VINA RESULT:    -4.756     16.016     18.691
REMARK INTER + INTRA:          -5.434
REMARK INTER:                  -5.284
REMARK INTRA:                  -0.150
REMARK UNBOUND:                -0.121
REMARK  Name = 1550473
REMARK  2 active torsions:
REMARK  status: ('A' for Active; 'I' for Inactive)
REMARK    1  A    between atoms: N_1  and  C_4
REMARK    2  A    between atoms: C_4  and  C_5
REMARK                            x       y       z     vdW  Elec       q    Type
REMARK                         _______ _______ _______ _____ _____    ______ ____
ROOT
ATOM      1  N   UNL     1      -0.188   3.555 -16.210  0.00  0.00    -0.354 N 
ATOM      2  N   UNL     1      -2.417   3.186 -15.699  0.00  0.00    -0.372 N 
ATOM      3  N   UNL     1      -1.048   1.380 -16.058  0.00  0.00    -0.372 N 
ATOM      4  C   UNL     1      -1.202   2.706 -15.993  0.00  0.00    +0.166 C 
ATOM      5  H   UNL     1      -0.378   4.550 -16.175  0.00  0.00    +0.163 HD
ATOM      6  H   UNL     1      -3.200   2.570 -15.526  0.00  0.00    +0.159 HD
ATOM      7  H   UNL     1      -2.593   4.180 -15.619  0.00  0.00    +0.159 HD
ATOM      8  H   UNL     1      -0.158   0.955 -16.282  0.00  0.00    +0.159 HD
ATOM      9  H   UNL     1      -1.822   0.747 -15.901  0.00  0.00    +0.159 HD
ENDROOT
BRANCH   1  10
ATOM     10  C   UNL     1       1.185   3.135 -16.484  0.00  0.00    +0.151 C 
BRANCH  10  11
ATOM     11  C   UNL     1       1.585   3.625 -17.849  0.00  0.00    -0.028 A 
ATOM     12  C   UNL     1       0.857   3.243 -18.985  0.00  0.00    +0.005 A 
ATOM     13  C   UNL     1       2.688   4.477 -18.011  0.00  0.00    +0.005 A 
ATOM     14  C   UNL     1       1.210   3.722 -20.248  0.00  0.00    +0.000 A 
ATOM     15  C   UNL     1       3.038   4.952 -19.275  0.00  0.00    +0.000 A 
ATOM     16  C   UNL     1       2.298   4.577 -20.393  0.00  0.00    +0.000 A 
ENDBRANCH  10  11
ENDBRANCH   1  10
TORSDOF 2
ENDMDL
MODEL 9
REMARK VINA RESULT:    -4.680     10.653     12.451
REMARK INTER + INTRA:          -5.348
REMARK INTER:                  -5.226
REMARK INTRA:                  -0.121
REMARK UNBOUND:                -0.121
REMARK  Name = 1550473
REMARK  2 active torsions:
REMARK  status: ('A' for Active; 'I' for Inactive)
REMARK    1  A    between atoms: N_1  and  C_4
REMARK    2  A    between atoms: C_4  and  C_5
REMARK                            x       y       z     vdW  Elec       q    Type
REMARK                         _______ _______ _______ _____ _____    ______ ____
ROOT
ATOM      1  N   UNL     1      -7.008  -0.506   9.739  0.00  0.00    -0.354 N 
ATOM      2  N   UNL     1      -5.617  -1.662   8.292  0.00  0.00    -0.372 N 
ATOM      3  N   UNL     1      -5.990   0.573   7.925  0.00  0.00    -0.372 N 
ATOM      4  C   UNL     1      -6.214  -0.522   8.660  0.00  0.00    +0.166 C 
ATOM      5  H   UNL     1      -7.161  -1.376  10.236  0.00  0.00    +0.163 HD
ATOM      6  H   UNL     1      -5.010  -1.703   7.485  0.00  0.00    +0.159 HD
ATOM      7  H   UNL     1      -5.735  -2.519   8.818  0.00  0.00    +0.159 HD
ATOM      8  H   UNL     1      -6.415   1.463   8.146  0.00  0.00    +0.159 HD
ATOM      9  H   UNL     1      -5.395   0.548   7.106  0.00  0.00    +0.159 HD
ENDROOT
BRANCH   1  10
ATOM     10  C   UNL     1      -7.662   0.695  10.256  0.00  0.00    +0.151 C 
BRANCH  10  11
ATOM     11  C   UNL     1      -7.531   0.720  11.754  0.00  0.00    -0.028 A 
ATOM     12  C   UNL     1      -7.725  -0.448  12.505  0.00  0.00    +0.005 A 
ATOM     13  C   UNL     1      -7.206   1.908  12.427  0.00  0.00    +0.005 A 
ATOM     14  C   UNL     1      -7.573  -0.431  13.894  0.00  0.00    +0.000 A 
ATOM     15  C   UNL     1      -7.057   1.921  13.813  0.00  0.00    +0.000 A 
ATOM     16  C   UNL     1      -7.238   0.750  14.546  0.00  0.00    +0.000 A 
ENDBRANCH  10  11
ENDBRANCH   1  10
TORSDOF 2
ENDMDL
