MODEL 1
REMARK VINA RESULT:    -5.205      0.000      0.000
REMARK INTER + INTRA:          -5.993
REMARK INTER:                  -5.813
REMARK INTRA:                  -0.180
REMARK UNBOUND:                -0.180
REMARK  Name = 1550473
REMARK  2 active torsions:
REMARK  status: ('A' for Active; 'I' for Inactive)
REMARK    1  A    between atoms: N_1  and  C_4
REMARK    2  A    between atoms: C_4  and  C_5
REMARK                            x       y       z     vdW  Elec       q    Type
REMARK                         _______ _______ _______ _____ _____    ______ ____
ROOT
ATOM      1  N   UNL     1     -18.867  -9.971  -2.395  0.00  0.00    -0.354 N 
ATOM      2  N   UNL     1     -17.241 -11.300  -3.371  0.00  0.00    -0.372 N 
ATOM      3  N   UNL     1     -16.686 -10.033  -1.541  0.00  0.00    -0.372 N 
ATOM      4  C   UNL     1     -17.607 -10.425  -2.427  0.00  0.00    +0.166 C 
ATOM      5  H   UNL     1     -19.510 -10.284  -3.114  0.00  0.00    +0.163 HD
ATOM      6  H   UNL     1     -16.298 -11.663  -3.419  0.00  0.00    +0.159 HD
ATOM      7  H   UNL     1     -17.897 -11.646  -4.061  0.00  0.00    +0.159 HD
ATOM      8  H   UNL     1     -16.897  -9.370  -0.807  0.00  0.00    +0.159 HD
ATOM      9  H   UNL     1     -15.734 -10.375  -1.579  0.00  0.00    +0.159 HD
ENDROOT
BRANCH   1  10
ATOM     10  C   UNL     1     -19.382  -9.058  -1.377  0.00  0.00    +0.151 C 
BRANCH  10  11
ATOM     11  C   UNL     1     -19.385  -7.659  -1.929  0.00  0.00    -0.028 A 
ATOM     12  C   UNL     1     -18.608  -6.656  -1.332  0.00  0.00    +0.005 A 
ATOM     13  C   UNL     1     -20.160  -7.331  -3.052  0.00  0.00    +0.005 A 
ATOM     14  C   UNL     1     -18.588  -5.364  -1.862  0.00  0.00    +0.000 A 
ATOM     15  C   UNL     1     -20.138  -6.040  -3.578  0.00  0.00    +0.000 A 
ATOM     16  C   UNL     1     -19.350  -5.057  -2.984  0.00  0.00    +0.000 A 
ENDBRANCH  10  11
ENDBRANCH   1  10
TORSDOF 2
ENDMDL
MODEL 2
REMARK VINA RESULT:    -5.185     34.740     36.107
REMARK INTER + INTRA:          -5.971
REMARK INTER:                  -5.861
REMARK INTRA:                  -0.110
REMARK UNBOUND:                -0.180
REMARK  Name = 1550473
REMARK  2 active torsions:
REMARK  status: ('A' for Active; 'I' for Inactive)
REMARK    1  A    between atoms: N_1  and  C_4
REMARK    2  A    between atoms: C_4  and  C_5
REMARK                            x       y       z     vdW  Elec       q    Type
REMARK                         _______ _______ _______ _____ _____    ______ ____
ROOT
ATOM      1  N   UNL     1      10.339   6.901  13.980  0.00  0.00    -0.354 N 
ATOM      2  N   UNL     1      11.648   6.827  12.071  0.00  0.00    -0.372 N 
ATOM      3  N   UNL     1      12.646   6.508  14.113  0.00  0.00    -0.372 N 
ATOM      4  C   UNL     1      11.538   6.745  13.402  0.00  0.00    +0.166 C 
ATOM      5  H   UNL     1       9.543   7.109  13.388  0.00  0.00    +0.163 HD
ATOM      6  H   UNL     1      12.539   6.711  11.607  0.00  0.00    +0.159 HD
ATOM      7  H   UNL     1      10.843   6.990  11.478  0.00  0.00    +0.159 HD
ATOM      8  H   UNL     1      12.631   6.440  15.122  0.00  0.00    +0.159 HD
ATOM      9  H   UNL     1      13.548   6.400  13.667  0.00  0.00    +0.159 HD
ENDROOT
BRANCH   1  10
ATOM     10  C   UNL     1      10.102   6.777  15.417  0.00  0.00    +0.151 C 
BRANCH  10  11
ATOM     11  C   UNL     1       8.622   6.832  15.677  0.00  0.00    -0.028 A 
ATOM     12  C   UNL     1       7.732   6.085  14.891  0.00  0.00    +0.005 A 
ATOM     13  C   UNL     1       8.103   7.626  16.712  0.00  0.00    +0.005 A 
ATOM     14  C   UNL     1       6.360   6.112  15.152  0.00  0.00    +0.000 A 
ATOM     15  C   UNL     1       6.732   7.651  16.968  0.00  0.00    +0.000 A 
ATOM     16  C   UNL     1       5.861   6.892  16.189  0.00  0.00    +0.000 A 
ENDBRANCH  10  11
ENDBRANCH   1  10
TORSDOF 2
ENDMDL
MODEL 3
REMARK VINA RESULT:    -5.177     34.715     36.059
REMARK INTER + INTRA:          -5.962
REMARK INTER:                  -5.853
REMARK INTRA:                  -0.108
REMARK UNBOUND:                -0.180
REMARK  Name = 1550473
REMARK  2 active torsions:
REMARK  status: ('A' for Active; 'I' for Inactive)
REMARK    1  A    between atoms: N_1  and  C_4
REMARK    2  A    between atoms: C_4  and  C_5
REMARK                            x       y       z     vdW  Elec       q    Type
REMARK                         _______ _______ _______ _____ _____    ______ ____
ROOT
ATOM      1  N   UNL     1      10.303   6.892  13.936  0.00  0.00    -0.354 N 
ATOM      2  N   UNL     1      11.571   6.852  11.999  0.00  0.00    -0.372 N 
ATOM      3  N   UNL     1      12.611   6.497  14.013  0.00  0.00    -0.372 N 
ATOM      4  C   UNL     1      11.489   6.747  13.331  0.00  0.00    +0.166 C 
ATOM      5  H   UNL     1       9.494   7.111  13.365  0.00  0.00    +0.163 HD
ATOM      6  H   UNL     1      12.452   6.744  11.514  0.00  0.00    +0.159 HD
ATOM      7  H   UNL     1      10.754   7.025  11.426  0.00  0.00    +0.159 HD
ATOM      8  H   UNL     1      12.617   6.412  15.021  0.00  0.00    +0.159 HD
ATOM      9  H   UNL     1      13.504   6.398  13.547  0.00  0.00    +0.159 HD
ENDROOT
BRANCH   1  10
ATOM     10  C   UNL     1      10.096   6.744  15.375  0.00  0.00    +0.151 C 
BRANCH  10  11
ATOM     11  C   UNL     1       8.622   6.805  15.669  0.00  0.00    -0.028 A 
ATOM     12  C   UNL     1       8.132   7.644  16.681  0.00  0.00    +0.005 A 
ATOM     13  C   UNL     1       7.710   6.032  14.935  0.00  0.00    +0.005 A 
ATOM     14  C   UNL     1       6.760   7.724  16.933  0.00  0.00    +0.000 A 
ATOM     15  C   UNL     1       6.341   6.114  15.191  0.00  0.00    +0.000 A 
ATOM     16  C   UNL     1       5.867   6.962  16.188  0.00  0.00    +0.000 A 
ENDBRANCH  10  11
ENDBRANCH   1  10
TORSDOF 2
ENDMDL
MODEL 4
REMARK VINA RESULT:    -5.177      1.833      2.763
REMARK INTER + INTRA:          -5.962
REMARK INTER:                  -5.815
REMARK INTRA:                  -0.147
REMARK UNBOUND:                -0.180
REMARK  Name = 1550473
REMARK  2 active torsions:
REMARK  status: ('A' for Active; 'I' for Inactive)
REMARK    1  A    between atoms: N_1  and  C_4
REMARK    2  A    between atoms: C_4  and  C_5
REMARK                            x       y       z     vdW  Elec       q    Type
REMARK                         _______ _______ _______ _____ _____    ______ ____
ROOT
ATOM      1  N   UNL     1     -19.238  -9.258  -1.883  0.00  0.00    -0.354 N 
ATOM      2  N   UNL     1     -19.471  -9.838   0.348  0.00  0.00    -0.372 N 
ATOM      3  N   UNL     1     -21.147  -8.645  -0.670  0.00  0.00    -0.372 N 
ATOM      4  C   UNL     1     -19.953  -9.242  -0.750  0.00  0.00    +0.166 C 
ATOM      5  H   UNL     1     -18.326  -9.700  -1.870  0.00  0.00    +0.163 HD
ATOM      6  H   UNL     1     -19.990  -9.845   1.216  0.00  0.00    +0.159 HD
ATOM      7  H   UNL     1     -18.580 -10.319   0.345  0.00  0.00    +0.159 HD
ATOM      8  H   UNL     1     -21.564  -8.173  -1.460  0.00  0.00    +0.159 HD
ATOM      9  H   UNL     1     -21.676  -8.632   0.194  0.00  0.00    +0.159 HD
ENDROOT
BRANCH   1  10
ATOM     10  C   UNL     1     -19.696  -8.685  -3.147  0.00  0.00    +0.151 C 
BRANCH  10  11
ATOM     11  C   UNL     1     -19.267  -7.245  -3.218  0.00  0.00    -0.028 A 
ATOM     12  C   UNL     1     -20.219  -6.224  -3.355  0.00  0.00    +0.005 A 
ATOM     13  C   UNL     1     -17.910  -6.895  -3.143  0.00  0.00    +0.005 A 
ATOM     14  C   UNL     1     -19.823  -4.885  -3.391  0.00  0.00    +0.000 A 
ATOM     15  C   UNL     1     -17.519  -5.557  -3.180  0.00  0.00    +0.000 A 
ATOM     16  C   UNL     1     -18.476  -4.552  -3.301  0.00  0.00    +0.000 A 
ENDBRANCH  10  11
ENDBRANCH   1  10
TORSDOF 2
ENDMDL
MODEL 5
REMARK VINA RESULT:    -4.947     34.132     35.066
REMARK INTER + INTRA:          -5.705
REMARK INTER:                  -5.611
REMARK INTRA:                  -0.094
REMARK UNBOUND:                -0.180
REMARK  Name = 1550473
REMARK  2 active torsions:
REMARK  status: ('A' for Active; 'I' for Inactive)
REMARK    1  A    between atoms: N_1  and  C_4
REMARK    2  A    between atoms: C_4  and  C_5
REMARK                            x       y       z     vdW  Elec       q    Type
REMARK                         _______ _______ _______ _____ _____    ______ ____
ROOT
ATOM      1  N   UNL     1       4.267  10.989  15.641  0.00  0.00    -0.354 N 
ATOM      2  N   UNL     1       2.393  12.351  15.654  0.00  0.00    -0.372 N 
ATOM      3  N   UNL     1       4.101  12.800  17.119  0.00  0.00    -0.372 N 
ATOM      4  C   UNL     1       3.601  12.039  16.140  0.00  0.00    +0.166 C 
ATOM      5  H   UNL     1       3.819  10.433  14.921  0.00  0.00    +0.163 HD
ATOM      6  H   UNL     1       1.869  13.139  16.008  0.00  0.00    +0.159 HD
ATOM      7  H   UNL     1       1.969  11.821  14.902  0.00  0.00    +0.159 HD
ATOM      8  H   UNL     1       5.005  12.614  17.533  0.00  0.00    +0.159 HD
ATOM      9  H   UNL     1       3.587  13.587  17.495  0.00  0.00    +0.159 HD
ENDROOT
BRANCH   1  10
ATOM     10  C   UNL     1       5.610  10.597  16.063  0.00  0.00    +0.151 C 
BRANCH  10  11
ATOM     11  C   UNL     1       5.858   9.172  15.652  0.00  0.00    -0.028 A 
ATOM     12  C   UNL     1       5.612   8.120  16.547  0.00  0.00    +0.005 A 
ATOM     13  C   UNL     1       6.333   8.866  14.368  0.00  0.00    +0.005 A 
ATOM     14  C   UNL     1       5.814   6.794  16.156  0.00  0.00    +0.000 A 
ATOM     15  C   UNL     1       6.534   7.541  13.981  0.00  0.00    +0.000 A 
ATOM     16  C   UNL     1       6.272   6.505  14.875  0.00  0.00    +0.000 A 
ENDBRANCH  10  11
ENDBRANCH   1  10
TORSDOF 2
ENDMDL
MODEL 6
REMARK VINA RESULT:    -4.923     12.570     13.974
REMARK INTER + INTRA:          -5.678
REMARK INTER:                  -5.524
REMARK INTRA:                  -0.154
REMARK UNBOUND:                -0.180
REMARK  Name = 1550473
REMARK  2 active torsions:
REMARK  status: ('A' for Active; 'I' for Inactive)
REMARK    1  A    between atoms: N_1  and  C_4
REMARK    2  A    between atoms: C_4  and  C_5
REMARK                            x       y       z     vdW  Elec       q    Type
REMARK                         _______ _______ _______ _____ _____    ______ ____
ROOT
ATOM      1  N   UNL     1     -19.641   5.402  -4.565  0.00  0.00    -0.354 N 
ATOM      2  N   UNL     1     -21.364   4.117  -3.702  0.00  0.00    -0.372 N 
ATOM      3  N   UNL     1     -19.999   3.208  -5.306  0.00  0.00    -0.372 N 
ATOM      4  C   UNL     1     -20.322   4.249  -4.532  0.00  0.00    +0.166 C 
ATOM      5  H   UNL     1     -19.955   6.164  -3.975  0.00  0.00    +0.163 HD
ATOM      6  H   UNL     1     -21.895   3.258  -3.652  0.00  0.00    +0.159 HD
ATOM      7  H   UNL     1     -21.647   4.865  -3.080  0.00  0.00    +0.159 HD
ATOM      8  H   UNL     1     -19.227   3.245  -5.959  0.00  0.00    +0.159 HD
ATOM      9  H   UNL     1     -20.525   2.344  -5.280  0.00  0.00    +0.159 HD
ENDROOT
BRANCH   1  10
ATOM     10  C   UNL     1     -18.458   5.630  -5.394  0.00  0.00    +0.151 C 
BRANCH  10  11
ATOM     11  C   UNL     1     -17.253   5.766  -4.505  0.00  0.00    -0.028 A 
ATOM     12  C   UNL     1     -17.396   6.176  -3.171  0.00  0.00    +0.005 A 
ATOM     13  C   UNL     1     -15.967   5.481  -4.988  0.00  0.00    +0.005 A 
ATOM     14  C   UNL     1     -16.280   6.274  -2.336  0.00  0.00    +0.000 A 
ATOM     15  C   UNL     1     -14.856   5.580  -4.152  0.00  0.00    +0.000 A 
ATOM     16  C   UNL     1     -15.013   5.975  -2.825  0.00  0.00    +0.000 A 
ENDBRANCH  10  11
ENDBRANCH   1  10
TORSDOF 2
ENDMDL
MODEL 7
REMARK VINA RESULT:    -4.862     34.401     35.077
REMARK INTER + INTRA:          -5.611
REMARK INTER:                  -5.432
REMARK INTRA:                  -0.179
REMARK UNBOUND:                -0.180
REMARK  Name = 1550473
REMARK  2 active torsions:
REMARK  status: ('A' for Active; 'I' for Inactive)
REMARK    1  A    between atoms: N_1  and  C_4
REMARK    2  A    between atoms: C_4  and  C_5
REMARK                            x       y       z     vdW  Elec       q    Type
REMARK                         _______ _______ _______ _____ _____    ______ ____
ROOT
ATOM      1  N   UNL     1       7.660   9.085  13.506  0.00  0.00    -0.354 N 
ATOM      2  N   UNL     1       9.953   9.400  13.448  0.00  0.00    -0.372 N 
ATOM      3  N   UNL     1       9.130   7.260  13.545  0.00  0.00    -0.372 N 
ATOM      4  C   UNL     1       8.899   8.577  13.501  0.00  0.00    +0.166 C 
ATOM      5  H   UNL     1       7.552  10.092  13.502  0.00  0.00    +0.163 HD
ATOM      6  H   UNL     1      10.900   9.046  13.439  0.00  0.00    +0.159 HD
ATOM      7  H   UNL     1       9.842  10.405  13.397  0.00  0.00    +0.159 HD
ATOM      8  H   UNL     1       8.378   6.586  13.592  0.00  0.00    +0.159 HD
ATOM      9  H   UNL     1      10.071   6.887  13.549  0.00  0.00    +0.159 HD
ENDROOT
BRANCH   1  10
ATOM     10  C   UNL     1       6.444   8.273  13.508  0.00  0.00    +0.151 C 
BRANCH  10  11
ATOM     11  C   UNL     1       5.891   8.219  14.905  0.00  0.00    -0.028 A 
ATOM     12  C   UNL     1       6.164   7.123  15.737  0.00  0.00    +0.005 A 
ATOM     13  C   UNL     1       5.097   9.263  15.405  0.00  0.00    +0.005 A 
ATOM     14  C   UNL     1       5.675   7.086  17.045  0.00  0.00    +0.000 A 
ATOM     15  C   UNL     1       4.611   9.222  16.712  0.00  0.00    +0.000 A 
ATOM     16  C   UNL     1       4.902   8.135  17.532  0.00  0.00    +0.000 A 
ENDBRANCH  10  11
ENDBRANCH   1  10
TORSDOF 2
ENDMDL
MODEL 8
REMARK VINA RESULT:    -4.676     16.172     17.309
REMARK INTER + INTRA:          -5.402
REMARK INTER:                  -5.302
REMARK INTRA:                  -0.100
REMARK UNBOUND:                -0.180
REMARK  Name = 1550473
REMARK  2 active torsions:
REMARK  status: ('A' for Active; 'I' for Inactive)
REMARK    1  A    between atoms: N_1  and  C_4
REMARK    2  A    between atoms: C_4  and  C_5
REMARK                            x       y       z     vdW  Elec       q    Type
REMARK                         _______ _______ _______ _____ _____    ______ ____
ROOT
ATOM      1  N   UNL     1      -6.516 -15.670   7.516  0.00  0.00    -0.354 N 
ATOM      2  N   UNL     1      -5.805 -15.102   9.645  0.00  0.00    -0.372 N 
ATOM      3  N   UNL     1      -7.710 -14.128   8.815  0.00  0.00    -0.372 N 
ATOM      4  C   UNL     1      -6.684 -14.968   8.644  0.00  0.00    +0.166 C 
ATOM      5  H   UNL     1      -5.701 -16.267   7.437  0.00  0.00    +0.163 HD
ATOM      6  H   UNL     1      -5.907 -14.588  10.510  0.00  0.00    +0.159 HD
ATOM      7  H   UNL     1      -5.017 -15.734   9.581  0.00  0.00    +0.159 HD
ATOM      8  H   UNL     1      -8.404 -13.978   8.096  0.00  0.00    +0.159 HD
ATOM      9  H   UNL     1      -7.823 -13.596   9.669  0.00  0.00    +0.159 HD
ENDROOT
BRANCH   1  10
ATOM     10  C   UNL     1      -7.445 -15.638   6.387  0.00  0.00    +0.151 C 
BRANCH  10  11
ATOM     11  C   UNL     1      -6.770 -16.224   5.178  0.00  0.00    -0.028 A 
ATOM     12  C   UNL     1      -6.616 -15.464   4.010  0.00  0.00    +0.005 A 
ATOM     13  C   UNL     1      -6.278 -17.538   5.197  0.00  0.00    +0.005 A 
ATOM     14  C   UNL     1      -5.963 -15.998   2.897  0.00  0.00    +0.000 A 
ATOM     15  C   UNL     1      -5.626 -18.068   4.083  0.00  0.00    +0.000 A 
ATOM     16  C   UNL     1      -5.467 -17.297   2.934  0.00  0.00    +0.000 A 
ENDBRANCH  10  11
ENDBRANCH   1  10
TORSDOF 2
ENDMDL
MODEL 9
REMARK VINA RESULT:    -4.622     33.691     35.106
REMARK INTER + INTRA:          -5.342
REMARK INTER:                  -5.177
REMARK INTRA:                  -0.165
REMARK UNBOUND:                -0.180
REMARK  Name = 1550473
REMARK  2 active torsions:
REMARK  status: ('A' for Active; 'I' for Inactive)
REMARK    1  A    between atoms: N_1  and  C_4
REMARK    2  A    between atoms: C_4  and  C_5
REMARK                            x       y       z     vdW  Elec       q    Type
REMARK                         _______ _______ _______ _____ _____    ______ ____
ROOT
ATOM      1  N   UNL     1       6.244   8.364  13.527  0.00  0.00    -0.354 N 
ATOM      2  N   UNL     1       6.757   6.427  12.364  0.00  0.00    -0.372 N 
ATOM      3  N   UNL     1       8.462   7.641  13.303  0.00  0.00    -0.372 N 
ATOM      4  C   UNL     1       7.154   7.491  13.073  0.00  0.00    +0.166 C 
ATOM      5  H   UNL     1       5.270   8.210  13.293  0.00  0.00    +0.163 HD
ATOM      6  H   UNL     1       7.419   5.750  12.011  0.00  0.00    +0.159 HD
ATOM      7  H   UNL     1       5.778   6.251  12.170  0.00  0.00    +0.159 HD
ATOM      8  H   UNL     1       8.828   8.425  13.827  0.00  0.00    +0.159 HD
ATOM      9  H   UNL     1       9.142   6.980  12.949  0.00  0.00    +0.159 HD
ENDROOT
BRANCH   1  10
ATOM     10  C   UNL     1       6.567   9.525  14.354  0.00  0.00    +0.151 C 
BRANCH  10  11
ATOM     11  C   UNL     1       6.295   9.193  15.795  0.00  0.00    -0.028 A 
ATOM     12  C   UNL     1       7.125   9.691  16.810  0.00  0.00    +0.005 A 
ATOM     13  C   UNL     1       5.205   8.385  16.153  0.00  0.00    +0.005 A 
ATOM     14  C   UNL     1       6.855   9.408  18.151  0.00  0.00    +0.000 A 
ATOM     15  C   UNL     1       4.939   8.103  17.493  0.00  0.00    +0.000 A 
ATOM     16  C   UNL     1       5.763   8.617  18.492  0.00  0.00    +0.000 A 
ENDBRANCH  10  11
ENDBRANCH   1  10
TORSDOF 2
ENDMDL
