MODEL 1
REMARK VINA RESULT:    -6.277      0.000      0.000
REMARK INTER + INTRA:          -7.111
REMARK INTER:                  -7.011
REMARK INTRA:                  -0.100
REMARK UNBOUND:                -0.100
REMARK  Name = 1550473
REMARK  2 active torsions:
REMARK  status: ('A' for Active; 'I' for Inactive)
REMARK    1  A    between atoms: N_1  and  C_4
REMARK    2  A    between atoms: C_4  and  C_5
REMARK                            x       y       z     vdW  Elec       q    Type
REMARK                         _______ _______ _______ _____ _____    ______ ____
ROOT
ATOM      1  N   UNL     1       1.291 -12.895  -6.596  0.00  0.00    -0.354 N 
ATOM      2  N   UNL     1       3.212 -12.284  -7.738  0.00  0.00    -0.372 N 
ATOM      3  N   UNL     1       2.940 -11.584  -5.570  0.00  0.00    -0.372 N 
ATOM      4  C   UNL     1       2.469 -12.257  -6.625  0.00  0.00    +0.166 C 
ATOM      5  H   UNL     1       0.976 -13.362  -7.439  0.00  0.00    +0.163 HD
ATOM      6  H   UNL     1       4.106 -11.815  -7.788  0.00  0.00    +0.159 HD
ATOM      7  H   UNL     1       2.915 -12.790  -8.564  0.00  0.00    +0.159 HD
ATOM      8  H   UNL     1       2.426 -11.520  -4.702  0.00  0.00    +0.159 HD
ATOM      9  H   UNL     1       3.828 -11.098  -5.605  0.00  0.00    +0.159 HD
ENDROOT
BRANCH   1  10
ATOM     10  C   UNL     1       0.432 -12.972  -5.417  0.00  0.00    +0.151 C 
BRANCH  10  11
ATOM     11  C   UNL     1      -1.004 -13.048  -5.859  0.00  0.00    -0.028 A 
ATOM     12  C   UNL     1      -1.860 -11.951  -5.688  0.00  0.00    +0.005 A 
ATOM     13  C   UNL     1      -1.512 -14.213  -6.455  0.00  0.00    +0.005 A 
ATOM     14  C   UNL     1      -3.186 -12.010  -6.127  0.00  0.00    +0.000 A 
ATOM     15  C   UNL     1      -2.836 -14.268  -6.890  0.00  0.00    +0.000 A 
ATOM     16  C   UNL     1      -3.671 -13.166  -6.728  0.00  0.00    +0.000 A 
ENDBRANCH  10  11
ENDBRANCH   1  10
TORSDOF 2
ENDMDL
MODEL 2
REMARK VINA RESULT:    -5.642     21.901     23.218
REMARK INTER + INTRA:          -6.402
REMARK INTER:                  -6.253
REMARK INTRA:                  -0.148
REMARK UNBOUND:                -0.100
REMARK  Name = 1550473
REMARK  2 active torsions:
REMARK  status: ('A' for Active; 'I' for Inactive)
REMARK    1  A    between atoms: N_1  and  C_4
REMARK    2  A    between atoms: C_4  and  C_5
REMARK                            x       y       z     vdW  Elec       q    Type
REMARK                         _______ _______ _______ _____ _____    ______ ____
ROOT
ATOM      1  N   UNL     1     -12.921   1.524   6.227  0.00  0.00    -0.354 N 
ATOM      2  N   UNL     1     -14.036  -0.405   5.595  0.00  0.00    -0.372 N 
ATOM      3  N   UNL     1     -12.311   0.357   4.288  0.00  0.00    -0.372 N 
ATOM      4  C   UNL     1     -13.080   0.505   5.372  0.00  0.00    +0.166 C 
ATOM      5  H   UNL     1     -13.556   1.597   7.013  0.00  0.00    +0.163 HD
ATOM      6  H   UNL     1     -14.178  -1.186   4.969  0.00  0.00    +0.159 HD
ATOM      7  H   UNL     1     -14.640  -0.355   6.406  0.00  0.00    +0.159 HD
ATOM      8  H   UNL     1     -11.575   1.012   4.060  0.00  0.00    +0.159 HD
ATOM      9  H   UNL     1     -12.445  -0.412   3.644  0.00  0.00    +0.159 HD
ENDROOT
BRANCH   1  10
ATOM     10  C   UNL     1     -11.875   2.538   6.104  0.00  0.00    +0.151 C 
BRANCH  10  11
ATOM     11  C   UNL     1     -11.050   2.547   7.361  0.00  0.00    -0.028 A 
ATOM     12  C   UNL     1     -10.953   3.709   8.141  0.00  0.00    +0.005 A 
ATOM     13  C   UNL     1     -10.367   1.395   7.781  0.00  0.00    +0.005 A 
ATOM     14  C   UNL     1     -10.210   3.709   9.325  0.00  0.00    +0.000 A 
ATOM     15  C   UNL     1      -9.626   1.399   8.963  0.00  0.00    +0.000 A 
ATOM     16  C   UNL     1      -9.550   2.555   9.736  0.00  0.00    +0.000 A 
ENDBRANCH  10  11
ENDBRANCH   1  10
TORSDOF 2
ENDMDL
MODEL 3
REMARK VINA RESULT:    -5.575     15.767     16.931
REMARK INTER + INTRA:          -6.327
REMARK INTER:                  -6.154
REMARK INTRA:                  -0.174
REMARK UNBOUND:                -0.100
REMARK  Name = 1550473
REMARK  2 active torsions:
REMARK  status: ('A' for Active; 'I' for Inactive)
REMARK    1  A    between atoms: N_1  and  C_4
REMARK    2  A    between atoms: C_4  and  C_5
REMARK                            x       y       z     vdW  Elec       q    Type
REMARK                         _______ _______ _______ _____ _____    ______ ____
ROOT
ATOM      1  N   UNL     1      12.407  -5.700  -1.955  0.00  0.00    -0.354 N 
ATOM      2  N   UNL     1      13.859  -7.303  -2.783  0.00  0.00    -0.372 N 
ATOM      3  N   UNL     1      14.494  -6.067  -0.956  0.00  0.00    -0.372 N 
ATOM      4  C   UNL     1      13.579  -6.345  -1.891  0.00  0.00    +0.166 C 
ATOM      5  H   UNL     1      11.768  -5.936  -2.706  0.00  0.00    +0.163 HD
ATOM      6  H   UNL     1      14.734  -7.809  -2.757  0.00  0.00    +0.159 HD
ATOM      7  H   UNL     1      13.200  -7.569  -3.504  0.00  0.00    +0.159 HD
ATOM      8  H   UNL     1      14.346  -5.351  -0.258  0.00  0.00    +0.159 HD
ATOM      9  H   UNL     1      15.381  -6.555  -0.921  0.00  0.00    +0.159 HD
ENDROOT
BRANCH   1  10
ATOM     10  C   UNL     1      11.982  -4.679  -1.000  0.00  0.00    +0.151 C 
BRANCH  10  11
ATOM     11  C   UNL     1      12.307  -3.320  -1.556  0.00  0.00    -0.028 A 
ATOM     12  C   UNL     1      13.122  -2.433  -0.838  0.00  0.00    +0.005 A 
ATOM     13  C   UNL     1      11.807  -2.915  -2.803  0.00  0.00    +0.005 A 
ATOM     14  C   UNL     1      13.449  -1.182  -1.368  0.00  0.00    +0.000 A 
ATOM     15  C   UNL     1      12.135  -1.666  -3.329  0.00  0.00    +0.000 A 
ATOM     16  C   UNL     1      12.958  -0.800  -2.612  0.00  0.00    +0.000 A 
ENDBRANCH  10  11
ENDBRANCH   1  10
TORSDOF 2
ENDMDL
MODEL 4
REMARK VINA RESULT:    -5.538     21.424     22.614
REMARK INTER + INTRA:          -6.286
REMARK INTER:                  -6.183
REMARK INTRA:                  -0.102
REMARK UNBOUND:                -0.100
REMARK  Name = 1550473
REMARK  2 active torsions:
REMARK  status: ('A' for Active; 'I' for Inactive)
REMARK    1  A    between atoms: N_1  and  C_4
REMARK    2  A    between atoms: C_4  and  C_5
REMARK                            x       y       z     vdW  Elec       q    Type
REMARK                         _______ _______ _______ _____ _____    ______ ____
ROOT
ATOM      1  N   UNL     1     -11.561   2.531   6.538  0.00  0.00    -0.354 N 
ATOM      2  N   UNL     1     -12.311   4.143   5.053  0.00  0.00    -0.372 N 
ATOM      3  N   UNL     1     -13.260   2.055   4.996  0.00  0.00    -0.372 N 
ATOM      4  C   UNL     1     -12.374   2.897   5.538  0.00  0.00    +0.166 C 
ATOM      5  H   UNL     1     -10.890   3.208   6.885  0.00  0.00    +0.163 HD
ATOM      6  H   UNL     1     -12.915   4.448   4.302  0.00  0.00    +0.159 HD
ATOM      7  H   UNL     1     -11.672   4.831   5.433  0.00  0.00    +0.159 HD
ATOM      8  H   UNL     1     -13.353   1.099   5.313  0.00  0.00    +0.159 HD
ATOM      9  H   UNL     1     -13.865   2.338   4.235  0.00  0.00    +0.159 HD
ENDROOT
BRANCH   1  10
ATOM     10  C   UNL     1     -11.587   1.215   7.173  0.00  0.00    +0.151 C 
BRANCH  10  11
ATOM     11  C   UNL     1     -10.237   0.933   7.775  0.00  0.00    -0.028 A 
ATOM     12  C   UNL     1      -9.676   1.816   8.709  0.00  0.00    +0.005 A 
ATOM     13  C   UNL     1      -9.518  -0.218   7.419  0.00  0.00    +0.005 A 
ATOM     14  C   UNL     1      -8.436   1.540   9.290  0.00  0.00    +0.000 A 
ATOM     15  C   UNL     1      -8.280  -0.490   8.001  0.00  0.00    +0.000 A 
ATOM     16  C   UNL     1      -7.741   0.388   8.939  0.00  0.00    +0.000 A 
ENDBRANCH  10  11
ENDBRANCH   1  10
TORSDOF 2
ENDMDL
MODEL 5
REMARK VINA RESULT:    -5.497     20.733     21.956
REMARK INTER + INTRA:          -6.240
REMARK INTER:                  -6.100
REMARK INTRA:                  -0.140
REMARK UNBOUND:                -0.100
REMARK  Name = 1550473
REMARK  2 active torsions:
REMARK  status: ('A' for Active; 'I' for Inactive)
REMARK    1  A    between atoms: N_1  and  C_4
REMARK    2  A    between atoms: C_4  and  C_5
REMARK                            x       y       z     vdW  Elec       q    Type
REMARK                         _______ _______ _______ _____ _____    ______ ____
ROOT
ATOM      1  N   UNL     1      -8.584  -0.637   7.429  0.00  0.00    -0.354 N 
ATOM      2  N   UNL     1      -8.500  -2.040   5.588  0.00  0.00    -0.372 N 
ATOM      3  N   UNL     1      -9.747  -2.671   7.408  0.00  0.00    -0.372 N 
ATOM      4  C   UNL     1      -8.946  -1.775   6.822  0.00  0.00    +0.166 C 
ATOM      5  H   UNL     1      -7.949  -0.013   6.943  0.00  0.00    +0.163 HD
ATOM      6  H   UNL     1      -8.759  -2.889   5.104  0.00  0.00    +0.159 HD
ATOM      7  H   UNL     1      -7.903  -1.393   5.087  0.00  0.00    +0.159 HD
ATOM      8  H   UNL     1     -10.112  -2.533   8.341  0.00  0.00    +0.159 HD
ATOM      9  H   UNL     1     -10.008  -3.532   6.944  0.00  0.00    +0.159 HD
ENDROOT
BRANCH   1  10
ATOM     10  C   UNL     1      -9.057  -0.228   8.750  0.00  0.00    +0.151 C 
BRANCH  10  11
ATOM     11  C   UNL     1      -9.692   1.131   8.646  0.00  0.00    -0.028 A 
ATOM     12  C   UNL     1      -9.357   2.144   9.556  0.00  0.00    +0.005 A 
ATOM     13  C   UNL     1     -10.625   1.413   7.637  0.00  0.00    +0.005 A 
ATOM     14  C   UNL     1      -9.924   3.416   9.442  0.00  0.00    +0.000 A 
ATOM     15  C   UNL     1     -11.189   2.683   7.527  0.00  0.00    +0.000 A 
ATOM     16  C   UNL     1     -10.837   3.685   8.427  0.00  0.00    +0.000 A 
ENDBRANCH  10  11
ENDBRANCH   1  10
TORSDOF 2
ENDMDL
MODEL 6
REMARK VINA RESULT:    -5.416      2.470      4.798
REMARK INTER + INTRA:          -6.149
REMARK INTER:                  -5.972
REMARK INTRA:                  -0.177
REMARK UNBOUND:                -0.100
REMARK  Name = 1550473
REMARK  2 active torsions:
REMARK  status: ('A' for Active; 'I' for Inactive)
REMARK    1  A    between atoms: N_1  and  C_4
REMARK    2  A    between atoms: C_4  and  C_5
REMARK                            x       y       z     vdW  Elec       q    Type
REMARK                         _______ _______ _______ _____ _____    ______ ____
ROOT
ATOM      1  N   UNL     1      -1.407 -12.535  -5.821  0.00  0.00    -0.354 N 
ATOM      2  N   UNL     1      -3.266 -13.218  -7.023  0.00  0.00    -0.372 N 
ATOM      3  N   UNL     1      -1.497 -14.663  -6.799  0.00  0.00    -0.372 N 
ATOM      4  C   UNL     1      -2.043 -13.470  -6.540  0.00  0.00    +0.166 C 
ATOM      5  H   UNL     1      -1.862 -11.639  -5.686  0.00  0.00    +0.163 HD
ATOM      6  H   UNL     1      -3.771 -13.905  -7.566  0.00  0.00    +0.159 HD
ATOM      7  H   UNL     1      -3.737 -12.339  -6.847  0.00  0.00    +0.159 HD
ATOM      8  H   UNL     1      -0.575 -14.913  -6.468  0.00  0.00    +0.159 HD
ATOM      9  H   UNL     1      -1.983 -15.359  -7.350  0.00  0.00    +0.159 HD
ENDROOT
BRANCH   1  10
ATOM     10  C   UNL     1      -0.096 -12.729  -5.205  0.00  0.00    +0.151 C 
BRANCH  10  11
ATOM     11  C   UNL     1       0.932 -11.954  -5.984  0.00  0.00    -0.028 A 
ATOM     12  C   UNL     1       1.104 -10.580  -5.764  0.00  0.00    +0.005 A 
ATOM     13  C   UNL     1       1.740 -12.590  -6.938  0.00  0.00    +0.005 A 
ATOM     14  C   UNL     1       2.079  -9.866  -6.466  0.00  0.00    +0.000 A 
ATOM     15  C   UNL     1       2.712 -11.874  -7.637  0.00  0.00    +0.000 A 
ATOM     16  C   UNL     1       2.882 -10.512  -7.399  0.00  0.00    +0.000 A 
ENDBRANCH  10  11
ENDBRANCH   1  10
TORSDOF 2
ENDMDL
MODEL 7
REMARK VINA RESULT:    -5.365     20.589     21.875
REMARK INTER + INTRA:          -6.092
REMARK INTER:                  -5.978
REMARK INTRA:                  -0.114
REMARK UNBOUND:                -0.100
REMARK  Name = 1550473
REMARK  2 active torsions:
REMARK  status: ('A' for Active; 'I' for Inactive)
REMARK    1  A    between atoms: N_1  and  C_4
REMARK    2  A    between atoms: C_4  and  C_5
REMARK                            x       y       z     vdW  Elec       q    Type
REMARK                         _______ _______ _______ _____ _____    ______ ____
ROOT
ATOM      1  N   UNL     1      -9.787  -0.806   6.795  0.00  0.00    -0.354 N 
ATOM      2  N   UNL     1      -8.420  -2.335   5.719  0.00  0.00    -0.372 N 
ATOM      3  N   UNL     1     -10.379  -1.697   4.710  0.00  0.00    -0.372 N 
ATOM      4  C   UNL     1      -9.540  -1.603   5.747  0.00  0.00    +0.166 C 
ATOM      5  H   UNL     1      -9.126  -0.802   7.563  0.00  0.00    +0.163 HD
ATOM      6  H   UNL     1      -8.205  -2.942   4.940  0.00  0.00    +0.159 HD
ATOM      7  H   UNL     1      -7.738  -2.294   6.467  0.00  0.00    +0.159 HD
ATOM      8  H   UNL     1     -11.245  -1.175   4.672  0.00  0.00    +0.159 HD
ATOM      9  H   UNL     1     -10.187  -2.309   3.926  0.00  0.00    +0.159 HD
ENDROOT
BRANCH   1  10
ATOM     10  C   UNL     1     -10.951   0.073   6.898  0.00  0.00    +0.151 C 
BRANCH  10  11
ATOM     11  C   UNL     1     -10.587   1.276   7.722  0.00  0.00    -0.028 A 
ATOM     12  C   UNL     1     -11.072   2.547   7.380  0.00  0.00    +0.005 A 
ATOM     13  C   UNL     1      -9.762   1.152   8.851  0.00  0.00    +0.005 A 
ATOM     14  C   UNL     1     -10.758   3.661   8.163  0.00  0.00    +0.000 A 
ATOM     15  C   UNL     1      -9.450   2.266   9.629  0.00  0.00    +0.000 A 
ATOM     16  C   UNL     1      -9.951   3.520   9.287  0.00  0.00    +0.000 A 
ENDBRANCH  10  11
ENDBRANCH   1  10
TORSDOF 2
ENDMDL
MODEL 8
REMARK VINA RESULT:    -5.214      2.234      3.139
REMARK INTER + INTRA:          -5.923
REMARK INTER:                  -5.765
REMARK INTRA:                  -0.159
REMARK UNBOUND:                -0.100
REMARK  Name = 1550473
REMARK  2 active torsions:
REMARK  status: ('A' for Active; 'I' for Inactive)
REMARK    1  A    between atoms: N_1  and  C_4
REMARK    2  A    between atoms: C_4  and  C_5
REMARK                            x       y       z     vdW  Elec       q    Type
REMARK                         _______ _______ _______ _____ _____    ______ ____
ROOT
ATOM      1  N   UNL     1       1.943  -9.328  -7.433  0.00  0.00    -0.354 N 
ATOM      2  N   UNL     1       3.537  -9.753  -9.058  0.00  0.00    -0.372 N 
ATOM      3  N   UNL     1       4.122  -9.964  -6.850  0.00  0.00    -0.372 N 
ATOM      4  C   UNL     1       3.192  -9.679  -7.767  0.00  0.00    +0.166 C 
ATOM      5  H   UNL     1       1.293  -9.095  -8.175  0.00  0.00    +0.163 HD
ATOM      6  H   UNL     1       4.471 -10.019  -9.341  0.00  0.00    +0.159 HD
ATOM      7  H   UNL     1       2.873  -9.565  -9.799  0.00  0.00    +0.159 HD
ATOM      8  H   UNL     1       3.927  -9.921  -5.858  0.00  0.00    +0.159 HD
ATOM      9  H   UNL     1       5.065 -10.221  -7.113  0.00  0.00    +0.159 HD
ENDROOT
BRANCH   1  10
ATOM     10  C   UNL     1       1.451  -9.270  -6.057  0.00  0.00    +0.151 C 
BRANCH  10  11
ATOM     11  C   UNL     1       0.638 -10.504  -5.774  0.00  0.00    -0.028 A 
ATOM     12  C   UNL     1      -0.759 -10.479  -5.896  0.00  0.00    +0.005 A 
ATOM     13  C   UNL     1       1.260 -11.701  -5.388  0.00  0.00    +0.005 A 
ATOM     14  C   UNL     1      -1.512 -11.633  -5.662  0.00  0.00    +0.000 A 
ATOM     15  C   UNL     1       0.505 -12.850  -5.155  0.00  0.00    +0.000 A 
ATOM     16  C   UNL     1      -0.881 -12.816  -5.294  0.00  0.00    +0.000 A 
ENDBRANCH  10  11
ENDBRANCH   1  10
TORSDOF 2
ENDMDL
MODEL 9
REMARK VINA RESULT:    -5.189     20.881     22.235
REMARK INTER + INTRA:          -5.896
REMARK INTER:                  -5.721
REMARK INTRA:                  -0.175
REMARK UNBOUND:                -0.100
REMARK  Name = 1550473
REMARK  2 active torsions:
REMARK  status: ('A' for Active; 'I' for Inactive)
REMARK    1  A    between atoms: N_1  and  C_4
REMARK    2  A    between atoms: C_4  and  C_5
REMARK                            x       y       z     vdW  Elec       q    Type
REMARK                         _______ _______ _______ _____ _____    ______ ____
ROOT
ATOM      1  N   UNL     1     -12.282   0.685   4.941  0.00  0.00    -0.354 N 
ATOM      2  N   UNL     1     -11.457  -0.099   2.924  0.00  0.00    -0.372 N 
ATOM      3  N   UNL     1     -11.208  -1.393   4.803  0.00  0.00    -0.372 N 
ATOM      4  C   UNL     1     -11.653  -0.266   4.238  0.00  0.00    +0.166 C 
ATOM      5  H   UNL     1     -12.569   1.530   4.460  0.00  0.00    +0.163 HD
ATOM      6  H   UNL     1     -10.989  -0.801   2.366  0.00  0.00    +0.159 HD
ATOM      7  H   UNL     1     -11.786   0.726   2.437  0.00  0.00    +0.159 HD
ATOM      8  H   UNL     1     -11.319  -1.577   5.791  0.00  0.00    +0.159 HD
ATOM      9  H   UNL     1     -10.726  -2.102   4.264  0.00  0.00    +0.159 HD
ENDROOT
BRANCH   1  10
ATOM     10  C   UNL     1     -12.593   0.578   6.365  0.00  0.00    +0.151 C 
BRANCH  10  11
ATOM     11  C   UNL     1     -11.665   1.472   7.140  0.00  0.00    -0.028 A 
ATOM     12  C   UNL     1     -10.657   0.925   7.946  0.00  0.00    +0.005 A 
ATOM     13  C   UNL     1     -11.785   2.869   7.067  0.00  0.00    +0.005 A 
ATOM     14  C   UNL     1      -9.776   1.756   8.642  0.00  0.00    +0.000 A 
ATOM     15  C   UNL     1     -10.904   3.695   7.764  0.00  0.00    +0.000 A 
ATOM     16  C   UNL     1      -9.898   3.138   8.550  0.00  0.00    +0.000 A 
ENDBRANCH  10  11
ENDBRANCH   1  10
TORSDOF 2
ENDMDL
