MODEL 1
REMARK VINA RESULT:    -5.405      0.000      0.000
REMARK INTER + INTRA:          -6.160
REMARK INTER:                  -6.037
REMARK INTRA:                  -0.123
REMARK UNBOUND:                -0.123
REMARK  Name = 1550473
REMARK  2 active torsions:
REMARK  status: ('A' for Active; 'I' for Inactive)
REMARK    1  A    between atoms: N_1  and  C_4
REMARK    2  A    between atoms: C_4  and  C_5
REMARK                            x       y       z     vdW  Elec       q    Type
REMARK                         _______ _______ _______ _____ _____    ______ ____
ROOT
ATOM      1  N   UNL     1      -9.666  -3.764 -13.769  0.00  0.00    -0.354 N 
ATOM      2  N   UNL     1     -11.281  -2.153 -13.370  0.00  0.00    -0.372 N 
ATOM      3  N   UNL     1     -10.375  -3.279 -11.588  0.00  0.00    -0.372 N 
ATOM      4  C   UNL     1     -10.430  -3.077 -12.909  0.00  0.00    +0.166 C 
ATOM      5  H   UNL     1      -9.776  -3.585 -14.760  0.00  0.00    +0.163 HD
ATOM      6  H   UNL     1     -11.868  -1.616 -12.745  0.00  0.00    +0.159 HD
ATOM      7  H   UNL     1     -11.356  -1.943 -14.358  0.00  0.00    +0.159 HD
ATOM      8  H   UNL     1      -9.758  -3.967 -11.177  0.00  0.00    +0.159 HD
ATOM      9  H   UNL     1     -10.963  -2.761 -10.948  0.00  0.00    +0.159 HD
ENDROOT
BRANCH   1  10
ATOM     10  C   UNL     1      -8.668  -4.754 -13.365  0.00  0.00    +0.151 C 
BRANCH  10  11
ATOM     11  C   UNL     1      -7.415  -4.543 -14.168  0.00  0.00    -0.028 A 
ATOM     12  C   UNL     1      -6.556  -3.472 -13.880  0.00  0.00    +0.005 A 
ATOM     13  C   UNL     1      -7.076  -5.414 -15.215  0.00  0.00    +0.005 A 
ATOM     14  C   UNL     1      -5.376  -3.293 -14.606  0.00  0.00    +0.000 A 
ATOM     15  C   UNL     1      -5.898  -5.232 -15.939  0.00  0.00    +0.000 A 
ATOM     16  C   UNL     1      -5.047  -4.173 -15.632  0.00  0.00    +0.000 A 
ENDBRANCH  10  11
ENDBRANCH   1  10
TORSDOF 2
ENDMDL
MODEL 2
REMARK VINA RESULT:    -5.026      1.754      2.353
REMARK INTER + INTRA:          -5.736
REMARK INTER:                  -5.626
REMARK INTRA:                  -0.111
REMARK UNBOUND:                -0.123
REMARK  Name = 1550473
REMARK  2 active torsions:
REMARK  status: ('A' for Active; 'I' for Inactive)
REMARK    1  A    between atoms: N_1  and  C_4
REMARK    2  A    between atoms: C_4  and  C_5
REMARK                            x       y       z     vdW  Elec       q    Type
REMARK                         _______ _______ _______ _____ _____    ______ ____
ROOT
ATOM      1  N   UNL     1     -11.500  -4.472 -12.634  0.00  0.00    -0.354 N 
ATOM      2  N   UNL     1     -13.610  -3.595 -13.009  0.00  0.00    -0.372 N 
ATOM      3  N   UNL     1     -12.700  -3.435 -10.909  0.00  0.00    -0.372 N 
ATOM      4  C   UNL     1     -12.589  -3.839 -12.178  0.00  0.00    +0.166 C 
ATOM      5  H   UNL     1     -11.490  -4.780 -13.599  0.00  0.00    +0.163 HD
ATOM      6  H   UNL     1     -14.443  -3.116 -12.695  0.00  0.00    +0.159 HD
ATOM      7  H   UNL     1     -13.579  -3.863 -13.985  0.00  0.00    +0.159 HD
ATOM      8  H   UNL     1     -11.967  -3.595 -10.230  0.00  0.00    +0.159 HD
ATOM      9  H   UNL     1     -13.531  -2.965 -10.572  0.00  0.00    +0.159 HD
ENDROOT
BRANCH   1  10
ATOM     10  C   UNL     1     -10.311  -4.739 -11.825  0.00  0.00    +0.151 C 
BRANCH  10  11
ATOM     11  C   UNL     1      -9.084  -4.453 -12.646  0.00  0.00    -0.028 A 
ATOM     12  C   UNL     1      -8.430  -3.217 -12.541  0.00  0.00    +0.005 A 
ATOM     13  C   UNL     1      -8.567  -5.417 -13.526  0.00  0.00    +0.005 A 
ATOM     14  C   UNL     1      -7.273  -2.962 -13.281  0.00  0.00    +0.000 A 
ATOM     15  C   UNL     1      -7.412  -5.158 -14.263  0.00  0.00    +0.000 A 
ATOM     16  C   UNL     1      -6.764  -3.932 -14.139  0.00  0.00    +0.000 A 
ENDBRANCH  10  11
ENDBRANCH   1  10
TORSDOF 2
ENDMDL
MODEL 3
REMARK VINA RESULT:    -5.019     22.057     23.142
REMARK INTER + INTRA:          -5.728
REMARK INTER:                  -5.598
REMARK INTRA:                  -0.131
REMARK UNBOUND:                -0.123
REMARK  Name = 1550473
REMARK  2 active torsions:
REMARK  status: ('A' for Active; 'I' for Inactive)
REMARK    1  A    between atoms: N_1  and  C_4
REMARK    2  A    between atoms: C_4  and  C_5
REMARK                            x       y       z     vdW  Elec       q    Type
REMARK                         _______ _______ _______ _____ _____    ______ ____
ROOT
ATOM      1  N   UNL     1       1.854   2.815   4.546  0.00  0.00    -0.354 N 
ATOM      2  N   UNL     1       3.868   3.837   4.034  0.00  0.00    -0.372 N 
ATOM      3  N   UNL     1       1.920   4.784   3.277  0.00  0.00    -0.372 N 
ATOM      4  C   UNL     1       2.532   3.807   3.954  0.00  0.00    +0.166 C 
ATOM      5  H   UNL     1       2.378   2.088   5.018  0.00  0.00    +0.163 HD
ATOM      6  H   UNL     1       4.407   4.575   3.601  0.00  0.00    +0.159 HD
ATOM      7  H   UNL     1       4.387   3.134   4.546  0.00  0.00    +0.159 HD
ATOM      8  H   UNL     1       0.914   4.816   3.175  0.00  0.00    +0.159 HD
ATOM      9  H   UNL     1       2.443   5.525   2.827  0.00  0.00    +0.159 HD
ENDROOT
BRANCH   1  10
ATOM     10  C   UNL     1       0.395   2.719   4.563  0.00  0.00    +0.151 C 
BRANCH  10  11
ATOM     11  C   UNL     1      -0.056   2.355   5.951  0.00  0.00    -0.028 A 
ATOM     12  C   UNL     1      -1.328   2.731   6.408  0.00  0.00    +0.005 A 
ATOM     13  C   UNL     1       0.781   1.629   6.812  0.00  0.00    +0.005 A 
ATOM     14  C   UNL     1      -1.760   2.367   7.685  0.00  0.00    +0.000 A 
ATOM     15  C   UNL     1       0.347   1.269   8.088  0.00  0.00    +0.000 A 
ATOM     16  C   UNL     1      -0.924   1.636   8.523  0.00  0.00    +0.000 A 
ENDBRANCH  10  11
ENDBRANCH   1  10
TORSDOF 2
ENDMDL
MODEL 4
REMARK VINA RESULT:    -4.991     22.037     23.097
REMARK INTER + INTRA:          -5.698
REMARK INTER:                  -5.557
REMARK INTRA:                  -0.141
REMARK UNBOUND:                -0.123
REMARK  Name = 1550473
REMARK  2 active torsions:
REMARK  status: ('A' for Active; 'I' for Inactive)
REMARK    1  A    between atoms: N_1  and  C_4
REMARK    2  A    between atoms: C_4  and  C_5
REMARK                            x       y       z     vdW  Elec       q    Type
REMARK                         _______ _______ _______ _____ _____    ______ ____
ROOT
ATOM      1  N   UNL     1       2.437   2.763   4.158  0.00  0.00    -0.354 N 
ATOM      2  N   UNL     1       3.856   4.399   3.337  0.00  0.00    -0.372 N 
ATOM      3  N   UNL     1       4.520   3.165   5.153  0.00  0.00    -0.372 N 
ATOM      4  C   UNL     1       3.596   3.431   4.223  0.00  0.00    +0.166 C 
ATOM      5  H   UNL     1       1.766   3.033   3.448  0.00  0.00    +0.163 HD
ATOM      6  H   UNL     1       4.723   4.918   3.359  0.00  0.00    +0.159 HD
ATOM      7  H   UNL     1       3.202   4.636   2.600  0.00  0.00    +0.159 HD
ATOM      8  H   UNL     1       4.383   2.450   5.855  0.00  0.00    +0.159 HD
ATOM      9  H   UNL     1       5.389   3.681   5.199  0.00  0.00    +0.159 HD
ENDROOT
BRANCH   1  10
ATOM     10  C   UNL     1       2.080   1.655   5.042  0.00  0.00    +0.151 C 
BRANCH  10  11
ATOM     11  C   UNL     1       0.797   1.988   5.753  0.00  0.00    -0.028 A 
ATOM     12  C   UNL     1       0.592   1.581   7.080  0.00  0.00    +0.005 A 
ATOM     13  C   UNL     1      -0.215   2.716   5.108  0.00  0.00    +0.005 A 
ATOM     14  C   UNL     1      -0.586   1.915   7.751  0.00  0.00    +0.000 A 
ATOM     15  C   UNL     1      -1.390   3.047   5.781  0.00  0.00    +0.000 A 
ATOM     16  C   UNL     1      -1.575   2.649   7.103  0.00  0.00    +0.000 A 
ENDBRANCH  10  11
ENDBRANCH   1  10
TORSDOF 2
ENDMDL
MODEL 5
REMARK VINA RESULT:    -4.877     20.704     21.540
REMARK INTER + INTRA:          -5.570
REMARK INTER:                  -5.447
REMARK INTRA:                  -0.123
REMARK UNBOUND:                -0.123
REMARK  Name = 1550473
REMARK  2 active torsions:
REMARK  status: ('A' for Active; 'I' for Inactive)
REMARK    1  A    between atoms: N_1  and  C_4
REMARK    2  A    between atoms: C_4  and  C_5
REMARK                            x       y       z     vdW  Elec       q    Type
REMARK                         _______ _______ _______ _____ _____    ______ ____
ROOT
ATOM      1  N   UNL     1       9.327   2.346  -4.694  0.00  0.00    -0.354 N 
ATOM      2  N   UNL     1       9.371   2.785  -6.967  0.00  0.00    -0.372 N 
ATOM      3  N   UNL     1      10.317   4.300  -5.526  0.00  0.00    -0.372 N 
ATOM      4  C   UNL     1       9.673   3.143  -5.713  0.00  0.00    +0.166 C 
ATOM      5  H   UNL     1       8.813   1.497  -4.900  0.00  0.00    +0.163 HD
ATOM      6  H   UNL     1       9.623   3.365  -7.757  0.00  0.00    +0.159 HD
ATOM      7  H   UNL     1       8.898   1.914  -7.174  0.00  0.00    +0.159 HD
ATOM      8  H   UNL     1      10.569   4.630  -4.604  0.00  0.00    +0.159 HD
ATOM      9  H   UNL     1      10.567   4.899  -6.303  0.00  0.00    +0.159 HD
ENDROOT
BRANCH   1  10
ATOM     10  C   UNL     1       9.655   2.617  -3.295  0.00  0.00    +0.151 C 
BRANCH  10  11
ATOM     11  C   UNL     1       9.464   1.360  -2.493  0.00  0.00    -0.028 A 
ATOM     12  C   UNL     1       9.272   1.424  -1.105  0.00  0.00    +0.005 A 
ATOM     13  C   UNL     1       9.467   0.102  -3.115  0.00  0.00    +0.005 A 
ATOM     14  C   UNL     1       9.063   0.258  -0.363  0.00  0.00    +0.000 A 
ATOM     15  C   UNL     1       9.260  -1.059  -2.371  0.00  0.00    +0.000 A 
ATOM     16  C   UNL     1       9.056  -0.980  -0.996  0.00  0.00    +0.000 A 
ENDBRANCH  10  11
ENDBRANCH   1  10
TORSDOF 2
ENDMDL
MODEL 6
REMARK VINA RESULT:    -4.809     22.484     23.729
REMARK INTER + INTRA:          -5.495
REMARK INTER:                  -5.354
REMARK INTRA:                  -0.140
REMARK UNBOUND:                -0.123
REMARK  Name = 1550473
REMARK  2 active torsions:
REMARK  status: ('A' for Active; 'I' for Inactive)
REMARK    1  A    between atoms: N_1  and  C_4
REMARK    2  A    between atoms: C_4  and  C_5
REMARK                            x       y       z     vdW  Elec       q    Type
REMARK                         _______ _______ _______ _____ _____    ______ ____
ROOT
ATOM      1  N   UNL     1      12.375   2.740  -1.781  0.00  0.00    -0.354 N 
ATOM      2  N   UNL     1      12.910   4.848  -0.986  0.00  0.00    -0.372 N 
ATOM      3  N   UNL     1      11.733   4.668  -2.947  0.00  0.00    -0.372 N 
ATOM      4  C   UNL     1      12.335   4.072  -1.912  0.00  0.00    +0.166 C 
ATOM      5  H   UNL     1      12.873   2.349  -0.989  0.00  0.00    +0.163 HD
ATOM      6  H   UNL     1      12.893   5.857  -1.057  0.00  0.00    +0.159 HD
ATOM      7  H   UNL     1      13.368   4.456  -0.172  0.00  0.00    +0.159 HD
ATOM      8  H   UNL     1      11.285   4.139  -3.683  0.00  0.00    +0.159 HD
ATOM      9  H   UNL     1      11.715   5.676  -3.041  0.00  0.00    +0.159 HD
ENDROOT
BRANCH   1  10
ATOM     10  C   UNL     1      11.733   1.807  -2.705  0.00  0.00    +0.151 C 
BRANCH  10  11
ATOM     11  C   UNL     1      10.845   0.877  -1.926  0.00  0.00    -0.028 A 
ATOM     12  C   UNL     1      10.664   1.054  -0.547  0.00  0.00    +0.005 A 
ATOM     13  C   UNL     1      10.177  -0.180  -2.563  0.00  0.00    +0.005 A 
ATOM     14  C   UNL     1       9.815   0.208   0.172  0.00  0.00    +0.000 A 
ATOM     15  C   UNL     1       9.331  -1.023  -1.842  0.00  0.00    +0.000 A 
ATOM     16  C   UNL     1       9.148  -0.827  -0.475  0.00  0.00    +0.000 A 
ENDBRANCH  10  11
ENDBRANCH   1  10
TORSDOF 2
ENDMDL
MODEL 7
REMARK VINA RESULT:    -4.755      2.419      5.728
REMARK INTER + INTRA:          -5.433
REMARK INTER:                  -5.326
REMARK INTRA:                  -0.107
REMARK UNBOUND:                -0.123
REMARK  Name = 1550473
REMARK  2 active torsions:
REMARK  status: ('A' for Active; 'I' for Inactive)
REMARK    1  A    between atoms: N_1  and  C_4
REMARK    2  A    between atoms: C_4  and  C_5
REMARK                            x       y       z     vdW  Elec       q    Type
REMARK                         _______ _______ _______ _____ _____    ______ ____
ROOT
ATOM      1  N   UNL     1      -9.513  -3.902 -13.761  0.00  0.00    -0.354 N 
ATOM      2  N   UNL     1      -7.533  -5.027 -14.185  0.00  0.00    -0.372 N 
ATOM      3  N   UNL     1      -7.454  -3.023 -13.069  0.00  0.00    -0.372 N 
ATOM      4  C   UNL     1      -8.178  -3.974 -13.668  0.00  0.00    +0.166 C 
ATOM      5  H   UNL     1     -10.002  -4.641 -14.254  0.00  0.00    +0.163 HD
ATOM      6  H   UNL     1      -6.527  -5.111 -14.126  0.00  0.00    +0.159 HD
ATOM      7  H   UNL     1      -8.028  -5.786 -14.636  0.00  0.00    +0.159 HD
ATOM      8  H   UNL     1      -7.880  -2.201 -12.664  0.00  0.00    +0.159 HD
ATOM      9  H   UNL     1      -6.445  -3.083 -13.011  0.00  0.00    +0.159 HD
ENDROOT
BRANCH   1  10
ATOM     10  C   UNL     1     -10.316  -2.825 -13.185  0.00  0.00    +0.151 C 
BRANCH  10  11
ATOM     11  C   UNL     1     -10.862  -3.276 -11.858  0.00  0.00    -0.028 A 
ATOM     12  C   UNL     1     -10.929  -4.641 -11.543  0.00  0.00    +0.005 A 
ATOM     13  C   UNL     1     -11.308  -2.343 -10.910  0.00  0.00    +0.005 A 
ATOM     14  C   UNL     1     -11.408  -5.059 -10.299  0.00  0.00    +0.000 A 
ATOM     15  C   UNL     1     -11.787  -2.764  -9.669  0.00  0.00    +0.000 A 
ATOM     16  C   UNL     1     -11.834  -4.122  -9.363  0.00  0.00    +0.000 A 
ENDBRANCH  10  11
ENDBRANCH   1  10
TORSDOF 2
ENDMDL
MODEL 8
REMARK VINA RESULT:    -4.721     23.470     24.660
REMARK INTER + INTRA:          -5.396
REMARK INTER:                  -5.292
REMARK INTRA:                  -0.104
REMARK UNBOUND:                -0.123
REMARK  Name = 1550473
REMARK  2 active torsions:
REMARK  status: ('A' for Active; 'I' for Inactive)
REMARK    1  A    between atoms: N_1  and  C_4
REMARK    2  A    between atoms: C_4  and  C_5
REMARK                            x       y       z     vdW  Elec       q    Type
REMARK                         _______ _______ _______ _____ _____    ______ ____
ROOT
ATOM      1  N   UNL     1      12.877   3.976  -1.870  0.00  0.00    -0.354 N 
ATOM      2  N   UNL     1      14.666   5.313  -1.257  0.00  0.00    -0.372 N 
ATOM      3  N   UNL     1      13.200   6.082  -2.846  0.00  0.00    -0.372 N 
ATOM      4  C   UNL     1      13.568   5.116  -1.997  0.00  0.00    +0.166 C 
ATOM      5  H   UNL     1      13.226   3.270  -1.231  0.00  0.00    +0.163 HD
ATOM      6  H   UNL     1      15.206   6.165  -1.329  0.00  0.00    +0.159 HD
ATOM      7  H   UNL     1      14.986   4.625  -0.586  0.00  0.00    +0.159 HD
ATOM      8  H   UNL     1      12.385   5.992  -3.437  0.00  0.00    +0.159 HD
ATOM      9  H   UNL     1      13.734   6.936  -2.941  0.00  0.00    +0.159 HD
ENDROOT
BRANCH   1  10
ATOM     10  C   UNL     1      11.639   3.686  -2.590  0.00  0.00    +0.151 C 
BRANCH  10  11
ATOM     11  C   UNL     1      10.784   2.776  -1.751  0.00  0.00    -0.028 A 
ATOM     12  C   UNL     1      11.279   1.540  -1.310  0.00  0.00    +0.005 A 
ATOM     13  C   UNL     1       9.480   3.148  -1.388  0.00  0.00    +0.005 A 
ATOM     14  C   UNL     1      10.497   0.708  -0.506  0.00  0.00    +0.000 A 
ATOM     15  C   UNL     1       8.702   2.314  -0.585  0.00  0.00    +0.000 A 
ATOM     16  C   UNL     1       9.211   1.096  -0.142  0.00  0.00    +0.000 A 
ENDBRANCH  10  11
ENDBRANCH   1  10
TORSDOF 2
ENDMDL
MODEL 9
REMARK VINA RESULT:    -4.721     22.158     23.300
REMARK INTER + INTRA:          -5.396
REMARK INTER:                  -5.283
REMARK INTRA:                  -0.113
REMARK UNBOUND:                -0.123
REMARK  Name = 1550473
REMARK  2 active torsions:
REMARK  status: ('A' for Active; 'I' for Inactive)
REMARK    1  A    between atoms: N_1  and  C_4
REMARK    2  A    between atoms: C_4  and  C_5
REMARK                            x       y       z     vdW  Elec       q    Type
REMARK                         _______ _______ _______ _____ _____    ______ ____
ROOT
ATOM      1  N   UNL     1       1.302   3.013   5.662  0.00  0.00    -0.354 N 
ATOM      2  N   UNL     1       3.593   3.330   5.532  0.00  0.00    -0.372 N 
ATOM      3  N   UNL     1       2.414   2.950   3.600  0.00  0.00    -0.372 N 
ATOM      4  C   UNL     1       2.421   3.094   4.930  0.00  0.00    +0.166 C 
ATOM      5  H   UNL     1       1.378   3.101   6.669  0.00  0.00    +0.163 HD
ATOM      6  H   UNL     1       4.453   3.400   5.006  0.00  0.00    +0.159 HD
ATOM      7  H   UNL     1       3.659   3.464   6.534  0.00  0.00    +0.159 HD
ATOM      8  H   UNL     1       1.563   2.764   3.086  0.00  0.00    +0.159 HD
ATOM      9  H   UNL     1       3.267   3.005   3.057  0.00  0.00    +0.159 HD
ENDROOT
BRANCH   1  10
ATOM     10  C   UNL     1      -0.032   2.813   5.098  0.00  0.00    +0.151 C 
BRANCH  10  11
ATOM     11  C   UNL     1      -1.031   2.724   6.219  0.00  0.00    -0.028 A 
ATOM     12  C   UNL     1      -0.711   2.048   7.405  0.00  0.00    +0.005 A 
ATOM     13  C   UNL     1      -2.297   3.318   6.102  0.00  0.00    +0.005 A 
ATOM     14  C   UNL     1      -1.627   1.991   8.458  0.00  0.00    +0.000 A 
ATOM     15  C   UNL     1      -3.209   3.258   7.155  0.00  0.00    +0.000 A 
ATOM     16  C   UNL     1      -2.873   2.596   8.334  0.00  0.00    +0.000 A 
ENDBRANCH  10  11
ENDBRANCH   1  10
TORSDOF 2
ENDMDL
