MODEL 1
REMARK VINA RESULT:    -5.582      0.000      0.000
REMARK INTER + INTRA:          -6.358
REMARK INTER:                  -6.234
REMARK INTRA:                  -0.124
REMARK UNBOUND:                -0.124
REMARK  Name = 1550473
REMARK  2 active torsions:
REMARK  status: ('A' for Active; 'I' for Inactive)
REMARK    1  A    between atoms: N_1  and  C_4
REMARK    2  A    between atoms: C_4  and  C_5
REMARK                            x       y       z     vdW  Elec       q    Type
REMARK                         _______ _______ _______ _____ _____    ______ ____
ROOT
ATOM      1  N   UNL     1      11.871  -3.811   3.503  0.00  0.00    -0.354 N 
ATOM      2  N   UNL     1      13.100  -2.415   2.123  0.00  0.00    -0.372 N 
ATOM      3  N   UNL     1      12.761  -4.592   1.481  0.00  0.00    -0.372 N 
ATOM      4  C   UNL     1      12.569  -3.618   2.377  0.00  0.00    +0.166 C 
ATOM      5  H   UNL     1      11.787  -3.040   4.156  0.00  0.00    +0.163 HD
ATOM      6  H   UNL     1      13.629  -2.239   1.279  0.00  0.00    +0.159 HD
ATOM      7  H   UNL     1      12.976  -1.634   2.755  0.00  0.00    +0.159 HD
ATOM      8  H   UNL     1      12.392  -5.524   1.617  0.00  0.00    +0.159 HD
ATOM      9  H   UNL     1      13.298  -4.438   0.637  0.00  0.00    +0.159 HD
ENDROOT
BRANCH   1  10
ATOM     10  C   UNL     1      11.207  -5.066   3.849  0.00  0.00    +0.151 C 
BRANCH  10  11
ATOM     11  C   UNL     1      10.049  -4.775   4.763  0.00  0.00    -0.028 A 
ATOM     12  C   UNL     1       9.717  -5.662   5.797  0.00  0.00    +0.005 A 
ATOM     13  C   UNL     1       9.283  -3.610   4.603  0.00  0.00    +0.005 A 
ATOM     14  C   UNL     1       8.661  -5.376   6.665  0.00  0.00    +0.000 A 
ATOM     15  C   UNL     1       8.228  -3.329   5.471  0.00  0.00    +0.000 A 
ATOM     16  C   UNL     1       7.919  -4.211   6.504  0.00  0.00    +0.000 A 
ENDBRANCH  10  11
ENDBRANCH   1  10
TORSDOF 2
ENDMDL
MODEL 2
REMARK VINA RESULT:    -5.385      3.797      5.489
REMARK INTER + INTRA:          -6.139
REMARK INTER:                  -5.989
REMARK INTRA:                  -0.150
REMARK UNBOUND:                -0.124
REMARK  Name = 1550473
REMARK  2 active torsions:
REMARK  status: ('A' for Active; 'I' for Inactive)
REMARK    1  A    between atoms: N_1  and  C_4
REMARK    2  A    between atoms: C_4  and  C_5
REMARK                            x       y       z     vdW  Elec       q    Type
REMARK                         _______ _______ _______ _____ _____    ______ ____
ROOT
ATOM      1  N   UNL     1       8.547  -5.004   7.796  0.00  0.00    -0.354 N 
ATOM      2  N   UNL     1       8.963  -4.839  10.068  0.00  0.00    -0.372 N 
ATOM      3  N   UNL     1       8.696  -2.915   8.847  0.00  0.00    -0.372 N 
ATOM      4  C   UNL     1       8.733  -4.251   8.888  0.00  0.00    +0.166 C 
ATOM      5  H   UNL     1       8.617  -6.011   7.888  0.00  0.00    +0.163 HD
ATOM      6  H   UNL     1       9.104  -4.297  10.910  0.00  0.00    +0.159 HD
ATOM      7  H   UNL     1       8.987  -5.847  10.166  0.00  0.00    +0.159 HD
ATOM      8  H   UNL     1       8.533  -2.410   7.986  0.00  0.00    +0.159 HD
ATOM      9  H   UNL     1       8.846  -2.355   9.677  0.00  0.00    +0.159 HD
ENDROOT
BRANCH   1  10
ATOM     10  C   UNL     1       8.236  -4.464   6.474  0.00  0.00    +0.151 C 
BRANCH  10  11
ATOM     11  C   UNL     1       9.370  -4.778   5.536  0.00  0.00    -0.028 A 
ATOM     12  C   UNL     1       9.725  -3.876   4.522  0.00  0.00    +0.005 A 
ATOM     13  C   UNL     1      10.096  -5.972   5.661  0.00  0.00    +0.005 A 
ATOM     14  C   UNL     1      10.797  -4.153   3.670  0.00  0.00    +0.000 A 
ATOM     15  C   UNL     1      11.165  -6.245   4.808  0.00  0.00    +0.000 A 
ATOM     16  C   UNL     1      11.517  -5.334   3.814  0.00  0.00    +0.000 A 
ENDBRANCH  10  11
ENDBRANCH   1  10
TORSDOF 2
ENDMDL
MODEL 3
REMARK VINA RESULT:    -5.171      3.934      5.419
REMARK INTER + INTRA:          -5.899
REMARK INTER:                  -5.779
REMARK INTRA:                  -0.120
REMARK UNBOUND:                -0.124
REMARK  Name = 1550473
REMARK  2 active torsions:
REMARK  status: ('A' for Active; 'I' for Inactive)
REMARK    1  A    between atoms: N_1  and  C_4
REMARK    2  A    between atoms: C_4  and  C_5
REMARK                            x       y       z     vdW  Elec       q    Type
REMARK                         _______ _______ _______ _____ _____    ______ ____
ROOT
ATOM      1  N   UNL     1       8.765  -5.251   8.164  0.00  0.00    -0.354 N 
ATOM      2  N   UNL     1       9.112  -4.653  10.375  0.00  0.00    -0.372 N 
ATOM      3  N   UNL     1       9.609  -6.793   9.714  0.00  0.00    -0.372 N 
ATOM      4  C   UNL     1       9.161  -5.572   9.403  0.00  0.00    +0.166 C 
ATOM      5  H   UNL     1       8.407  -4.317   8.001  0.00  0.00    +0.163 HD
ATOM      6  H   UNL     1       9.407  -4.865  11.319  0.00  0.00    +0.159 HD
ATOM      7  H   UNL     1       8.797  -3.707  10.198  0.00  0.00    +0.159 HD
ATOM      8  H   UNL     1       9.665  -7.534   9.027  0.00  0.00    +0.159 HD
ATOM      9  H   UNL     1       9.898  -7.028  10.655  0.00  0.00    +0.159 HD
ENDROOT
BRANCH   1  10
ATOM     10  C   UNL     1       8.828  -6.162   7.023  0.00  0.00    +0.151 C 
BRANCH  10  11
ATOM     11  C   UNL     1       9.498  -5.463   5.873  0.00  0.00    -0.028 A 
ATOM     12  C   UNL     1      10.614  -6.034   5.244  0.00  0.00    +0.005 A 
ATOM     13  C   UNL     1       9.017  -4.231   5.402  0.00  0.00    +0.005 A 
ATOM     14  C   UNL     1      11.217  -5.400   4.156  0.00  0.00    +0.000 A 
ATOM     15  C   UNL     1       9.623  -3.600   4.316  0.00  0.00    +0.000 A 
ATOM     16  C   UNL     1      10.721  -4.186   3.691  0.00  0.00    +0.000 A 
ENDBRANCH  10  11
ENDBRANCH   1  10
TORSDOF 2
ENDMDL
MODEL 4
REMARK VINA RESULT:    -5.033      4.232      5.726
REMARK INTER + INTRA:          -5.745
REMARK INTER:                  -5.627
REMARK INTRA:                  -0.118
REMARK UNBOUND:                -0.124
REMARK  Name = 1550473
REMARK  2 active torsions:
REMARK  status: ('A' for Active; 'I' for Inactive)
REMARK    1  A    between atoms: N_1  and  C_4
REMARK    2  A    between atoms: C_4  and  C_5
REMARK                            x       y       z     vdW  Elec       q    Type
REMARK                         _______ _______ _______ _____ _____    ______ ____
ROOT
ATOM      1  N   UNL     1       9.707  -6.459   8.753  0.00  0.00    -0.354 N 
ATOM      2  N   UNL     1       9.684  -6.885  11.030  0.00  0.00    -0.372 N 
ATOM      3  N   UNL     1       9.467  -8.642   9.571  0.00  0.00    -0.372 N 
ATOM      4  C   UNL     1       9.619  -7.328   9.769  0.00  0.00    +0.166 C 
ATOM      5  H   UNL     1       9.791  -5.472   8.970  0.00  0.00    +0.163 HD
ATOM      6  H   UNL     1       9.624  -7.517  11.816  0.00  0.00    +0.159 HD
ATOM      7  H   UNL     1       9.814  -5.903  11.243  0.00  0.00    +0.159 HD
ATOM      8  H   UNL     1       9.405  -9.040   8.643  0.00  0.00    +0.159 HD
ATOM      9  H   UNL     1       9.393  -9.290  10.345  0.00  0.00    +0.159 HD
ENDROOT
BRANCH   1  10
ATOM     10  C   UNL     1       9.701  -6.845   7.344  0.00  0.00    +0.151 C 
BRANCH  10  11
ATOM     11  C   UNL     1       9.296  -5.660   6.511  0.00  0.00    -0.028 A 
ATOM     12  C   UNL     1       8.212  -4.858   6.896  0.00  0.00    +0.005 A 
ATOM     13  C   UNL     1       9.996  -5.331   5.340  0.00  0.00    +0.005 A 
ATOM     14  C   UNL     1       7.853  -3.739   6.139  0.00  0.00    +0.000 A 
ATOM     15  C   UNL     1       9.634  -4.214   4.587  0.00  0.00    +0.000 A 
ATOM     16  C   UNL     1       8.564  -3.417   4.988  0.00  0.00    +0.000 A 
ENDBRANCH  10  11
ENDBRANCH   1  10
TORSDOF 2
ENDMDL
MODEL 5
REMARK VINA RESULT:    -5.001     32.330     33.047
REMARK INTER + INTRA:          -5.710
REMARK INTER:                  -5.595
REMARK INTRA:                  -0.115
REMARK UNBOUND:                -0.124
REMARK  Name = 1550473
REMARK  2 active torsions:
REMARK  status: ('A' for Active; 'I' for Inactive)
REMARK    1  A    between atoms: N_1  and  C_4
REMARK    2  A    between atoms: C_4  and  C_5
REMARK                            x       y       z     vdW  Elec       q    Type
REMARK                         _______ _______ _______ _____ _____    ______ ____
ROOT
ATOM      1  N   UNL     1      19.332  19.752  27.217  0.00  0.00    -0.354 N 
ATOM      2  N   UNL     1      18.875  21.438  28.738  0.00  0.00    -0.372 N 
ATOM      3  N   UNL     1      20.937  20.432  28.784  0.00  0.00    -0.372 N 
ATOM      4  C   UNL     1      19.720  20.529  28.237  0.00  0.00    +0.166 C 
ATOM      5  H   UNL     1      18.386  19.854  26.868  0.00  0.00    +0.163 HD
ATOM      6  H   UNL     1      19.141  22.041  29.505  0.00  0.00    +0.159 HD
ATOM      7  H   UNL     1      17.946  21.569  28.357  0.00  0.00    +0.159 HD
ATOM      8  H   UNL     1      21.620  19.762  28.456  0.00  0.00    +0.159 HD
ATOM      9  H   UNL     1      21.218  21.019  29.560  0.00  0.00    +0.159 HD
ENDROOT
BRANCH   1  10
ATOM     10  C   UNL     1      20.194  18.769  26.564  0.00  0.00    +0.151 C 
BRANCH  10  11
ATOM     11  C   UNL     1      19.466  18.181  25.388  0.00  0.00    -0.028 A 
ATOM     12  C   UNL     1      20.174  17.729  24.265  0.00  0.00    +0.005 A 
ATOM     13  C   UNL     1      18.067  18.068  25.392  0.00  0.00    +0.005 A 
ATOM     14  C   UNL     1      19.500  17.155  23.184  0.00  0.00    +0.000 A 
ATOM     15  C   UNL     1      17.397  17.495  24.310  0.00  0.00    +0.000 A 
ATOM     16  C   UNL     1      18.114  17.037  23.208  0.00  0.00    +0.000 A 
ENDBRANCH  10  11
ENDBRANCH   1  10
TORSDOF 2
ENDMDL
MODEL 6
REMARK VINA RESULT:    -4.956      4.650      5.824
REMARK INTER + INTRA:          -5.659
REMARK INTER:                  -5.478
REMARK INTRA:                  -0.181
REMARK UNBOUND:                -0.124
REMARK  Name = 1550473
REMARK  2 active torsions:
REMARK  status: ('A' for Active; 'I' for Inactive)
REMARK    1  A    between atoms: N_1  and  C_4
REMARK    2  A    between atoms: C_4  and  C_5
REMARK                            x       y       z     vdW  Elec       q    Type
REMARK                         _______ _______ _______ _____ _____    ______ ____
ROOT
ATOM      1  N   UNL     1       8.633  -5.010   9.477  0.00  0.00    -0.354 N 
ATOM      2  N   UNL     1       9.367  -7.013  10.378  0.00  0.00    -0.372 N 
ATOM      3  N   UNL     1      10.868  -5.297  10.122  0.00  0.00    -0.372 N 
ATOM      4  C   UNL     1       9.620  -5.759   9.987  0.00  0.00    +0.166 C 
ATOM      5  H   UNL     1       7.716  -5.429   9.373  0.00  0.00    +0.163 HD
ATOM      6  H   UNL     1      10.091  -7.601  10.770  0.00  0.00    +0.159 HD
ATOM      7  H   UNL     1       8.439  -7.414  10.315  0.00  0.00    +0.159 HD
ATOM      8  H   UNL     1      11.126  -4.361   9.840  0.00  0.00    +0.159 HD
ATOM      9  H   UNL     1      11.609  -5.874  10.501  0.00  0.00    +0.159 HD
ENDROOT
BRANCH   1  10
ATOM     10  C   UNL     1       8.792  -3.615   9.071  0.00  0.00    +0.151 C 
BRANCH  10  11
ATOM     11  C   UNL     1       8.909  -3.550   7.573  0.00  0.00    -0.028 A 
ATOM     12  C   UNL     1      10.164  -3.422   6.961  0.00  0.00    +0.005 A 
ATOM     13  C   UNL     1       7.768  -3.622   6.759  0.00  0.00    +0.005 A 
ATOM     14  C   UNL     1      10.276  -3.392   5.569  0.00  0.00    +0.000 A 
ATOM     15  C   UNL     1       7.883  -3.590   5.369  0.00  0.00    +0.000 A 
ATOM     16  C   UNL     1       9.137  -3.478   4.775  0.00  0.00    +0.000 A 
ENDBRANCH  10  11
ENDBRANCH   1  10
TORSDOF 2
ENDMDL
MODEL 7
REMARK VINA RESULT:    -4.864      1.620      2.521
REMARK INTER + INTRA:          -5.557
REMARK INTER:                  -5.387
REMARK INTRA:                  -0.170
REMARK UNBOUND:                -0.124
REMARK  Name = 1550473
REMARK  2 active torsions:
REMARK  status: ('A' for Active; 'I' for Inactive)
REMARK    1  A    between atoms: N_1  and  C_4
REMARK    2  A    between atoms: C_4  and  C_5
REMARK                            x       y       z     vdW  Elec       q    Type
REMARK                         _______ _______ _______ _____ _____    ______ ____
ROOT
ATOM      1  N   UNL     1      12.406  -5.413   4.857  0.00  0.00    -0.354 N 
ATOM      2  N   UNL     1      14.304  -4.689   5.969  0.00  0.00    -0.372 N 
ATOM      3  N   UNL     1      13.204  -3.227   4.584  0.00  0.00    -0.372 N 
ATOM      4  C   UNL     1      13.292  -4.445   5.128  0.00  0.00    +0.166 C 
ATOM      5  H   UNL     1      12.545  -6.324   5.279  0.00  0.00    +0.163 HD
ATOM      6  H   UNL     1      14.986  -3.977   6.196  0.00  0.00    +0.159 HD
ATOM      7  H   UNL     1      14.414  -5.586   6.425  0.00  0.00    +0.159 HD
ATOM      8  H   UNL     1      12.468  -2.981   3.936  0.00  0.00    +0.159 HD
ATOM      9  H   UNL     1      13.884  -2.505   4.789  0.00  0.00    +0.159 HD
ENDROOT
BRANCH   1  10
ATOM     10  C   UNL     1      11.238  -5.235   3.997  0.00  0.00    +0.151 C 
BRANCH  10  11
ATOM     11  C   UNL     1      10.061  -4.833   4.843  0.00  0.00    -0.028 A 
ATOM     12  C   UNL     1       9.355  -3.653   4.567  0.00  0.00    +0.005 A 
ATOM     13  C   UNL     1       9.644  -5.632   5.919  0.00  0.00    +0.005 A 
ATOM     14  C   UNL     1       8.243  -3.296   5.334  0.00  0.00    +0.000 A 
ATOM     15  C   UNL     1       8.534  -5.271   6.683  0.00  0.00    +0.000 A 
ATOM     16  C   UNL     1       7.833  -4.104   6.389  0.00  0.00    +0.000 A 
ENDBRANCH  10  11
ENDBRANCH   1  10
TORSDOF 2
ENDMDL
MODEL 8
REMARK VINA RESULT:    -4.752      4.268      7.173
REMARK INTER + INTRA:          -5.432
REMARK INTER:                  -5.288
REMARK INTRA:                  -0.143
REMARK UNBOUND:                -0.124
REMARK  Name = 1550473
REMARK  2 active torsions:
REMARK  status: ('A' for Active; 'I' for Inactive)
REMARK    1  A    between atoms: N_1  and  C_4
REMARK    2  A    between atoms: C_4  and  C_5
REMARK                            x       y       z     vdW  Elec       q    Type
REMARK                         _______ _______ _______ _____ _____    ______ ____
ROOT
ATOM      1  N   UNL     1      13.436  -4.289   1.408  0.00  0.00    -0.354 N 
ATOM      2  N   UNL     1      11.996  -3.474   3.029  0.00  0.00    -0.372 N 
ATOM      3  N   UNL     1      13.738  -2.155   2.329  0.00  0.00    -0.372 N 
ATOM      4  C   UNL     1      13.068  -3.309   2.245  0.00  0.00    +0.166 C 
ATOM      5  H   UNL     1      12.904  -5.152   1.414  0.00  0.00    +0.163 HD
ATOM      6  H   UNL     1      11.692  -2.752   3.667  0.00  0.00    +0.159 HD
ATOM      7  H   UNL     1      11.439  -4.320   2.999  0.00  0.00    +0.159 HD
ATOM      8  H   UNL     1      14.559  -1.971   1.769  0.00  0.00    +0.159 HD
ATOM      9  H   UNL     1      13.456  -1.424   2.970  0.00  0.00    +0.159 HD
ENDROOT
BRANCH   1  10
ATOM     10  C   UNL     1      14.556  -4.189   0.474  0.00  0.00    +0.151 C 
BRANCH  10  11
ATOM     11  C   UNL     1      14.065  -4.490  -0.915  0.00  0.00    -0.028 A 
ATOM     12  C   UNL     1      12.723  -4.831  -1.138  0.00  0.00    +0.005 A 
ATOM     13  C   UNL     1      14.936  -4.431  -2.014  0.00  0.00    +0.005 A 
ATOM     14  C   UNL     1      12.260  -5.082  -2.432  0.00  0.00    +0.000 A 
ATOM     15  C   UNL     1      14.470  -4.683  -3.304  0.00  0.00    +0.000 A 
ATOM     16  C   UNL     1      13.132  -5.006  -3.513  0.00  0.00    +0.000 A 
ENDBRANCH  10  11
ENDBRANCH   1  10
TORSDOF 2
ENDMDL
MODEL 9
REMARK VINA RESULT:    -4.700      3.960      5.372
REMARK INTER + INTRA:          -5.374
REMARK INTER:                  -5.275
REMARK INTRA:                  -0.099
REMARK UNBOUND:                -0.124
REMARK  Name = 1550473
REMARK  2 active torsions:
REMARK  status: ('A' for Active; 'I' for Inactive)
REMARK    1  A    between atoms: N_1  and  C_4
REMARK    2  A    between atoms: C_4  and  C_5
REMARK                            x       y       z     vdW  Elec       q    Type
REMARK                         _______ _______ _______ _____ _____    ______ ____
ROOT
ATOM      1  N   UNL     1       9.432  -7.969   6.635  0.00  0.00    -0.354 N 
ATOM      2  N   UNL     1       9.179 -10.255   6.366  0.00  0.00    -0.372 N 
ATOM      3  N   UNL     1       9.432  -9.409   8.484  0.00  0.00    -0.372 N 
ATOM      4  C   UNL     1       9.350  -9.196   7.166  0.00  0.00    +0.166 C 
ATOM      5  H   UNL     1       9.392  -7.877   5.626  0.00  0.00    +0.163 HD
ATOM      6  H   UNL     1       9.111 -11.193   6.738  0.00  0.00    +0.159 HD
ATOM      7  H   UNL     1       9.094 -10.156   5.362  0.00  0.00    +0.159 HD
ATOM      8  H   UNL     1       9.566  -8.652   9.141  0.00  0.00    +0.159 HD
ATOM      9  H   UNL     1       9.377 -10.341   8.875  0.00  0.00    +0.159 HD
ENDROOT
BRANCH   1  10
ATOM     10  C   UNL     1       9.563  -6.744   7.422  0.00  0.00    +0.151 C 
BRANCH  10  11
ATOM     11  C   UNL     1       9.217  -5.564   6.557  0.00  0.00    -0.028 A 
ATOM     12  C   UNL     1       9.969  -5.279   5.408  0.00  0.00    +0.005 A 
ATOM     13  C   UNL     1       8.134  -4.731   6.877  0.00  0.00    +0.005 A 
ATOM     14  C   UNL     1       9.629  -4.200   4.588  0.00  0.00    +0.000 A 
ATOM     15  C   UNL     1       7.798  -3.655   6.056  0.00  0.00    +0.000 A 
ATOM     16  C   UNL     1       8.544  -3.391   4.910  0.00  0.00    +0.000 A 
ENDBRANCH  10  11
ENDBRANCH   1  10
TORSDOF 2
ENDMDL
