MODEL 1
REMARK VINA RESULT:    -5.048      0.000      0.000
REMARK INTER + INTRA:          -5.790
REMARK INTER:                  -5.638
REMARK INTRA:                  -0.152
REMARK UNBOUND:                -0.152
REMARK  Name = 1550473
REMARK  2 active torsions:
REMARK  status: ('A' for Active; 'I' for Inactive)
REMARK    1  A    between atoms: N_1  and  C_4
REMARK    2  A    between atoms: C_4  and  C_5
REMARK                            x       y       z     vdW  Elec       q    Type
REMARK                         _______ _______ _______ _____ _____    ______ ____
ROOT
ATOM      1  N   UNL     1      12.392   4.475  10.612  0.00  0.00    -0.354 N 
ATOM      2  N   UNL     1      12.373   2.792  12.203  0.00  0.00    -0.372 N 
ATOM      3  N   UNL     1      13.720   4.619  12.537  0.00  0.00    -0.372 N 
ATOM      4  C   UNL     1      12.831   3.975  11.775  0.00  0.00    +0.166 C 
ATOM      5  H   UNL     1      11.740   3.923  10.066  0.00  0.00    +0.163 HD
ATOM      6  H   UNL     1      12.683   2.391  13.078  0.00  0.00    +0.159 HD
ATOM      7  H   UNL     1      11.687   2.264  11.678  0.00  0.00    +0.159 HD
ATOM      8  H   UNL     1      14.109   5.513  12.268  0.00  0.00    +0.159 HD
ATOM      9  H   UNL     1      14.051   4.229  13.411  0.00  0.00    +0.159 HD
ENDROOT
BRANCH   1  10
ATOM     10  C   UNL     1      12.787   5.779  10.082  0.00  0.00    +0.151 C 
BRANCH  10  11
ATOM     11  C   UNL     1      13.540   5.579   8.796  0.00  0.00    -0.028 A 
ATOM     12  C   UNL     1      14.423   6.563   8.327  0.00  0.00    +0.005 A 
ATOM     13  C   UNL     1      13.380   4.405   8.044  0.00  0.00    +0.005 A 
ATOM     14  C   UNL     1      15.145   6.365   7.148  0.00  0.00    +0.000 A 
ATOM     15  C   UNL     1      14.102   4.211   6.867  0.00  0.00    +0.000 A 
ATOM     16  C   UNL     1      14.987   5.190   6.421  0.00  0.00    +0.000 A 
ENDBRANCH  10  11
ENDBRANCH   1  10
TORSDOF 2
ENDMDL
MODEL 2
REMARK VINA RESULT:    -4.859      2.622      3.608
REMARK INTER + INTRA:          -5.579
REMARK INTER:                  -5.411
REMARK INTRA:                  -0.168
REMARK UNBOUND:                -0.152
REMARK  Name = 1550473
REMARK  2 active torsions:
REMARK  status: ('A' for Active; 'I' for Inactive)
REMARK    1  A    between atoms: N_1  and  C_4
REMARK    2  A    between atoms: C_4  and  C_5
REMARK                            x       y       z     vdW  Elec       q    Type
REMARK                         _______ _______ _______ _____ _____    ______ ____
ROOT
ATOM      1  N   UNL     1      15.772   2.846  11.071  0.00  0.00    -0.354 N 
ATOM      2  N   UNL     1      18.072   2.738  10.824  0.00  0.00    -0.372 N 
ATOM      3  N   UNL     1      17.152   4.573  11.848  0.00  0.00    -0.372 N 
ATOM      4  C   UNL     1      16.983   3.389  11.250  0.00  0.00    +0.166 C 
ATOM      5  H   UNL     1      15.709   1.960  10.583  0.00  0.00    +0.163 HD
ATOM      6  H   UNL     1      18.999   3.121  10.949  0.00  0.00    +0.159 HD
ATOM      7  H   UNL     1      18.010   1.831  10.378  0.00  0.00    +0.159 HD
ATOM      8  H   UNL     1      16.370   5.118  12.188  0.00  0.00    +0.159 HD
ATOM      9  H   UNL     1      18.071   4.979  11.972  0.00  0.00    +0.159 HD
ENDROOT
BRANCH   1  10
ATOM     10  C   UNL     1      14.527   3.449  11.546  0.00  0.00    +0.151 C 
BRANCH  10  11
ATOM     11  C   UNL     1      13.859   4.162  10.403  0.00  0.00    -0.028 A 
ATOM     12  C   UNL     1      13.784   3.564   9.136  0.00  0.00    +0.005 A 
ATOM     13  C   UNL     1      13.295   5.434  10.581  0.00  0.00    +0.005 A 
ATOM     14  C   UNL     1      13.137   4.213   8.082  0.00  0.00    +0.000 A 
ATOM     15  C   UNL     1      12.650   6.080   9.526  0.00  0.00    +0.000 A 
ATOM     16  C   UNL     1      12.570   5.468   8.277  0.00  0.00    +0.000 A 
ENDBRANCH  10  11
ENDBRANCH   1  10
TORSDOF 2
ENDMDL
MODEL 3
REMARK VINA RESULT:    -4.814      1.416      2.602
REMARK INTER + INTRA:          -5.528
REMARK INTER:                  -5.406
REMARK INTRA:                  -0.123
REMARK UNBOUND:                -0.152
REMARK  Name = 1550473
REMARK  2 active torsions:
REMARK  status: ('A' for Active; 'I' for Inactive)
REMARK    1  A    between atoms: N_1  and  C_4
REMARK    2  A    between atoms: C_4  and  C_5
REMARK                            x       y       z     vdW  Elec       q    Type
REMARK                         _______ _______ _______ _____ _____    ______ ____
ROOT
ATOM      1  N   UNL     1      13.968   5.056   9.172  0.00  0.00    -0.354 N 
ATOM      2  N   UNL     1      12.738   3.886  10.747  0.00  0.00    -0.372 N 
ATOM      3  N   UNL     1      12.544   6.171  10.662  0.00  0.00    -0.372 N 
ATOM      4  C   UNL     1      13.091   5.048  10.184  0.00  0.00    +0.166 C 
ATOM      5  H   UNL     1      14.370   4.173   8.876  0.00  0.00    +0.163 HD
ATOM      6  H   UNL     1      12.076   3.849  11.511  0.00  0.00    +0.159 HD
ATOM      7  H   UNL     1      13.106   3.002  10.419  0.00  0.00    +0.159 HD
ATOM      8  H   UNL     1      12.773   7.081  10.284  0.00  0.00    +0.159 HD
ATOM      9  H   UNL     1      11.888   6.155  11.433  0.00  0.00    +0.159 HD
ENDROOT
BRANCH   1  10
ATOM     10  C   UNL     1      14.378   6.262   8.454  0.00  0.00    +0.151 C 
BRANCH  10  11
ATOM     11  C   UNL     1      14.894   5.873   7.096  0.00  0.00    -0.028 A 
ATOM     12  C   UNL     1      14.347   4.778   6.412  0.00  0.00    +0.005 A 
ATOM     13  C   UNL     1      15.927   6.600   6.485  0.00  0.00    +0.005 A 
ATOM     14  C   UNL     1      14.806   4.435   5.138  0.00  0.00    +0.000 A 
ATOM     15  C   UNL     1      16.383   6.255   5.213  0.00  0.00    +0.000 A 
ATOM     16  C   UNL     1      15.821   5.173   4.539  0.00  0.00    +0.000 A 
ENDBRANCH  10  11
ENDBRANCH   1  10
TORSDOF 2
ENDMDL
MODEL 4
REMARK VINA RESULT:    -4.798      5.253      6.895
REMARK INTER + INTRA:          -5.511
REMARK INTER:                  -5.402
REMARK INTRA:                  -0.110
REMARK UNBOUND:                -0.152
REMARK  Name = 1550473
REMARK  2 active torsions:
REMARK  status: ('A' for Active; 'I' for Inactive)
REMARK    1  A    between atoms: N_1  and  C_4
REMARK    2  A    between atoms: C_4  and  C_5
REMARK                            x       y       z     vdW  Elec       q    Type
REMARK                         _______ _______ _______ _____ _____    ______ ____
ROOT
ATOM      1  N   UNL     1      17.189   7.001   4.062  0.00  0.00    -0.354 N 
ATOM      2  N   UNL     1      17.664   9.204   3.528  0.00  0.00    -0.372 N 
ATOM      3  N   UNL     1      15.893   8.171   2.499  0.00  0.00    -0.372 N 
ATOM      4  C   UNL     1      16.910   8.110   3.364  0.00  0.00    +0.166 C 
ATOM      5  H   UNL     1      17.992   7.010   4.680  0.00  0.00    +0.163 HD
ATOM      6  H   UNL     1      17.476  10.057   3.018  0.00  0.00    +0.159 HD
ATOM      7  H   UNL     1      18.438   9.224   4.181  0.00  0.00    +0.159 HD
ATOM      8  H   UNL     1      15.289   7.378   2.325  0.00  0.00    +0.159 HD
ATOM      9  H   UNL     1      15.696   9.012   1.970  0.00  0.00    +0.159 HD
ENDROOT
BRANCH   1  10
ATOM     10  C   UNL     1      16.397   5.774   3.997  0.00  0.00    +0.151 C 
BRANCH  10  11
ATOM     11  C   UNL     1      15.657   5.597   5.294  0.00  0.00    -0.028 A 
ATOM     12  C   UNL     1      15.824   6.517   6.340  0.00  0.00    +0.005 A 
ATOM     13  C   UNL     1      14.784   4.514   5.483  0.00  0.00    +0.005 A 
ATOM     14  C   UNL     1      15.115   6.370   7.534  0.00  0.00    +0.000 A 
ATOM     15  C   UNL     1      14.079   4.371   6.677  0.00  0.00    +0.000 A 
ATOM     16  C   UNL     1      14.242   5.300   7.702  0.00  0.00    +0.000 A 
ENDBRANCH  10  11
ENDBRANCH   1  10
TORSDOF 2
ENDMDL
MODEL 5
REMARK VINA RESULT:    -4.759     11.254     12.515
REMARK INTER + INTRA:          -5.468
REMARK INTER:                  -5.345
REMARK INTRA:                  -0.123
REMARK UNBOUND:                -0.152
REMARK  Name = 1550473
REMARK  2 active torsions:
REMARK  status: ('A' for Active; 'I' for Inactive)
REMARK    1  A    between atoms: N_1  and  C_4
REMARK    2  A    between atoms: C_4  and  C_5
REMARK                            x       y       z     vdW  Elec       q    Type
REMARK                         _______ _______ _______ _____ _____    ______ ____
ROOT
ATOM      1  N   UNL     1       9.540  14.572   7.834  0.00  0.00    -0.354 N 
ATOM      2  N   UNL     1      11.745  13.983   8.230  0.00  0.00    -0.372 N 
ATOM      3  N   UNL     1      11.078  14.397   6.074  0.00  0.00    -0.372 N 
ATOM      4  C   UNL     1      10.773  14.321   7.374  0.00  0.00    +0.166 C 
ATOM      5  H   UNL     1       9.366  14.468   8.827  0.00  0.00    +0.163 HD
ATOM      6  H   UNL     1      12.685  13.791   7.913  0.00  0.00    +0.159 HD
ATOM      7  H   UNL     1      11.579  13.924   9.228  0.00  0.00    +0.159 HD
ATOM      8  H   UNL     1      10.389  14.641   5.376  0.00  0.00    +0.159 HD
ATOM      9  H   UNL     1      12.011  14.197   5.736  0.00  0.00    +0.159 HD
ENDROOT
BRANCH   1  10
ATOM     10  C   UNL     1       8.425  15.000   6.991  0.00  0.00    +0.151 C 
BRANCH  10  11
ATOM     11  C   UNL     1       7.257  15.359   7.868  0.00  0.00    -0.028 A 
ATOM     12  C   UNL     1       5.983  15.550   7.314  0.00  0.00    +0.005 A 
ATOM     13  C   UNL     1       7.416  15.504   9.255  0.00  0.00    +0.005 A 
ATOM     14  C   UNL     1       4.891  15.854   8.131  0.00  0.00    +0.000 A 
ATOM     15  C   UNL     1       6.324  15.808  10.067  0.00  0.00    +0.000 A 
ATOM     16  C   UNL     1       5.062  15.980   9.506  0.00  0.00    +0.000 A 
ENDBRANCH  10  11
ENDBRANCH   1  10
TORSDOF 2
ENDMDL
MODEL 6
REMARK VINA RESULT:    -4.735      3.851      5.562
REMARK INTER + INTRA:          -5.441
REMARK INTER:                  -5.301
REMARK INTRA:                  -0.140
REMARK UNBOUND:                -0.152
REMARK  Name = 1550473
REMARK  2 active torsions:
REMARK  status: ('A' for Active; 'I' for Inactive)
REMARK    1  A    between atoms: N_1  and  C_4
REMARK    2  A    between atoms: C_4  and  C_5
REMARK                            x       y       z     vdW  Elec       q    Type
REMARK                         _______ _______ _______ _____ _____    ______ ____
ROOT
ATOM      1  N   UNL     1      15.186   6.058   5.662  0.00  0.00    -0.354 N 
ATOM      2  N   UNL     1      16.232   7.820   4.582  0.00  0.00    -0.372 N 
ATOM      3  N   UNL     1      17.521   6.149   5.483  0.00  0.00    -0.372 N 
ATOM      4  C   UNL     1      16.308   6.663   5.251  0.00  0.00    +0.166 C 
ATOM      5  H   UNL     1      14.299   6.514   5.481  0.00  0.00    +0.163 HD
ATOM      6  H   UNL     1      17.061   8.297   4.256  0.00  0.00    +0.159 HD
ATOM      7  H   UNL     1      15.342   8.250   4.363  0.00  0.00    +0.159 HD
ATOM      8  H   UNL     1      17.647   5.281   5.987  0.00  0.00    +0.159 HD
ATOM      9  H   UNL     1      18.363   6.618   5.174  0.00  0.00    +0.159 HD
ENDROOT
BRANCH   1  10
ATOM     10  C   UNL     1      15.157   4.768   6.351  0.00  0.00    +0.151 C 
BRANCH  10  11
ATOM     11  C   UNL     1      14.276   4.879   7.564  0.00  0.00    -0.028 A 
ATOM     12  C   UNL     1      13.719   3.731   8.147  0.00  0.00    +0.005 A 
ATOM     13  C   UNL     1      13.999   6.128   8.140  0.00  0.00    +0.005 A 
ATOM     14  C   UNL     1      12.925   3.830   9.292  0.00  0.00    +0.000 A 
ATOM     15  C   UNL     1      13.204   6.223   9.283  0.00  0.00    +0.000 A 
ATOM     16  C   UNL     1      12.670   5.074   9.860  0.00  0.00    +0.000 A 
ENDBRANCH  10  11
ENDBRANCH   1  10
TORSDOF 2
ENDMDL
MODEL 7
REMARK VINA RESULT:    -4.461     11.626     12.464
REMARK INTER + INTRA:          -5.135
REMARK INTER:                  -5.007
REMARK INTRA:                  -0.127
REMARK UNBOUND:                -0.152
REMARK  Name = 1550473
REMARK  2 active torsions:
REMARK  status: ('A' for Active; 'I' for Inactive)
REMARK    1  A    between atoms: N_1  and  C_4
REMARK    2  A    between atoms: C_4  and  C_5
REMARK                            x       y       z     vdW  Elec       q    Type
REMARK                         _______ _______ _______ _____ _____    ______ ____
ROOT
ATOM      1  N   UNL     1       8.774  15.359  10.694  0.00  0.00    -0.354 N 
ATOM      2  N   UNL     1      10.773  14.947  11.788  0.00  0.00    -0.372 N 
ATOM      3  N   UNL     1       9.552  16.800  12.370  0.00  0.00    -0.372 N 
ATOM      4  C   UNL     1       9.686  15.707  11.611  0.00  0.00    +0.166 C 
ATOM      5  H   UNL     1       8.949  14.535  10.130  0.00  0.00    +0.163 HD
ATOM      6  H   UNL     1      11.477  15.182  12.475  0.00  0.00    +0.159 HD
ATOM      7  H   UNL     1      10.923  14.099  11.255  0.00  0.00    +0.159 HD
ATOM      8  H   UNL     1       8.758  17.419  12.281  0.00  0.00    +0.159 HD
ATOM      9  H   UNL     1      10.252  17.059  13.055  0.00  0.00    +0.159 HD
ENDROOT
BRANCH   1  10
ATOM     10  C   UNL     1       7.529  16.089  10.461  0.00  0.00    +0.151 C 
BRANCH  10  11
ATOM     11  C   UNL     1       7.010  15.749   9.090  0.00  0.00    -0.028 A 
ATOM     12  C   UNL     1       7.834  15.103   8.157  0.00  0.00    +0.005 A 
ATOM     13  C   UNL     1       5.694  16.067   8.721  0.00  0.00    +0.005 A 
ATOM     14  C   UNL     1       7.343  14.760   6.895  0.00  0.00    +0.000 A 
ATOM     15  C   UNL     1       5.208  15.724   7.460  0.00  0.00    +0.000 A 
ATOM     16  C   UNL     1       6.032  15.069   6.548  0.00  0.00    +0.000 A 
ENDBRANCH  10  11
ENDBRANCH   1  10
TORSDOF 2
ENDMDL
MODEL 8
REMARK VINA RESULT:    -4.428     11.550     12.329
REMARK INTER + INTRA:          -5.098
REMARK INTER:                  -5.002
REMARK INTRA:                  -0.096
REMARK UNBOUND:                -0.152
REMARK  Name = 1550473
REMARK  2 active torsions:
REMARK  status: ('A' for Active; 'I' for Inactive)
REMARK    1  A    between atoms: N_1  and  C_4
REMARK    2  A    between atoms: C_4  and  C_5
REMARK                            x       y       z     vdW  Elec       q    Type
REMARK                         _______ _______ _______ _____ _____    ______ ____
ROOT
ATOM      1  N   UNL     1       7.887  14.988  11.299  0.00  0.00    -0.354 N 
ATOM      2  N   UNL     1       7.013  14.216  13.299  0.00  0.00    -0.372 N 
ATOM      3  N   UNL     1       8.672  15.801  13.352  0.00  0.00    -0.372 N 
ATOM      4  C   UNL     1       7.865  15.008  12.638  0.00  0.00    +0.166 C 
ATOM      5  H   UNL     1       7.272  14.344  10.817  0.00  0.00    +0.163 HD
ATOM      6  H   UNL     1       6.971  14.212  14.310  0.00  0.00    +0.159 HD
ATOM      7  H   UNL     1       6.367  13.606  12.814  0.00  0.00    +0.159 HD
ATOM      8  H   UNL     1       9.342  16.418  12.913  0.00  0.00    +0.159 HD
ATOM      9  H   UNL     1       8.653  15.802  14.364  0.00  0.00    +0.159 HD
ENDROOT
BRANCH   1  10
ATOM     10  C   UNL     1       8.740  15.851  10.482  0.00  0.00    +0.151 C 
BRANCH  10  11
ATOM     11  C   UNL     1       8.165  15.938   9.095  0.00  0.00    -0.028 A 
ATOM     12  C   UNL     1       8.611  15.075   8.084  0.00  0.00    +0.005 A 
ATOM     13  C   UNL     1       7.169  16.878   8.787  0.00  0.00    +0.005 A 
ATOM     14  C   UNL     1       8.056  15.136   6.803  0.00  0.00    +0.000 A 
ATOM     15  C   UNL     1       6.618  16.936   7.507  0.00  0.00    +0.000 A 
ATOM     16  C   UNL     1       7.060  16.063   6.516  0.00  0.00    +0.000 A 
ENDBRANCH  10  11
ENDBRANCH   1  10
TORSDOF 2
ENDMDL
MODEL 9
REMARK VINA RESULT:    -4.200     24.095     25.322
REMARK INTER + INTRA:          -4.843
REMARK INTER:                  -4.712
REMARK INTRA:                  -0.132
REMARK UNBOUND:                -0.152
REMARK  Name = 1550473
REMARK  2 active torsions:
REMARK  status: ('A' for Active; 'I' for Inactive)
REMARK    1  A    between atoms: N_1  and  C_4
REMARK    2  A    between atoms: C_4  and  C_5
REMARK                            x       y       z     vdW  Elec       q    Type
REMARK                         _______ _______ _______ _____ _____    ______ ____
ROOT
ATOM      1  N   UNL     1       3.710 -15.262   1.676  0.00  0.00    -0.354 N 
ATOM      2  N   UNL     1       2.820 -14.132   3.492  0.00  0.00    -0.372 N 
ATOM      3  N   UNL     1       2.759 -16.426   3.474  0.00  0.00    -0.372 N 
ATOM      4  C   UNL     1       3.101 -15.284   2.870  0.00  0.00    +0.166 C 
ATOM      5  H   UNL     1       3.916 -14.362   1.258  0.00  0.00    +0.163 HD
ATOM      6  H   UNL     1       2.364 -14.117   4.394  0.00  0.00    +0.159 HD
ATOM      7  H   UNL     1       3.068 -13.236   3.092  0.00  0.00    +0.159 HD
ATOM      8  H   UNL     1       2.938 -17.329   3.054  0.00  0.00    +0.159 HD
ATOM      9  H   UNL     1       2.292 -16.431   4.372  0.00  0.00    +0.159 HD
ENDROOT
BRANCH   1  10
ATOM     10  C   UNL     1       4.109 -16.460   0.940  0.00  0.00    +0.151 C 
BRANCH  10  11
ATOM     11  C   UNL     1       3.369 -16.502  -0.368  0.00  0.00    -0.028 A 
ATOM     12  C   UNL     1       1.987 -16.263  -0.413  0.00  0.00    +0.005 A 
ATOM     13  C   UNL     1       4.044 -16.774  -1.568  0.00  0.00    +0.005 A 
ATOM     14  C   UNL     1       1.305 -16.272  -1.631  0.00  0.00    +0.000 A 
ATOM     15  C   UNL     1       3.359 -16.783  -2.783  0.00  0.00    +0.000 A 
ATOM     16  C   UNL     1       1.990 -16.530  -2.814  0.00  0.00    +0.000 A 
ENDBRANCH  10  11
ENDBRANCH   1  10
TORSDOF 2
ENDMDL
