MODEL 1
REMARK VINA RESULT:    -5.287      0.000      0.000
REMARK INTER + INTRA:          -6.059
REMARK INTER:                  -5.905
REMARK INTRA:                  -0.153
REMARK UNBOUND:                -0.153
REMARK  Name = 1550473
REMARK  2 active torsions:
REMARK  status: ('A' for Active; 'I' for Inactive)
REMARK    1  A    between atoms: N_1  and  C_4
REMARK    2  A    between atoms: C_4  and  C_5
REMARK                            x       y       z     vdW  Elec       q    Type
REMARK                         _______ _______ _______ _____ _____    ______ ____
ROOT
ATOM      1  N   UNL     1       7.841   1.238  19.847  0.00  0.00    -0.354 N 
ATOM      2  N   UNL     1       7.920   0.185  21.908  0.00  0.00    -0.372 N 
ATOM      3  N   UNL     1       9.846   0.348  20.672  0.00  0.00    -0.372 N 
ATOM      4  C   UNL     1       8.538   0.597  20.795  0.00  0.00    +0.166 C 
ATOM      5  H   UNL     1       6.846   1.369  19.987  0.00  0.00    +0.163 HD
ATOM      6  H   UNL     1       8.420  -0.298  22.642  0.00  0.00    +0.159 HD
ATOM      7  H   UNL     1       6.934   0.358  22.066  0.00  0.00    +0.159 HD
ATOM      8  H   UNL     1      10.370   0.627  19.854  0.00  0.00    +0.159 HD
ATOM      9  H   UNL     1      10.361  -0.145  21.391  0.00  0.00    +0.159 HD
ENDROOT
BRANCH   1  10
ATOM     10  C   UNL     1       8.430   1.775  18.622  0.00  0.00    +0.151 C 
BRANCH  10  11
ATOM     11  C   UNL     1       8.260   0.771  17.514  0.00  0.00    -0.028 A 
ATOM     12  C   UNL     1       7.043   0.673  16.823  0.00  0.00    +0.005 A 
ATOM     13  C   UNL     1       9.313  -0.080  17.148  0.00  0.00    +0.005 A 
ATOM     14  C   UNL     1       6.894  -0.238  15.775  0.00  0.00    +0.000 A 
ATOM     15  C   UNL     1       9.160  -0.989  16.101  0.00  0.00    +0.000 A 
ATOM     16  C   UNL     1       7.951  -1.066  15.413  0.00  0.00    +0.000 A 
ENDBRANCH  10  11
ENDBRANCH   1  10
TORSDOF 2
ENDMDL
MODEL 2
REMARK VINA RESULT:    -5.219      1.480      2.684
REMARK INTER + INTRA:          -5.983
REMARK INTER:                  -5.876
REMARK INTRA:                  -0.107
REMARK UNBOUND:                -0.153
REMARK  Name = 1550473
REMARK  2 active torsions:
REMARK  status: ('A' for Active; 'I' for Inactive)
REMARK    1  A    between atoms: N_1  and  C_4
REMARK    2  A    between atoms: C_4  and  C_5
REMARK                            x       y       z     vdW  Elec       q    Type
REMARK                         _______ _______ _______ _____ _____    ______ ____
ROOT
ATOM      1  N   UNL     1       8.895   1.329  17.997  0.00  0.00    -0.354 N 
ATOM      2  N   UNL     1       7.129   2.451  18.991  0.00  0.00    -0.372 N 
ATOM      3  N   UNL     1       7.999   0.603  20.037  0.00  0.00    -0.372 N 
ATOM      4  C   UNL     1       8.020   1.452  19.004  0.00  0.00    +0.166 C 
ATOM      5  H   UNL     1       8.840   1.987  17.228  0.00  0.00    +0.163 HD
ATOM      6  H   UNL     1       6.458   2.570  19.738  0.00  0.00    +0.159 HD
ATOM      7  H   UNL     1       7.106   3.134  18.244  0.00  0.00    +0.159 HD
ATOM      8  H   UNL     1       8.641  -0.175  20.104  0.00  0.00    +0.159 HD
ATOM      9  H   UNL     1       7.328   0.699  20.789  0.00  0.00    +0.159 HD
ENDROOT
BRANCH   1  10
ATOM     10  C   UNL     1       9.941   0.309  17.942  0.00  0.00    +0.151 C 
BRANCH  10  11
ATOM     11  C   UNL     1       9.677  -0.601  16.774  0.00  0.00    -0.028 A 
ATOM     12  C   UNL     1      10.736  -1.259  16.132  0.00  0.00    +0.005 A 
ATOM     13  C   UNL     1       8.371  -0.815  16.310  0.00  0.00    +0.005 A 
ATOM     14  C   UNL     1      10.489  -2.128  15.066  0.00  0.00    +0.000 A 
ATOM     15  C   UNL     1       8.128  -1.682  15.245  0.00  0.00    +0.000 A 
ATOM     16  C   UNL     1       9.187  -2.341  14.625  0.00  0.00    +0.000 A 
ENDBRANCH  10  11
ENDBRANCH   1  10
TORSDOF 2
ENDMDL
MODEL 3
REMARK VINA RESULT:    -5.187      3.834      5.092
REMARK INTER + INTRA:          -5.946
REMARK INTER:                  -5.803
REMARK INTRA:                  -0.143
REMARK UNBOUND:                -0.153
REMARK  Name = 1550473
REMARK  2 active torsions:
REMARK  status: ('A' for Active; 'I' for Inactive)
REMARK    1  A    between atoms: N_1  and  C_4
REMARK    2  A    between atoms: C_4  and  C_5
REMARK                            x       y       z     vdW  Elec       q    Type
REMARK                         _______ _______ _______ _____ _____    ______ ____
ROOT
ATOM      1  N   UNL     1      10.329  -2.023  15.407  0.00  0.00    -0.354 N 
ATOM      2  N   UNL     1      10.978  -3.039  13.430  0.00  0.00    -0.372 N 
ATOM      3  N   UNL     1      12.309  -1.397  14.321  0.00  0.00    -0.372 N 
ATOM      4  C   UNL     1      11.203  -2.144  14.399  0.00  0.00    +0.166 C 
ATOM      5  H   UNL     1       9.495  -2.598  15.392  0.00  0.00    +0.163 HD
ATOM      6  H   UNL     1      11.621  -3.156  12.659  0.00  0.00    +0.159 HD
ATOM      7  H   UNL     1      10.166  -3.645  13.442  0.00  0.00    +0.159 HD
ATOM      8  H   UNL     1      12.534  -0.699  15.018  0.00  0.00    +0.159 HD
ATOM      9  H   UNL     1      12.959  -1.491  13.551  0.00  0.00    +0.159 HD
ENDROOT
BRANCH   1  10
ATOM     10  C   UNL     1      10.508  -1.116  16.540  0.00  0.00    +0.151 C 
BRANCH  10  11
ATOM     11  C   UNL     1       9.247  -0.321  16.737  0.00  0.00    -0.028 A 
ATOM     12  C   UNL     1       9.200   0.717  17.679  0.00  0.00    +0.005 A 
ATOM     13  C   UNL     1       8.098  -0.596  15.980  0.00  0.00    +0.005 A 
ATOM     14  C   UNL     1       8.038   1.476  17.841  0.00  0.00    +0.000 A 
ATOM     15  C   UNL     1       6.940   0.163  16.145  0.00  0.00    +0.000 A 
ATOM     16  C   UNL     1       6.911   1.200  17.074  0.00  0.00    +0.000 A 
ENDBRANCH  10  11
ENDBRANCH   1  10
TORSDOF 2
ENDMDL
MODEL 4
REMARK VINA RESULT:    -5.006     18.640     19.881
REMARK INTER + INTRA:          -5.744
REMARK INTER:                  -5.725
REMARK INTRA:                  -0.020
REMARK UNBOUND:                -0.153
REMARK  Name = 1550473
REMARK  2 active torsions:
REMARK  status: ('A' for Active; 'I' for Inactive)
REMARK    1  A    between atoms: N_1  and  C_4
REMARK    2  A    between atoms: C_4  and  C_5
REMARK                            x       y       z     vdW  Elec       q    Type
REMARK                         _______ _______ _______ _____ _____    ______ ____
ROOT
ATOM      1  N   UNL     1       3.461 -15.200   6.417  0.00  0.00    -0.354 N 
ATOM      2  N   UNL     1       3.494 -17.238   5.317  0.00  0.00    -0.372 N 
ATOM      3  N   UNL     1       5.158 -15.718   4.886  0.00  0.00    -0.372 N 
ATOM      4  C   UNL     1       4.040 -16.037   5.546  0.00  0.00    +0.166 C 
ATOM      5  H   UNL     1       2.598 -15.490   6.862  0.00  0.00    +0.163 HD
ATOM      6  H   UNL     1       3.910 -17.892   4.668  0.00  0.00    +0.159 HD
ATOM      7  H   UNL     1       2.657 -17.543   5.798  0.00  0.00    +0.159 HD
ATOM      8  H   UNL     1       5.616 -14.825   5.009  0.00  0.00    +0.159 HD
ATOM      9  H   UNL     1       5.583 -16.355   4.224  0.00  0.00    +0.159 HD
ENDROOT
BRANCH   1  10
ATOM     10  C   UNL     1       4.004 -13.891   6.777  0.00  0.00    +0.151 C 
BRANCH  10  11
ATOM     11  C   UNL     1       3.482 -12.861   5.814  0.00  0.00    -0.028 A 
ATOM     12  C   UNL     1       4.169 -11.653   5.622  0.00  0.00    +0.005 A 
ATOM     13  C   UNL     1       2.304 -13.088   5.087  0.00  0.00    +0.005 A 
ATOM     14  C   UNL     1       3.701 -10.709   4.706  0.00  0.00    +0.000 A 
ATOM     15  C   UNL     1       1.839 -12.142   4.173  0.00  0.00    +0.000 A 
ATOM     16  C   UNL     1       2.539 -10.954   3.981  0.00  0.00    +0.000 A 
ENDBRANCH  10  11
ENDBRANCH   1  10
TORSDOF 2
ENDMDL
MODEL 5
REMARK VINA RESULT:    -4.866     29.473     31.060
REMARK INTER + INTRA:          -5.589
REMARK INTER:                  -5.452
REMARK INTRA:                  -0.137
REMARK UNBOUND:                -0.153
REMARK  Name = 1550473
REMARK  2 active torsions:
REMARK  status: ('A' for Active; 'I' for Inactive)
REMARK    1  A    between atoms: N_1  and  C_4
REMARK    2  A    between atoms: C_4  and  C_5
REMARK                            x       y       z     vdW  Elec       q    Type
REMARK                         _______ _______ _______ _____ _____    ______ ____
ROOT
ATOM      1  N   UNL     1      -2.658   4.387  -9.794  0.00  0.00    -0.354 N 
ATOM      2  N   UNL     1      -3.037   6.015  -8.191  0.00  0.00    -0.372 N 
ATOM      3  N   UNL     1      -2.387   3.922  -7.513  0.00  0.00    -0.372 N 
ATOM      4  C   UNL     1      -2.691   4.762  -8.508  0.00  0.00    +0.166 C 
ATOM      5  H   UNL     1      -2.928   5.063 -10.499  0.00  0.00    +0.163 HD
ATOM      6  H   UNL     1      -3.068   6.328  -7.230  0.00  0.00    +0.159 HD
ATOM      7  H   UNL     1      -3.263   6.701  -8.901  0.00  0.00    +0.159 HD
ATOM      8  H   UNL     1      -2.124   2.961  -7.685  0.00  0.00    +0.159 HD
ATOM      9  H   UNL     1      -2.424   4.212  -6.544  0.00  0.00    +0.159 HD
ENDROOT
BRANCH   1  10
ATOM     10  C   UNL     1      -2.242   3.061 -10.249  0.00  0.00    +0.151 C 
BRANCH  10  11
ATOM     11  C   UNL     1      -1.438   3.205 -11.511  0.00  0.00    -0.028 A 
ATOM     12  C   UNL     1      -1.119   4.476 -12.011  0.00  0.00    +0.005 A 
ATOM     13  C   UNL     1      -0.988   2.074 -12.209  0.00  0.00    +0.005 A 
ATOM     14  C   UNL     1      -0.346   4.610 -13.167  0.00  0.00    +0.000 A 
ATOM     15  C   UNL     1      -0.217   2.212 -13.364  0.00  0.00    +0.000 A 
ATOM     16  C   UNL     1       0.105   3.480 -13.841  0.00  0.00    +0.000 A 
ENDBRANCH  10  11
ENDBRANCH   1  10
TORSDOF 2
ENDMDL
MODEL 6
REMARK VINA RESULT:    -4.821      2.539      3.880
REMARK INTER + INTRA:          -5.538
REMARK INTER:                  -5.401
REMARK INTRA:                  -0.137
REMARK UNBOUND:                -0.153
REMARK  Name = 1550473
REMARK  2 active torsions:
REMARK  status: ('A' for Active; 'I' for Inactive)
REMARK    1  A    between atoms: N_1  and  C_4
REMARK    2  A    between atoms: C_4  and  C_5
REMARK                            x       y       z     vdW  Elec       q    Type
REMARK                         _______ _______ _______ _____ _____    ______ ____
ROOT
ATOM      1  N   UNL     1       9.349   1.003  18.226  0.00  0.00    -0.354 N 
ATOM      2  N   UNL     1       8.098   2.950  18.308  0.00  0.00    -0.372 N 
ATOM      3  N   UNL     1       7.224   1.115  17.244  0.00  0.00    -0.372 N 
ATOM      4  C   UNL     1       8.230   1.675  17.924  0.00  0.00    +0.166 C 
ATOM      5  H   UNL     1      10.087   1.494  18.717  0.00  0.00    +0.163 HD
ATOM      6  H   UNL     1       7.263   3.482  18.098  0.00  0.00    +0.159 HD
ATOM      7  H   UNL     1       8.818   3.424  18.839  0.00  0.00    +0.159 HD
ATOM      8  H   UNL     1       7.264   0.157  16.921  0.00  0.00    +0.159 HD
ATOM      9  H   UNL     1       6.386   1.634  17.014  0.00  0.00    +0.159 HD
ENDROOT
BRANCH   1  10
ATOM     10  C   UNL     1       9.570  -0.405  17.901  0.00  0.00    +0.151 C 
BRANCH  10  11
ATOM     11  C   UNL     1      10.802  -0.524  17.047  0.00  0.00    -0.028 A 
ATOM     12  C   UNL     1      10.772  -1.257  15.851  0.00  0.00    +0.005 A 
ATOM     13  C   UNL     1      12.002   0.099  17.424  0.00  0.00    +0.005 A 
ATOM     14  C   UNL     1      11.907  -1.342  15.042  0.00  0.00    +0.000 A 
ATOM     15  C   UNL     1      13.134   0.010  16.614  0.00  0.00    +0.000 A 
ATOM     16  C   UNL     1      13.085  -0.709  15.422  0.00  0.00    +0.000 A 
ENDBRANCH  10  11
ENDBRANCH   1  10
TORSDOF 2
ENDMDL
MODEL 7
REMARK VINA RESULT:    -4.771     30.682     31.763
REMARK INTER + INTRA:          -5.482
REMARK INTER:                  -5.371
REMARK INTRA:                  -0.111
REMARK UNBOUND:                -0.153
REMARK  Name = 1550473
REMARK  2 active torsions:
REMARK  status: ('A' for Active; 'I' for Inactive)
REMARK    1  A    between atoms: N_1  and  C_4
REMARK    2  A    between atoms: C_4  and  C_5
REMARK                            x       y       z     vdW  Elec       q    Type
REMARK                         _______ _______ _______ _____ _____    ______ ____
ROOT
ATOM      1  N   UNL     1      -3.188   2.613 -10.354  0.00  0.00    -0.354 N 
ATOM      2  N   UNL     1      -5.197   1.673  -9.685  0.00  0.00    -0.372 N 
ATOM      3  N   UNL     1      -4.666   3.786  -8.965  0.00  0.00    -0.372 N 
ATOM      4  C   UNL     1      -4.337   2.699  -9.671  0.00  0.00    +0.166 C 
ATOM      5  H   UNL     1      -2.984   1.750 -10.845  0.00  0.00    +0.163 HD
ATOM      6  H   UNL     1      -6.073   1.711  -9.182  0.00  0.00    +0.159 HD
ATOM      7  H   UNL     1      -5.011   0.830 -10.215  0.00  0.00    +0.159 HD
ATOM      8  H   UNL     1      -4.059   4.592  -8.908  0.00  0.00    +0.159 HD
ATOM      9  H   UNL     1      -5.534   3.838  -8.445  0.00  0.00    +0.159 HD
ENDROOT
BRANCH   1  10
ATOM     10  C   UNL     1      -2.209   3.695 -10.447  0.00  0.00    +0.151 C 
BRANCH  10  11
ATOM     11  C   UNL     1      -1.407   3.524 -11.707  0.00  0.00    -0.028 A 
ATOM     12  C   UNL     1      -0.962   2.253 -12.101  0.00  0.00    +0.005 A 
ATOM     13  C   UNL     1      -1.093   4.628 -12.515  0.00  0.00    +0.005 A 
ATOM     14  C   UNL     1      -0.242   2.090 -13.287  0.00  0.00    +0.000 A 
ATOM     15  C   UNL     1      -0.373   4.461 -13.698  0.00  0.00    +0.000 A 
ATOM     16  C   UNL     1       0.050   3.191 -14.085  0.00  0.00    +0.000 A 
ENDBRANCH  10  11
ENDBRANCH   1  10
TORSDOF 2
ENDMDL
MODEL 8
REMARK VINA RESULT:    -4.689     21.160     22.135
REMARK INTER + INTRA:          -5.390
REMARK INTER:                  -5.290
REMARK INTRA:                  -0.100
REMARK UNBOUND:                -0.153
REMARK  Name = 1550473
REMARK  2 active torsions:
REMARK  status: ('A' for Active; 'I' for Inactive)
REMARK    1  A    between atoms: N_1  and  C_4
REMARK    2  A    between atoms: C_4  and  C_5
REMARK                            x       y       z     vdW  Elec       q    Type
REMARK                         _______ _______ _______ _____ _____    ______ ____
ROOT
ATOM      1  N   UNL     1       1.264  14.940   3.987  0.00  0.00    -0.354 N 
ATOM      2  N   UNL     1       3.358  15.715   3.370  0.00  0.00    -0.372 N 
ATOM      3  N   UNL     1       2.328  14.139   2.059  0.00  0.00    -0.372 N 
ATOM      4  C   UNL     1       2.302  14.924   3.141  0.00  0.00    +0.166 C 
ATOM      5  H   UNL     1       1.319  15.535   4.806  0.00  0.00    +0.163 HD
ATOM      6  H   UNL     1       4.154  15.727   2.748  0.00  0.00    +0.159 HD
ATOM      7  H   UNL     1       3.390  16.343   4.164  0.00  0.00    +0.159 HD
ATOM      8  H   UNL     1       1.565  13.514   1.833  0.00  0.00    +0.159 HD
ATOM      9  H   UNL     1       3.121  14.128   1.430  0.00  0.00    +0.159 HD
ENDROOT
BRANCH   1  10
ATOM     10  C   UNL     1       0.044  14.157   3.799  0.00  0.00    +0.151 C 
BRANCH  10  11
ATOM     11  C   UNL     1      -0.984  14.602   4.803  0.00  0.00    -0.028 A 
ATOM     12  C   UNL     1      -1.426  13.726   5.805  0.00  0.00    +0.005 A 
ATOM     13  C   UNL     1      -1.517  15.899   4.760  0.00  0.00    +0.005 A 
ATOM     14  C   UNL     1      -2.359  14.148   6.756  0.00  0.00    +0.000 A 
ATOM     15  C   UNL     1      -2.449  16.317   5.710  0.00  0.00    +0.000 A 
ATOM     16  C   UNL     1      -2.867  15.441   6.709  0.00  0.00    +0.000 A 
ENDBRANCH  10  11
ENDBRANCH   1  10
TORSDOF 2
ENDMDL
MODEL 9
REMARK VINA RESULT:    -4.652      3.788      4.969
REMARK INTER + INTRA:          -5.349
REMARK INTER:                  -5.206
REMARK INTRA:                  -0.144
REMARK UNBOUND:                -0.153
REMARK  Name = 1550473
REMARK  2 active torsions:
REMARK  status: ('A' for Active; 'I' for Inactive)
REMARK    1  A    between atoms: N_1  and  C_4
REMARK    2  A    between atoms: C_4  and  C_5
REMARK                            x       y       z     vdW  Elec       q    Type
REMARK                         _______ _______ _______ _____ _____    ______ ____
ROOT
ATOM      1  N   UNL     1      10.994  -1.713  14.911  0.00  0.00    -0.354 N 
ATOM      2  N   UNL     1      13.284  -1.605  14.583  0.00  0.00    -0.372 N 
ATOM      3  N   UNL     1      12.454  -3.084  16.128  0.00  0.00    -0.372 N 
ATOM      4  C   UNL     1      12.229  -2.137  15.212  0.00  0.00    +0.166 C 
ATOM      5  H   UNL     1      10.893  -0.971  14.229  0.00  0.00    +0.163 HD
ATOM      6  H   UNL     1      14.228  -1.907  14.786  0.00  0.00    +0.159 HD
ATOM      7  H   UNL     1      13.177  -0.895  13.868  0.00  0.00    +0.159 HD
ATOM      8  H   UNL     1      11.701  -3.521  16.643  0.00  0.00    +0.159 HD
ATOM      9  H   UNL     1      13.392  -3.391  16.354  0.00  0.00    +0.159 HD
ENDROOT
BRANCH   1  10
ATOM     10  C   UNL     1       9.775  -2.265  15.500  0.00  0.00    +0.151 C 
BRANCH  10  11
ATOM     11  C   UNL     1       8.932  -1.138  16.029  0.00  0.00    -0.028 A 
ATOM     12  C   UNL     1       7.619  -0.955  15.570  0.00  0.00    +0.005 A 
ATOM     13  C   UNL     1       9.437  -0.253  16.994  0.00  0.00    +0.005 A 
ATOM     14  C   UNL     1       6.825   0.074  16.084  0.00  0.00    +0.000 A 
ATOM     15  C   UNL     1       8.642   0.773  17.503  0.00  0.00    +0.000 A 
ATOM     16  C   UNL     1       7.335   0.934  17.050  0.00  0.00    +0.000 A 
ENDBRANCH  10  11
ENDBRANCH   1  10
TORSDOF 2
ENDMDL
