MODEL 1
REMARK VINA RESULT:    -4.518      0.000      0.000
REMARK INTER + INTRA:          -5.170
REMARK INTER:                  -5.047
REMARK INTRA:                  -0.123
REMARK UNBOUND:                -0.123
REMARK  Name = 1550473
REMARK  2 active torsions:
REMARK  status: ('A' for Active; 'I' for Inactive)
REMARK    1  A    between atoms: N_1  and  C_4
REMARK    2  A    between atoms: C_4  and  C_5
REMARK                            x       y       z     vdW  Elec       q    Type
REMARK                         _______ _______ _______ _____ _____    ______ ____
ROOT
ATOM      1  N   UNL     1      -9.593 -11.833 -16.703  0.00  0.00    -0.354 N 
ATOM      2  N   UNL     1     -11.674 -11.834 -15.687  0.00  0.00    -0.372 N 
ATOM      3  N   UNL     1     -11.447 -12.814 -17.749  0.00  0.00    -0.372 N 
ATOM      4  C   UNL     1     -10.892 -12.161 -16.722  0.00  0.00    +0.166 C 
ATOM      5  H   UNL     1      -9.240 -11.312 -15.909  0.00  0.00    +0.163 HD
ATOM      6  H   UNL     1     -12.657 -12.071 -15.671  0.00  0.00    +0.159 HD
ATOM      7  H   UNL     1     -11.308 -11.353 -14.874  0.00  0.00    +0.159 HD
ATOM      8  H   UNL     1     -10.913 -13.085 -18.563  0.00  0.00    +0.159 HD
ATOM      9  H   UNL     1     -12.432 -13.050 -17.757  0.00  0.00    +0.159 HD
ENDROOT
BRANCH   1  10
ATOM     10  C   UNL     1      -8.644 -12.191 -17.756  0.00  0.00    +0.151 C 
BRANCH  10  11
ATOM     11  C   UNL     1      -7.287 -11.653 -17.397  0.00  0.00    -0.028 A 
ATOM     12  C   UNL     1      -7.069 -11.043 -16.153  0.00  0.00    +0.005 A 
ATOM     13  C   UNL     1      -6.212 -11.757 -18.294  0.00  0.00    +0.005 A 
ATOM     14  C   UNL     1      -5.800 -10.570 -15.807  0.00  0.00    +0.000 A 
ATOM     15  C   UNL     1      -4.948 -11.283 -17.945  0.00  0.00    +0.000 A 
ATOM     16  C   UNL     1      -4.742 -10.692 -16.700  0.00  0.00    +0.000 A 
ENDBRANCH  10  11
ENDBRANCH   1  10
TORSDOF 2
ENDMDL
MODEL 2
REMARK VINA RESULT:    -4.345     17.032     18.284
REMARK INTER + INTRA:          -4.976
REMARK INTER:                  -4.846
REMARK INTRA:                  -0.130
REMARK UNBOUND:                -0.123
REMARK  Name = 1550473
REMARK  2 active torsions:
REMARK  status: ('A' for Active; 'I' for Inactive)
REMARK    1  A    between atoms: N_1  and  C_4
REMARK    2  A    between atoms: C_4  and  C_5
REMARK                            x       y       z     vdW  Elec       q    Type
REMARK                         _______ _______ _______ _____ _____    ______ ____
ROOT
ATOM      1  N   UNL     1       1.708 -16.262  -1.757  0.00  0.00    -0.354 N 
ATOM      2  N   UNL     1       3.883 -15.488  -1.574  0.00  0.00    -0.372 N 
ATOM      3  N   UNL     1       3.137 -17.062  -0.080  0.00  0.00    -0.372 N 
ATOM      4  C   UNL     1       2.895 -16.278  -1.136  0.00  0.00    +0.166 C 
ATOM      5  H   UNL     1       1.579 -15.623  -2.533  0.00  0.00    +0.163 HD
ATOM      6  H   UNL     1       4.791 -15.481  -1.127  0.00  0.00    +0.159 HD
ATOM      7  H   UNL     1       3.766 -14.884  -2.378  0.00  0.00    +0.159 HD
ATOM      8  H   UNL     1       2.431 -17.677   0.303  0.00  0.00    +0.159 HD
ATOM      9  H   UNL     1       4.034 -17.060   0.388  0.00  0.00    +0.159 HD
ENDROOT
BRANCH   1  10
ATOM     10  C   UNL     1       0.584 -17.122  -1.393  0.00  0.00    +0.151 C 
BRANCH  10  11
ATOM     11  C   UNL     1      -0.250 -17.385  -2.616  0.00  0.00    -0.028 A 
ATOM     12  C   UNL     1      -1.518 -17.973  -2.501  0.00  0.00    +0.005 A 
ATOM     13  C   UNL     1       0.219 -17.042  -3.894  0.00  0.00    +0.005 A 
ATOM     14  C   UNL     1      -2.306 -18.190  -3.634  0.00  0.00    +0.000 A 
ATOM     15  C   UNL     1      -0.570 -17.260  -5.023  0.00  0.00    +0.000 A 
ATOM     16  C   UNL     1      -1.833 -17.832  -4.893  0.00  0.00    +0.000 A 
ENDBRANCH  10  11
ENDBRANCH   1  10
TORSDOF 2
ENDMDL
MODEL 3
REMARK VINA RESULT:    -4.218     32.944     34.101
REMARK INTER + INTRA:          -4.834
REMARK INTER:                  -4.701
REMARK INTRA:                  -0.133
REMARK UNBOUND:                -0.123
REMARK  Name = 1550473
REMARK  2 active torsions:
REMARK  status: ('A' for Active; 'I' for Inactive)
REMARK    1  A    between atoms: N_1  and  C_4
REMARK    2  A    between atoms: C_4  and  C_5
REMARK                            x       y       z     vdW  Elec       q    Type
REMARK                         _______ _______ _______ _____ _____    ______ ____
ROOT
ATOM      1  N   UNL     1       4.408   7.028   8.520  0.00  0.00    -0.354 N 
ATOM      2  N   UNL     1       6.492   6.542   9.406  0.00  0.00    -0.372 N 
ATOM      3  N   UNL     1       5.265   4.848   8.462  0.00  0.00    -0.372 N 
ATOM      4  C   UNL     1       5.374   6.140   8.790  0.00  0.00    +0.166 C 
ATOM      5  H   UNL     1       4.538   7.987   8.822  0.00  0.00    +0.163 HD
ATOM      6  H   UNL     1       7.239   5.895   9.619  0.00  0.00    +0.159 HD
ATOM      7  H   UNL     1       6.639   7.510   9.665  0.00  0.00    +0.159 HD
ATOM      8  H   UNL     1       4.444   4.479   8.001  0.00  0.00    +0.159 HD
ATOM      9  H   UNL     1       5.998   4.183   8.678  0.00  0.00    +0.159 HD
ENDROOT
BRANCH   1  10
ATOM     10  C   UNL     1       3.175   6.703   7.805  0.00  0.00    +0.151 C 
BRANCH  10  11
ATOM     11  C   UNL     1       1.999   7.180   8.612  0.00  0.00    -0.028 A 
ATOM     12  C   UNL     1       0.831   6.408   8.694  0.00  0.00    +0.005 A 
ATOM     13  C   UNL     1       2.048   8.402   9.301  0.00  0.00    +0.005 A 
ATOM     14  C   UNL     1      -0.251   6.836   9.467  0.00  0.00    +0.000 A 
ATOM     15  C   UNL     1       0.965   8.826  10.072  0.00  0.00    +0.000 A 
ATOM     16  C   UNL     1      -0.182   8.042  10.156  0.00  0.00    +0.000 A 
ENDBRANCH  10  11
ENDBRANCH   1  10
TORSDOF 2
ENDMDL
MODEL 4
REMARK VINA RESULT:    -4.164     19.718     21.142
REMARK INTER + INTRA:          -4.774
REMARK INTER:                  -4.662
REMARK INTRA:                  -0.113
REMARK UNBOUND:                -0.123
REMARK  Name = 1550473
REMARK  2 active torsions:
REMARK  status: ('A' for Active; 'I' for Inactive)
REMARK    1  A    between atoms: N_1  and  C_4
REMARK    2  A    between atoms: C_4  and  C_5
REMARK                            x       y       z     vdW  Elec       q    Type
REMARK                         _______ _______ _______ _____ _____    ______ ____
ROOT
ATOM      1  N   UNL     1      -6.286  -3.241   0.513  0.00  0.00    -0.354 N 
ATOM      2  N   UNL     1      -6.008  -1.846  -1.315  0.00  0.00    -0.372 N 
ATOM      3  N   UNL     1      -6.830  -0.965   0.638  0.00  0.00    -0.372 N 
ATOM      4  C   UNL     1      -6.378  -2.025  -0.041  0.00  0.00    +0.166 C 
ATOM      5  H   UNL     1      -5.964  -4.010  -0.064  0.00  0.00    +0.163 HD
ATOM      6  H   UNL     1      -6.062  -0.939  -1.759  0.00  0.00    +0.159 HD
ATOM      7  H   UNL     1      -5.643  -2.607  -1.876  0.00  0.00    +0.159 HD
ATOM      8  H   UNL     1      -7.130  -1.035   1.601  0.00  0.00    +0.159 HD
ATOM      9  H   UNL     1      -6.903  -0.052   0.207  0.00  0.00    +0.159 HD
ENDROOT
BRANCH   1  10
ATOM     10  C   UNL     1      -6.612  -3.531   1.908  0.00  0.00    +0.151 C 
BRANCH  10  11
ATOM     11  C   UNL     1      -5.346  -3.861   2.650  0.00  0.00    -0.028 A 
ATOM     12  C   UNL     1      -4.262  -2.971   2.639  0.00  0.00    +0.005 A 
ATOM     13  C   UNL     1      -5.226  -5.059   3.371  0.00  0.00    +0.005 A 
ATOM     14  C   UNL     1      -3.097  -3.263   3.353  0.00  0.00    +0.000 A 
ATOM     15  C   UNL     1      -4.061  -5.347   4.081  0.00  0.00    +0.000 A 
ATOM     16  C   UNL     1      -2.998  -4.448   4.074  0.00  0.00    +0.000 A 
ENDBRANCH  10  11
ENDBRANCH   1  10
TORSDOF 2
ENDMDL
MODEL 5
REMARK VINA RESULT:    -4.128     31.097     32.145
REMARK INTER + INTRA:          -4.734
REMARK INTER:                  -4.603
REMARK INTRA:                  -0.131
REMARK UNBOUND:                -0.123
REMARK  Name = 1550473
REMARK  2 active torsions:
REMARK  status: ('A' for Active; 'I' for Inactive)
REMARK    1  A    between atoms: N_1  and  C_4
REMARK    2  A    between atoms: C_4  and  C_5
REMARK                            x       y       z     vdW  Elec       q    Type
REMARK                         _______ _______ _______ _____ _____    ______ ____
ROOT
ATOM      1  N   UNL     1       1.038  -3.421  12.543  0.00  0.00    -0.354 N 
ATOM      2  N   UNL     1       2.962  -4.682  12.811  0.00  0.00    -0.372 N 
ATOM      3  N   UNL     1       2.201  -3.430  14.577  0.00  0.00    -0.372 N 
ATOM      4  C   UNL     1       2.055  -3.835  13.311  0.00  0.00    +0.166 C 
ATOM      5  H   UNL     1       1.000  -3.741  11.582  0.00  0.00    +0.163 HD
ATOM      6  H   UNL     1       3.738  -5.015  13.368  0.00  0.00    +0.159 HD
ATOM      7  H   UNL     1       2.896  -5.037  11.865  0.00  0.00    +0.159 HD
ATOM      8  H   UNL     1       1.554  -2.786  15.012  0.00  0.00    +0.159 HD
ATOM      9  H   UNL     1       2.978  -3.742  15.147  0.00  0.00    +0.159 HD
ENDROOT
BRANCH   1  10
ATOM     10  C   UNL     1      -0.033  -2.541  13.008  0.00  0.00    +0.151 C 
BRANCH  10  11
ATOM     11  C   UNL     1      -1.359  -3.199  12.743  0.00  0.00    -0.028 A 
ATOM     12  C   UNL     1      -1.439  -4.586  12.548  0.00  0.00    +0.005 A 
ATOM     13  C   UNL     1      -2.539  -2.442  12.691  0.00  0.00    +0.005 A 
ATOM     14  C   UNL     1      -2.675  -5.202  12.333  0.00  0.00    +0.000 A 
ATOM     15  C   UNL     1      -3.771  -3.061  12.475  0.00  0.00    +0.000 A 
ATOM     16  C   UNL     1      -3.838  -4.440  12.298  0.00  0.00    +0.000 A 
ENDBRANCH  10  11
ENDBRANCH   1  10
TORSDOF 2
ENDMDL
MODEL 6
REMARK VINA RESULT:    -4.015     31.983     33.521
REMARK INTER + INTRA:          -4.607
REMARK INTER:                  -4.431
REMARK INTRA:                  -0.176
REMARK UNBOUND:                -0.123
REMARK  Name = 1550473
REMARK  2 active torsions:
REMARK  status: ('A' for Active; 'I' for Inactive)
REMARK    1  A    between atoms: N_1  and  C_4
REMARK    2  A    between atoms: C_4  and  C_5
REMARK                            x       y       z     vdW  Elec       q    Type
REMARK                         _______ _______ _______ _____ _____    ______ ____
ROOT
ATOM      1  N   UNL     1       0.747   6.689   6.982  0.00  0.00    -0.354 N 
ATOM      2  N   UNL     1       0.675   7.308   4.751  0.00  0.00    -0.372 N 
ATOM      3  N   UNL     1       2.657   7.499   5.892  0.00  0.00    -0.372 N 
ATOM      4  C   UNL     1       1.363   7.162   5.890  0.00  0.00    +0.166 C 
ATOM      5  H   UNL     1      -0.243   6.481   6.924  0.00  0.00    +0.163 HD
ATOM      6  H   UNL     1       1.114   7.659   3.911  0.00  0.00    +0.159 HD
ATOM      7  H   UNL     1      -0.303   7.056   4.683  0.00  0.00    +0.159 HD
ATOM      8  H   UNL     1       3.231   7.418   6.721  0.00  0.00    +0.159 HD
ATOM      9  H   UNL     1       3.111   7.863   5.064  0.00  0.00    +0.159 HD
ENDROOT
BRANCH   1  10
ATOM     10  C   UNL     1       1.418   6.442   8.257  0.00  0.00    +0.151 C 
BRANCH  10  11
ATOM     11  C   UNL     1       1.174   7.608   9.175  0.00  0.00    -0.028 A 
ATOM     12  C   UNL     1       2.169   8.574   9.379  0.00  0.00    +0.005 A 
ATOM     13  C   UNL     1      -0.054   7.755   9.839  0.00  0.00    +0.005 A 
ATOM     14  C   UNL     1       1.932   9.673  10.209  0.00  0.00    +0.000 A 
ATOM     15  C   UNL     1      -0.287   8.853  10.666  0.00  0.00    +0.000 A 
ATOM     16  C   UNL     1       0.705   9.813  10.849  0.00  0.00    +0.000 A 
ENDBRANCH  10  11
ENDBRANCH   1  10
TORSDOF 2
ENDMDL
MODEL 7
REMARK VINA RESULT:    -3.947     28.795     30.391
REMARK INTER + INTRA:          -4.531
REMARK INTER:                  -4.413
REMARK INTRA:                  -0.118
REMARK UNBOUND:                -0.123
REMARK  Name = 1550473
REMARK  2 active torsions:
REMARK  status: ('A' for Active; 'I' for Inactive)
REMARK    1  A    between atoms: N_1  and  C_4
REMARK    2  A    between atoms: C_4  and  C_5
REMARK                            x       y       z     vdW  Elec       q    Type
REMARK                         _______ _______ _______ _____ _____    ______ ____
ROOT
ATOM      1  N   UNL     1       7.781  -5.653   6.735  0.00  0.00    -0.354 N 
ATOM      2  N   UNL     1       7.137  -7.870   6.548  0.00  0.00    -0.372 N 
ATOM      3  N   UNL     1       5.880  -6.258   5.505  0.00  0.00    -0.372 N 
ATOM      4  C   UNL     1       6.934  -6.578   6.263  0.00  0.00    +0.166 C 
ATOM      5  H   UNL     1       8.544  -5.957   7.328  0.00  0.00    +0.163 HD
ATOM      6  H   UNL     1       6.517  -8.590   6.203  0.00  0.00    +0.159 HD
ATOM      7  H   UNL     1       7.927  -8.175   7.103  0.00  0.00    +0.159 HD
ATOM      8  H   UNL     1       5.668  -5.300   5.259  0.00  0.00    +0.159 HD
ATOM      9  H   UNL     1       5.241  -6.964   5.160  0.00  0.00    +0.159 HD
ENDROOT
BRANCH   1  10
ATOM     10  C   UNL     1       7.680  -4.225   6.438  0.00  0.00    +0.151 C 
BRANCH  10  11
ATOM     11  C   UNL     1       8.229  -3.442   7.599  0.00  0.00    -0.028 A 
ATOM     12  C   UNL     1       9.243  -2.494   7.403  0.00  0.00    +0.005 A 
ATOM     13  C   UNL     1       7.734  -3.640   8.897  0.00  0.00    +0.005 A 
ATOM     14  C   UNL     1       9.732  -1.745   8.476  0.00  0.00    +0.000 A 
ATOM     15  C   UNL     1       8.225  -2.891   9.966  0.00  0.00    +0.000 A 
ATOM     16  C   UNL     1       9.222  -1.942   9.755  0.00  0.00    +0.000 A 
ENDBRANCH  10  11
ENDBRANCH   1  10
TORSDOF 2
ENDMDL
MODEL 8
REMARK VINA RESULT:    -3.928     30.534     31.544
REMARK INTER + INTRA:          -4.511
REMARK INTER:                  -4.393
REMARK INTRA:                  -0.118
REMARK UNBOUND:                -0.123
REMARK  Name = 1550473
REMARK  2 active torsions:
REMARK  status: ('A' for Active; 'I' for Inactive)
REMARK    1  A    between atoms: N_1  and  C_4
REMARK    2  A    between atoms: C_4  and  C_5
REMARK                            x       y       z     vdW  Elec       q    Type
REMARK                         _______ _______ _______ _____ _____    ______ ____
ROOT
ATOM      1  N   UNL     1      -2.573  -3.933  12.649  0.00  0.00    -0.354 N 
ATOM      2  N   UNL     1      -4.556  -4.927  11.983  0.00  0.00    -0.372 N 
ATOM      3  N   UNL     1      -4.547  -2.684  12.470  0.00  0.00    -0.372 N 
ATOM      4  C   UNL     1      -3.880  -3.839  12.372  0.00  0.00    +0.166 C 
ATOM      5  H   UNL     1      -2.131  -4.844  12.585  0.00  0.00    +0.163 HD
ATOM      6  H   UNL     1      -5.542  -4.885  11.763  0.00  0.00    +0.159 HD
ATOM      7  H   UNL     1      -4.102  -5.826  11.875  0.00  0.00    +0.159 HD
ATOM      8  H   UNL     1      -4.097  -1.828  12.764  0.00  0.00    +0.159 HD
ATOM      9  H   UNL     1      -5.537  -2.626  12.266  0.00  0.00    +0.159 HD
ENDROOT
BRANCH   1  10
ATOM     10  C   UNL     1      -1.733  -2.798  13.030  0.00  0.00    +0.151 C 
BRANCH  10  11
ATOM     11  C   UNL     1      -0.288  -3.192  12.903  0.00  0.00    -0.028 A 
ATOM     12  C   UNL     1       0.660  -2.731  13.828  0.00  0.00    +0.005 A 
ATOM     13  C   UNL     1       0.140  -4.031  11.863  0.00  0.00    +0.005 A 
ATOM     14  C   UNL     1       1.998  -3.121  13.728  0.00  0.00    +0.000 A 
ATOM     15  C   UNL     1       1.477  -4.418  11.766  0.00  0.00    +0.000 A 
ATOM     16  C   UNL     1       2.405  -3.964  12.700  0.00  0.00    +0.000 A 
ENDBRANCH  10  11
ENDBRANCH   1  10
TORSDOF 2
ENDMDL
MODEL 9
REMARK VINA RESULT:    -3.741     22.891     24.174
REMARK INTER + INTRA:          -4.301
REMARK INTER:                  -4.178
REMARK INTRA:                  -0.123
REMARK UNBOUND:                -0.123
REMARK  Name = 1550473
REMARK  2 active torsions:
REMARK  status: ('A' for Active; 'I' for Inactive)
REMARK    1  A    between atoms: N_1  and  C_4
REMARK    2  A    between atoms: C_4  and  C_5
REMARK                            x       y       z     vdW  Elec       q    Type
REMARK                         _______ _______ _______ _____ _____    ______ ____
ROOT
ATOM      1  N   UNL     1       6.702   4.119  -5.207  0.00  0.00    -0.354 N 
ATOM      2  N   UNL     1       8.638   4.012  -3.941  0.00  0.00    -0.372 N 
ATOM      3  N   UNL     1       7.578   2.059  -4.512  0.00  0.00    -0.372 N 
ATOM      4  C   UNL     1       7.626   3.394  -4.562  0.00  0.00    +0.166 C 
ATOM      5  H   UNL     1       6.778   5.129  -5.181  0.00  0.00    +0.163 HD
ATOM      6  H   UNL     1       9.353   3.491  -3.449  0.00  0.00    +0.159 HD
ATOM      7  H   UNL     1       8.738   5.019  -3.956  0.00  0.00    +0.159 HD
ATOM      8  H   UNL     1       6.836   1.533  -4.956  0.00  0.00    +0.159 HD
ATOM      9  H   UNL     1       8.277   1.521  -4.015  0.00  0.00    +0.159 HD
ENDROOT
BRANCH   1  10
ATOM     10  C   UNL     1       5.590   3.541  -5.959  0.00  0.00    +0.151 C 
BRANCH  10  11
ATOM     11  C   UNL     1       4.294   4.008  -5.356  0.00  0.00    -0.028 A 
ATOM     12  C   UNL     1       3.089   3.867  -6.060  0.00  0.00    +0.005 A 
ATOM     13  C   UNL     1       4.263   4.585  -4.077  0.00  0.00    +0.005 A 
ATOM     14  C   UNL     1       1.881   4.273  -5.488  0.00  0.00    +0.000 A 
ATOM     15  C   UNL     1       3.055   4.990  -3.510  0.00  0.00    +0.000 A 
ATOM     16  C   UNL     1       1.864   4.831  -4.214  0.00  0.00    +0.000 A 
ENDBRANCH  10  11
ENDBRANCH   1  10
TORSDOF 2
ENDMDL
