MODEL 1
REMARK VINA RESULT:    -4.892      0.000      0.000
REMARK INTER + INTRA:          -5.640
REMARK INTER:                  -5.464
REMARK INTRA:                  -0.176
REMARK UNBOUND:                -0.176
REMARK  Name = 1550473
REMARK  2 active torsions:
REMARK  status: ('A' for Active; 'I' for Inactive)
REMARK    1  A    between atoms: N_1  and  C_4
REMARK    2  A    between atoms: C_4  and  C_5
REMARK                            x       y       z     vdW  Elec       q    Type
REMARK                         _______ _______ _______ _____ _____    ______ ____
ROOT
ATOM      1  N   UNL     1      -0.048  -3.868   9.586  0.00  0.00    -0.354 N 
ATOM      2  N   UNL     1       0.565  -1.668   9.205  0.00  0.00    -0.372 N 
ATOM      3  N   UNL     1      -1.662  -2.219   9.175  0.00  0.00    -0.372 N 
ATOM      4  C   UNL     1      -0.388  -2.599   9.324  0.00  0.00    +0.166 C 
ATOM      5  H   UNL     1       0.937  -4.098   9.658  0.00  0.00    +0.163 HD
ATOM      6  H   UNL     1       0.339  -0.701   9.011  0.00  0.00    +0.159 HD
ATOM      7  H   UNL     1       1.546  -1.891   9.323  0.00  0.00    +0.159 HD
ATOM      8  H   UNL     1      -2.428  -2.875   9.247  0.00  0.00    +0.159 HD
ATOM      9  H   UNL     1      -1.908  -1.259   8.968  0.00  0.00    +0.159 HD
ENDROOT
BRANCH   1  10
ATOM     10  C   UNL     1      -1.012  -4.948   9.788  0.00  0.00    +0.151 C 
BRANCH  10  11
ATOM     11  C   UNL     1      -1.175  -5.709   8.501  0.00  0.00    -0.028 A 
ATOM     12  C   UNL     1      -0.072  -6.330   7.897  0.00  0.00    +0.005 A 
ATOM     13  C   UNL     1      -2.430  -5.817   7.883  0.00  0.00    +0.005 A 
ATOM     14  C   UNL     1      -0.227  -7.061   6.717  0.00  0.00    +0.000 A 
ATOM     15  C   UNL     1      -2.581  -6.548   6.705  0.00  0.00    +0.000 A 
ATOM     16  C   UNL     1      -1.480  -7.172   6.123  0.00  0.00    +0.000 A 
ENDBRANCH  10  11
ENDBRANCH   1  10
TORSDOF 2
ENDMDL
MODEL 2
REMARK VINA RESULT:    -4.869     22.853     23.820
REMARK INTER + INTRA:          -5.614
REMARK INTER:                  -5.502
REMARK INTRA:                  -0.112
REMARK UNBOUND:                -0.176
REMARK  Name = 1550473
REMARK  2 active torsions:
REMARK  status: ('A' for Active; 'I' for Inactive)
REMARK    1  A    between atoms: N_1  and  C_4
REMARK    2  A    between atoms: C_4  and  C_5
REMARK                            x       y       z     vdW  Elec       q    Type
REMARK                         _______ _______ _______ _____ _____    ______ ____
ROOT
ATOM      1  N   UNL     1       7.954  -2.171 -12.773  0.00  0.00    -0.354 N 
ATOM      2  N   UNL     1       9.606  -3.789 -12.893  0.00  0.00    -0.372 N 
ATOM      3  N   UNL     1       7.479  -4.324 -13.566  0.00  0.00    -0.372 N 
ATOM      4  C   UNL     1       8.333  -3.419 -13.078  0.00  0.00    +0.166 C 
ATOM      5  H   UNL     1       8.643  -1.541 -12.378  0.00  0.00    +0.163 HD
ATOM      6  H   UNL     1       9.923  -4.723 -13.117  0.00  0.00    +0.159 HD
ATOM      7  H   UNL     1      10.303  -3.144 -12.541  0.00  0.00    +0.159 HD
ATOM      8  H   UNL     1       6.503  -4.110 -13.723  0.00  0.00    +0.159 HD
ATOM      9  H   UNL     1       7.774  -5.268 -13.785  0.00  0.00    +0.159 HD
ENDROOT
BRANCH   1  10
ATOM     10  C   UNL     1       6.604  -1.652 -12.986  0.00  0.00    +0.151 C 
BRANCH  10  11
ATOM     11  C   UNL     1       6.675  -0.162 -13.177  0.00  0.00    -0.028 A 
ATOM     12  C   UNL     1       7.389   0.384 -14.254  0.00  0.00    +0.005 A 
ATOM     13  C   UNL     1       6.026   0.709 -12.288  0.00  0.00    +0.005 A 
ATOM     14  C   UNL     1       7.430   1.767 -14.449  0.00  0.00    +0.000 A 
ATOM     15  C   UNL     1       6.071   2.089 -12.486  0.00  0.00    +0.000 A 
ATOM     16  C   UNL     1       6.771   2.617 -13.568  0.00  0.00    +0.000 A 
ENDBRANCH  10  11
ENDBRANCH   1  10
TORSDOF 2
ENDMDL
MODEL 3
REMARK VINA RESULT:    -4.682      2.973      5.083
REMARK INTER + INTRA:          -5.406
REMARK INTER:                  -5.257
REMARK INTRA:                  -0.149
REMARK UNBOUND:                -0.176
REMARK  Name = 1550473
REMARK  2 active torsions:
REMARK  status: ('A' for Active; 'I' for Inactive)
REMARK    1  A    between atoms: N_1  and  C_4
REMARK    2  A    between atoms: C_4  and  C_5
REMARK                            x       y       z     vdW  Elec       q    Type
REMARK                         _______ _______ _______ _____ _____    ______ ____
ROOT
ATOM      1  N   UNL     1      -2.933  -6.268   8.355  0.00  0.00    -0.354 N 
ATOM      2  N   UNL     1      -4.309  -6.961   6.625  0.00  0.00    -0.372 N 
ATOM      3  N   UNL     1      -2.169  -6.291   6.140  0.00  0.00    -0.372 N 
ATOM      4  C   UNL     1      -3.126  -6.501   7.049  0.00  0.00    +0.166 C 
ATOM      5  H   UNL     1      -3.709  -6.419   8.990  0.00  0.00    +0.163 HD
ATOM      6  H   UNL     1      -4.482  -7.150   5.647  0.00  0.00    +0.159 HD
ATOM      7  H   UNL     1      -5.067  -7.155   7.268  0.00  0.00    +0.159 HD
ATOM      8  H   UNL     1      -1.255  -5.939   6.394  0.00  0.00    +0.159 HD
ATOM      9  H   UNL     1      -2.327  -6.463   5.154  0.00  0.00    +0.159 HD
ENDROOT
BRANCH   1  10
ATOM     10  C   UNL     1      -1.666  -5.818   8.927  0.00  0.00    +0.151 C 
BRANCH  10  11
ATOM     11  C   UNL     1      -1.845  -4.436   9.493  0.00  0.00    -0.028 A 
ATOM     12  C   UNL     1      -2.939  -4.143  10.321  0.00  0.00    +0.005 A 
ATOM     13  C   UNL     1      -0.922  -3.418   9.209  0.00  0.00    +0.005 A 
ATOM     14  C   UNL     1      -3.090  -2.868  10.871  0.00  0.00    +0.000 A 
ATOM     15  C   UNL     1      -1.077  -2.146   9.760  0.00  0.00    +0.000 A 
ATOM     16  C   UNL     1      -2.160  -1.872  10.593  0.00  0.00    +0.000 A 
ENDBRANCH  10  11
ENDBRANCH   1  10
TORSDOF 2
ENDMDL
MODEL 4
REMARK VINA RESULT:    -4.624     24.529     25.511
REMARK INTER + INTRA:          -5.340
REMARK INTER:                  -5.218
REMARK INTRA:                  -0.122
REMARK UNBOUND:                -0.176
REMARK  Name = 1550473
REMARK  2 active torsions:
REMARK  status: ('A' for Active; 'I' for Inactive)
REMARK    1  A    between atoms: N_1  and  C_4
REMARK    2  A    between atoms: C_4  and  C_5
REMARK                            x       y       z     vdW  Elec       q    Type
REMARK                         _______ _______ _______ _____ _____    ______ ____
ROOT
ATOM      1  N   UNL     1       8.053  -0.814 -16.190  0.00  0.00    -0.354 N 
ATOM      2  N   UNL     1       8.280  -1.386 -18.423  0.00  0.00    -0.372 N 
ATOM      3  N   UNL     1       8.382  -3.042 -16.838  0.00  0.00    -0.372 N 
ATOM      4  C   UNL     1       8.237  -1.746 -17.135  0.00  0.00    +0.166 C 
ATOM      5  H   UNL     1       7.980   0.155 -16.477  0.00  0.00    +0.163 HD
ATOM      6  H   UNL     1       8.415  -2.067 -19.158  0.00  0.00    +0.159 HD
ATOM      7  H   UNL     1       8.162  -0.422 -18.711  0.00  0.00    +0.159 HD
ATOM      8  H   UNL     1       8.365  -3.379 -15.885  0.00  0.00    +0.159 HD
ATOM      9  H   UNL     1       8.529  -3.738 -17.559  0.00  0.00    +0.159 HD
ENDROOT
BRANCH   1  10
ATOM     10  C   UNL     1       7.937  -1.109 -14.763  0.00  0.00    +0.151 C 
BRANCH  10  11
ATOM     11  C   UNL     1       7.318   0.072 -14.066  0.00  0.00    -0.028 A 
ATOM     12  C   UNL     1       7.297   1.331 -14.683  0.00  0.00    +0.005 A 
ATOM     13  C   UNL     1       6.746  -0.064 -12.792  0.00  0.00    +0.005 A 
ATOM     14  C   UNL     1       6.695   2.421 -14.049  0.00  0.00    +0.000 A 
ATOM     15  C   UNL     1       6.147   1.027 -12.162  0.00  0.00    +0.000 A 
ATOM     16  C   UNL     1       6.120   2.269 -12.792  0.00  0.00    +0.000 A 
ENDBRANCH  10  11
ENDBRANCH   1  10
TORSDOF 2
ENDMDL
MODEL 5
REMARK VINA RESULT:    -4.588      2.451      4.883
REMARK INTER + INTRA:          -5.300
REMARK INTER:                  -5.205
REMARK INTRA:                  -0.094
REMARK UNBOUND:                -0.176
REMARK  Name = 1550473
REMARK  2 active torsions:
REMARK  status: ('A' for Active; 'I' for Inactive)
REMARK    1  A    between atoms: N_1  and  C_4
REMARK    2  A    between atoms: C_4  and  C_5
REMARK                            x       y       z     vdW  Elec       q    Type
REMARK                         _______ _______ _______ _____ _____    ______ ____
ROOT
ATOM      1  N   UNL     1      -0.507  -5.922   8.029  0.00  0.00    -0.354 N 
ATOM      2  N   UNL     1       0.499  -7.316   6.477  0.00  0.00    -0.372 N 
ATOM      3  N   UNL     1      -1.627  -6.555   6.070  0.00  0.00    -0.372 N 
ATOM      4  C   UNL     1      -0.554  -6.588   6.868  0.00  0.00    +0.166 C 
ATOM      5  H   UNL     1       0.324  -6.012   8.602  0.00  0.00    +0.163 HD
ATOM      6  H   UNL     1       0.494  -7.827   5.605  0.00  0.00    +0.159 HD
ATOM      7  H   UNL     1       1.346  -7.368   7.031  0.00  0.00    +0.159 HD
ATOM      8  H   UNL     1      -2.456  -6.029   6.310  0.00  0.00    +0.159 HD
ATOM      9  H   UNL     1      -1.655  -7.069   5.198  0.00  0.00    +0.159 HD
ENDROOT
BRANCH   1  10
ATOM     10  C   UNL     1      -1.579  -5.058   8.520  0.00  0.00    +0.151 C 
BRANCH  10  11
ATOM     11  C   UNL     1      -1.005  -4.072   9.500  0.00  0.00    -0.028 A 
ATOM     12  C   UNL     1      -0.687  -2.768   9.094  0.00  0.00    +0.005 A 
ATOM     13  C   UNL     1      -0.783  -4.434  10.837  0.00  0.00    +0.005 A 
ATOM     14  C   UNL     1      -0.183  -1.842  10.011  0.00  0.00    +0.000 A 
ATOM     15  C   UNL     1      -0.278  -3.508  11.749  0.00  0.00    +0.000 A 
ATOM     16  C   UNL     1       0.019  -2.211  11.336  0.00  0.00    +0.000 A 
ENDBRANCH  10  11
ENDBRANCH   1  10
TORSDOF 2
ENDMDL
MODEL 6
REMARK VINA RESULT:    -4.522     19.836     20.469
REMARK INTER + INTRA:          -5.226
REMARK INTER:                  -5.096
REMARK INTRA:                  -0.130
REMARK UNBOUND:                -0.176
REMARK  Name = 1550473
REMARK  2 active torsions:
REMARK  status: ('A' for Active; 'I' for Inactive)
REMARK    1  A    between atoms: N_1  and  C_4
REMARK    2  A    between atoms: C_4  and  C_5
REMARK                            x       y       z     vdW  Elec       q    Type
REMARK                         _______ _______ _______ _____ _____    ______ ____
ROOT
ATOM      1  N   UNL     1       1.443  14.503   6.144  0.00  0.00    -0.354 N 
ATOM      2  N   UNL     1      -0.199  15.251   7.596  0.00  0.00    -0.372 N 
ATOM      3  N   UNL     1      -0.427  15.673   5.352  0.00  0.00    -0.372 N 
ATOM      4  C   UNL     1       0.282  15.139   6.352  0.00  0.00    +0.166 C 
ATOM      5  H   UNL     1       1.947  14.147   6.948  0.00  0.00    +0.163 HD
ATOM      6  H   UNL     1      -1.074  15.723   7.783  0.00  0.00    +0.159 HD
ATOM      7  H   UNL     1       0.284  14.854   8.392  0.00  0.00    +0.159 HD
ATOM      8  H   UNL     1      -0.115  15.628   4.391  0.00  0.00    +0.159 HD
ATOM      9  H   UNL     1      -1.299  16.159   5.521  0.00  0.00    +0.159 HD
ENDROOT
BRANCH   1  10
ATOM     10  C   UNL     1       2.027  14.279   4.823  0.00  0.00    +0.151 C 
BRANCH  10  11
ATOM     11  C   UNL     1       3.526  14.346   4.931  0.00  0.00    -0.028 A 
ATOM     12  C   UNL     1       4.318  14.468   3.780  0.00  0.00    +0.005 A 
ATOM     13  C   UNL     1       4.159  14.292   6.182  0.00  0.00    +0.005 A 
ATOM     14  C   UNL     1       5.708  14.560   3.882  0.00  0.00    +0.000 A 
ATOM     15  C   UNL     1       5.548  14.383   6.280  0.00  0.00    +0.000 A 
ATOM     16  C   UNL     1       6.322  14.519   5.130  0.00  0.00    +0.000 A 
ENDBRANCH  10  11
ENDBRANCH   1  10
TORSDOF 2
ENDMDL
MODEL 7
REMARK VINA RESULT:    -4.516      4.341      5.652
REMARK INTER + INTRA:          -5.220
REMARK INTER:                  -5.083
REMARK INTRA:                  -0.137
REMARK UNBOUND:                -0.176
REMARK  Name = 1550473
REMARK  2 active torsions:
REMARK  status: ('A' for Active; 'I' for Inactive)
REMARK    1  A    between atoms: N_1  and  C_4
REMARK    2  A    between atoms: C_4  and  C_5
REMARK                            x       y       z     vdW  Elec       q    Type
REMARK                         _______ _______ _______ _____ _____    ______ ____
ROOT
ATOM      1  N   UNL     1      -1.062  -1.647  13.969  0.00  0.00    -0.354 N 
ATOM      2  N   UNL     1      -0.202  -0.948  16.003  0.00  0.00    -0.372 N 
ATOM      3  N   UNL     1      -2.062   0.103  15.165  0.00  0.00    -0.372 N 
ATOM      4  C   UNL     1      -1.116  -0.833  15.032  0.00  0.00    +0.166 C 
ATOM      5  H   UNL     1      -0.302  -2.316  13.913  0.00  0.00    +0.163 HD
ATOM      6  H   UNL     1      -0.220  -0.351  16.819  0.00  0.00    +0.159 HD
ATOM      7  H   UNL     1       0.529  -1.648  15.966  0.00  0.00    +0.159 HD
ATOM      8  H   UNL     1      -2.778   0.244  14.465  0.00  0.00    +0.159 HD
ATOM      9  H   UNL     1      -2.089   0.718  15.969  0.00  0.00    +0.159 HD
ENDROOT
BRANCH   1  10
ATOM     10  C   UNL     1      -2.041  -1.640  12.883  0.00  0.00    +0.151 C 
BRANCH  10  11
ATOM     11  C   UNL     1      -1.325  -1.843  11.576  0.00  0.00    -0.028 A 
ATOM     12  C   UNL     1       0.048  -1.581  11.468  0.00  0.00    +0.005 A 
ATOM     13  C   UNL     1      -2.015  -2.302  10.443  0.00  0.00    +0.005 A 
ATOM     14  C   UNL     1       0.719  -1.798  10.262  0.00  0.00    +0.000 A 
ATOM     15  C   UNL     1      -1.341  -2.517   9.241  0.00  0.00    +0.000 A 
ATOM     16  C   UNL     1       0.026  -2.267   9.151  0.00  0.00    +0.000 A 
ENDBRANCH  10  11
ENDBRANCH   1  10
TORSDOF 2
ENDMDL
MODEL 8
REMARK VINA RESULT:    -4.501     12.010     12.650
REMARK INTER + INTRA:          -5.203
REMARK INTER:                  -5.111
REMARK INTRA:                  -0.092
REMARK UNBOUND:                -0.176
REMARK  Name = 1550473
REMARK  2 active torsions:
REMARK  status: ('A' for Active; 'I' for Inactive)
REMARK    1  A    between atoms: N_1  and  C_4
REMARK    2  A    between atoms: C_4  and  C_5
REMARK                            x       y       z     vdW  Elec       q    Type
REMARK                         _______ _______ _______ _____ _____    ______ ____
ROOT
ATOM      1  N   UNL     1       0.678   1.119  -3.857  0.00  0.00    -0.354 N 
ATOM      2  N   UNL     1       2.919   0.685  -3.466  0.00  0.00    -0.372 N 
ATOM      3  N   UNL     1       1.924   2.443  -2.379  0.00  0.00    -0.372 N 
ATOM      4  C   UNL     1       1.825   1.421  -3.235  0.00  0.00    +0.166 C 
ATOM      5  H   UNL     1       0.676   0.350  -4.517  0.00  0.00    +0.163 HD
ATOM      6  H   UNL     1       3.798   0.886  -3.009  0.00  0.00    +0.159 HD
ATOM      7  H   UNL     1       2.902  -0.112  -4.092  0.00  0.00    +0.159 HD
ATOM      8  H   UNL     1       1.137   3.041  -2.166  0.00  0.00    +0.159 HD
ATOM      9  H   UNL     1       2.798   2.668  -1.920  0.00  0.00    +0.159 HD
ENDROOT
BRANCH   1  10
ATOM     10  C   UNL     1      -0.583   1.825  -3.634  0.00  0.00    +0.151 C 
BRANCH  10  11
ATOM     11  C   UNL     1      -1.512   0.936  -2.853  0.00  0.00    -0.028 A 
ATOM     12  C   UNL     1      -1.097  -0.338  -2.439  0.00  0.00    +0.005 A 
ATOM     13  C   UNL     1      -2.806   1.365  -2.519  0.00  0.00    +0.005 A 
ATOM     14  C   UNL     1      -1.949  -1.152  -1.688  0.00  0.00    +0.000 A 
ATOM     15  C   UNL     1      -3.653   0.550  -1.770  0.00  0.00    +0.000 A 
ATOM     16  C   UNL     1      -3.224  -0.708  -1.352  0.00  0.00    +0.000 A 
ENDBRANCH  10  11
ENDBRANCH   1  10
TORSDOF 2
ENDMDL
MODEL 9
REMARK VINA RESULT:    -4.489      3.556      5.284
REMARK INTER + INTRA:          -5.189
REMARK INTER:                  -5.043
REMARK INTRA:                  -0.146
REMARK UNBOUND:                -0.176
REMARK  Name = 1550473
REMARK  2 active torsions:
REMARK  status: ('A' for Active; 'I' for Inactive)
REMARK    1  A    between atoms: N_1  and  C_4
REMARK    2  A    between atoms: C_4  and  C_5
REMARK                            x       y       z     vdW  Elec       q    Type
REMARK                         _______ _______ _______ _____ _____    ______ ____
ROOT
ATOM      1  N   UNL     1      -3.889  -6.590   9.039  0.00  0.00    -0.354 N 
ATOM      2  N   UNL     1      -5.957  -7.549   8.629  0.00  0.00    -0.372 N 
ATOM      3  N   UNL     1      -4.672  -6.881   6.849  0.00  0.00    -0.372 N 
ATOM      4  C   UNL     1      -4.825  -7.000   8.172  0.00  0.00    +0.166 C 
ATOM      5  H   UNL     1      -4.079  -6.680  10.030  0.00  0.00    +0.163 HD
ATOM      6  H   UNL     1      -6.679  -7.871   7.999  0.00  0.00    +0.159 HD
ATOM      7  H   UNL     1      -6.124  -7.680   9.619  0.00  0.00    +0.159 HD
ATOM      8  H   UNL     1      -3.844  -6.470   6.441  0.00  0.00    +0.159 HD
ATOM      9  H   UNL     1      -5.389  -7.187   6.203  0.00  0.00    +0.159 HD
ENDROOT
BRANCH   1  10
ATOM     10  C   UNL     1      -2.599  -6.027   8.643  0.00  0.00    +0.151 C 
BRANCH  10  11
ATOM     11  C   UNL     1      -2.429  -4.683   9.295  0.00  0.00    -0.028 A 
ATOM     12  C   UNL     1      -1.427  -3.803   8.861  0.00  0.00    +0.005 A 
ATOM     13  C   UNL     1      -3.271  -4.280  10.343  0.00  0.00    +0.005 A 
ATOM     14  C   UNL     1      -1.287  -2.542   9.445  0.00  0.00    +0.000 A 
ATOM     15  C   UNL     1      -3.128  -3.021  10.925  0.00  0.00    +0.000 A 
ATOM     16  C   UNL     1      -2.138  -2.151  10.474  0.00  0.00    +0.000 A 
ENDBRANCH  10  11
ENDBRANCH   1  10
TORSDOF 2
ENDMDL
