MODEL 1
REMARK VINA RESULT:    -5.460      0.000      0.000
REMARK INTER + INTRA:          -6.194
REMARK INTER:                  -6.099
REMARK INTRA:                  -0.095
REMARK UNBOUND:                -0.095
REMARK  Name = 1550473
REMARK  2 active torsions:
REMARK  status: ('A' for Active; 'I' for Inactive)
REMARK    1  A    between atoms: N_1  and  C_4
REMARK    2  A    between atoms: C_4  and  C_5
REMARK                            x       y       z     vdW  Elec       q    Type
REMARK                         _______ _______ _______ _____ _____    ______ ____
ROOT
ATOM      1  N   UNL     1      -4.458  19.612  -0.686  0.00  0.00    -0.354 N 
ATOM      2  N   UNL     1      -6.680  20.173  -0.355  0.00  0.00    -0.372 N 
ATOM      3  N   UNL     1      -5.610  18.900   1.226  0.00  0.00    -0.372 N 
ATOM      4  C   UNL     1      -5.568  19.556   0.062  0.00  0.00    +0.166 C 
ATOM      5  H   UNL     1      -4.499  20.100  -1.573  0.00  0.00    +0.163 HD
ATOM      6  H   UNL     1      -7.532  20.151   0.190  0.00  0.00    +0.159 HD
ATOM      7  H   UNL     1      -6.706  20.699  -1.220  0.00  0.00    +0.159 HD
ATOM      8  H   UNL     1      -4.806  18.409   1.594  0.00  0.00    +0.159 HD
ATOM      9  H   UNL     1      -6.457  18.857   1.780  0.00  0.00    +0.159 HD
ENDROOT
BRANCH   1  10
ATOM     10  C   UNL     1      -3.179  19.020  -0.297  0.00  0.00    +0.151 C 
BRANCH  10  11
ATOM     11  C   UNL     1      -2.169  19.274  -1.382  0.00  0.00    -0.028 A 
ATOM     12  C   UNL     1      -1.101  20.157  -1.168  0.00  0.00    +0.005 A 
ATOM     13  C   UNL     1      -2.272  18.630  -2.624  0.00  0.00    +0.005 A 
ATOM     14  C   UNL     1      -0.146  20.370  -2.165  0.00  0.00    +0.000 A 
ATOM     15  C   UNL     1      -1.317  18.846  -3.618  0.00  0.00    +0.000 A 
ATOM     16  C   UNL     1      -0.253  19.714  -3.387  0.00  0.00    +0.000 A 
ENDBRANCH  10  11
ENDBRANCH   1  10
TORSDOF 2
ENDMDL
MODEL 2
REMARK VINA RESULT:    -5.001      4.899      6.565
REMARK INTER + INTRA:          -5.681
REMARK INTER:                  -5.558
REMARK INTRA:                  -0.123
REMARK UNBOUND:                -0.095
REMARK  Name = 1550473
REMARK  2 active torsions:
REMARK  status: ('A' for Active; 'I' for Inactive)
REMARK    1  A    between atoms: N_1  and  C_4
REMARK    2  A    between atoms: C_4  and  C_5
REMARK                            x       y       z     vdW  Elec       q    Type
REMARK                         _______ _______ _______ _____ _____    ______ ____
ROOT
ATOM      1  N   UNL     1      -1.539  17.519  -6.859  0.00  0.00    -0.354 N 
ATOM      2  N   UNL     1      -0.412  15.983  -8.175  0.00  0.00    -0.372 N 
ATOM      3  N   UNL     1      -2.500  16.678  -8.824  0.00  0.00    -0.372 N 
ATOM      4  C   UNL     1      -1.494  16.737  -7.946  0.00  0.00    +0.166 C 
ATOM      5  H   UNL     1      -0.757  17.496  -6.216  0.00  0.00    +0.163 HD
ATOM      6  H   UNL     1      -0.347  15.385  -8.988  0.00  0.00    +0.159 HD
ATOM      7  H   UNL     1       0.389  15.997  -7.555  0.00  0.00    +0.159 HD
ATOM      8  H   UNL     1      -3.347  17.217  -8.705  0.00  0.00    +0.159 HD
ATOM      9  H   UNL     1      -2.459  16.077  -9.638  0.00  0.00    +0.159 HD
ENDROOT
BRANCH   1  10
ATOM     10  C   UNL     1      -2.648  18.418  -6.545  0.00  0.00    +0.151 C 
BRANCH  10  11
ATOM     11  C   UNL     1      -2.678  18.663  -5.062  0.00  0.00    -0.028 A 
ATOM     12  C   UNL     1      -3.847  19.125  -4.440  0.00  0.00    +0.005 A 
ATOM     13  C   UNL     1      -1.541  18.430  -4.272  0.00  0.00    +0.005 A 
ATOM     14  C   UNL     1      -3.884  19.324  -3.057  0.00  0.00    +0.000 A 
ATOM     15  C   UNL     1      -1.582  18.631  -2.893  0.00  0.00    +0.000 A 
ATOM     16  C   UNL     1      -2.754  19.075  -2.285  0.00  0.00    +0.000 A 
ENDBRANCH  10  11
ENDBRANCH   1  10
TORSDOF 2
ENDMDL
MODEL 3
REMARK VINA RESULT:    -4.883      1.706      2.663
REMARK INTER + INTRA:          -5.548
REMARK INTER:                  -5.380
REMARK INTRA:                  -0.168
REMARK UNBOUND:                -0.095
REMARK  Name = 1550473
REMARK  2 active torsions:
REMARK  status: ('A' for Active; 'I' for Inactive)
REMARK    1  A    between atoms: N_1  and  C_4
REMARK    2  A    between atoms: C_4  and  C_5
REMARK                            x       y       z     vdW  Elec       q    Type
REMARK                         _______ _______ _______ _____ _____    ______ ____
ROOT
ATOM      1  N   UNL     1      -5.964  19.560  -0.477  0.00  0.00    -0.354 N 
ATOM      2  N   UNL     1      -7.062  17.993   0.828  0.00  0.00    -0.372 N 
ATOM      3  N   UNL     1      -7.558  18.116  -1.409  0.00  0.00    -0.372 N 
ATOM      4  C   UNL     1      -6.855  18.567  -0.364  0.00  0.00    +0.166 C 
ATOM      5  H   UNL     1      -5.486  19.876   0.359  0.00  0.00    +0.163 HD
ATOM      6  H   UNL     1      -7.726  17.239   0.943  0.00  0.00    +0.159 HD
ATOM      7  H   UNL     1      -6.549  18.280   1.653  0.00  0.00    +0.159 HD
ATOM      8  H   UNL     1      -7.453  18.511  -2.335  0.00  0.00    +0.159 HD
ATOM      9  H   UNL     1      -8.235  17.370  -1.311  0.00  0.00    +0.159 HD
ENDROOT
BRANCH   1  10
ATOM     10  C   UNL     1      -5.626  20.215  -1.740  0.00  0.00    +0.151 C 
BRANCH  10  11
ATOM     11  C   UNL     1      -4.330  19.652  -2.254  0.00  0.00    -0.028 A 
ATOM     12  C   UNL     1      -4.150  19.414  -3.624  0.00  0.00    +0.005 A 
ATOM     13  C   UNL     1      -3.275  19.359  -1.376  0.00  0.00    +0.005 A 
ATOM     14  C   UNL     1      -2.936  18.919  -4.105  0.00  0.00    +0.000 A 
ATOM     15  C   UNL     1      -2.064  18.864  -1.860  0.00  0.00    +0.000 A 
ATOM     16  C   UNL     1      -1.894  18.647  -3.225  0.00  0.00    +0.000 A 
ENDBRANCH  10  11
ENDBRANCH   1  10
TORSDOF 2
ENDMDL
MODEL 4
REMARK VINA RESULT:    -4.750      2.401      3.643
REMARK INTER + INTRA:          -5.400
REMARK INTER:                  -5.221
REMARK INTRA:                  -0.179
REMARK UNBOUND:                -0.095
REMARK  Name = 1550473
REMARK  2 active torsions:
REMARK  status: ('A' for Active; 'I' for Inactive)
REMARK    1  A    between atoms: N_1  and  C_4
REMARK    2  A    between atoms: C_4  and  C_5
REMARK                            x       y       z     vdW  Elec       q    Type
REMARK                         _______ _______ _______ _____ _____    ______ ____
ROOT
ATOM      1  N   UNL     1      -7.638  18.048  -1.316  0.00  0.00    -0.354 N 
ATOM      2  N   UNL     1      -8.426  15.968  -0.671  0.00  0.00    -0.372 N 
ATOM      3  N   UNL     1      -7.500  17.343   0.915  0.00  0.00    -0.372 N 
ATOM      4  C   UNL     1      -7.848  17.134  -0.359  0.00  0.00    +0.166 C 
ATOM      5  H   UNL     1      -7.897  17.816  -2.268  0.00  0.00    +0.163 HD
ATOM      6  H   UNL     1      -8.601  15.260   0.030  0.00  0.00    +0.159 HD
ATOM      7  H   UNL     1      -8.726  15.757  -1.615  0.00  0.00    +0.159 HD
ATOM      8  H   UNL     1      -7.055  18.200   1.215  0.00  0.00    +0.159 HD
ATOM      9  H   UNL     1      -7.656  16.643   1.629  0.00  0.00    +0.159 HD
ENDROOT
BRANCH   1  10
ATOM     10  C   UNL     1      -7.065  19.370  -1.071  0.00  0.00    +0.151 C 
BRANCH  10  11
ATOM     11  C   UNL     1      -5.603  19.344  -1.421  0.00  0.00    -0.028 A 
ATOM     12  C   UNL     1      -5.191  19.350  -2.762  0.00  0.00    +0.005 A 
ATOM     13  C   UNL     1      -4.623  19.320  -0.416  0.00  0.00    +0.005 A 
ATOM     14  C   UNL     1      -3.832  19.357  -3.087  0.00  0.00    +0.000 A 
ATOM     15  C   UNL     1      -3.268  19.325  -0.745  0.00  0.00    +0.000 A 
ATOM     16  C   UNL     1      -2.873  19.346  -2.080  0.00  0.00    +0.000 A 
ENDBRANCH  10  11
ENDBRANCH   1  10
TORSDOF 2
ENDMDL
MODEL 5
REMARK VINA RESULT:    -4.735      3.802      5.287
REMARK INTER + INTRA:          -5.383
REMARK INTER:                  -5.253
REMARK INTRA:                  -0.130
REMARK UNBOUND:                -0.095
REMARK  Name = 1550473
REMARK  2 active torsions:
REMARK  status: ('A' for Active; 'I' for Inactive)
REMARK    1  A    between atoms: N_1  and  C_4
REMARK    2  A    between atoms: C_4  and  C_5
REMARK                            x       y       z     vdW  Elec       q    Type
REMARK                         _______ _______ _______ _____ _____    ______ ____
ROOT
ATOM      1  N   UNL     1      -2.212  18.352  -5.684  0.00  0.00    -0.354 N 
ATOM      2  N   UNL     1      -3.430  17.043  -7.156  0.00  0.00    -0.372 N 
ATOM      3  N   UNL     1      -1.141  17.049  -7.311  0.00  0.00    -0.372 N 
ATOM      4  C   UNL     1      -2.251  17.490  -6.709  0.00  0.00    +0.166 C 
ATOM      5  H   UNL     1      -3.090  18.671  -5.290  0.00  0.00    +0.163 HD
ATOM      6  H   UNL     1      -3.491  16.389  -7.925  0.00  0.00    +0.159 HD
ATOM      7  H   UNL     1      -4.304  17.328  -6.731  0.00  0.00    +0.159 HD
ATOM      8  H   UNL     1      -0.220  17.353  -7.025  0.00  0.00    +0.159 HD
ATOM      9  H   UNL     1      -1.181  16.404  -8.090  0.00  0.00    +0.159 HD
ENDROOT
BRANCH   1  10
ATOM     10  C   UNL     1      -0.977  18.857  -5.087  0.00  0.00    +0.151 C 
BRANCH  10  11
ATOM     11  C   UNL     1      -1.231  19.188  -3.642  0.00  0.00    -0.028 A 
ATOM     12  C   UNL     1      -0.336  20.001  -2.930  0.00  0.00    +0.005 A 
ATOM     13  C   UNL     1      -2.367  18.697  -2.980  0.00  0.00    +0.005 A 
ATOM     14  C   UNL     1      -0.586  20.333  -1.596  0.00  0.00    +0.000 A 
ATOM     15  C   UNL     1      -2.612  19.030  -1.648  0.00  0.00    +0.000 A 
ATOM     16  C   UNL     1      -1.723  19.850  -0.958  0.00  0.00    +0.000 A 
ENDBRANCH  10  11
ENDBRANCH   1  10
TORSDOF 2
ENDMDL
MODEL 6
REMARK VINA RESULT:    -4.670      2.851      4.164
REMARK INTER + INTRA:          -5.311
REMARK INTER:                  -5.133
REMARK INTRA:                  -0.178
REMARK UNBOUND:                -0.095
REMARK  Name = 1550473
REMARK  2 active torsions:
REMARK  status: ('A' for Active; 'I' for Inactive)
REMARK    1  A    between atoms: N_1  and  C_4
REMARK    2  A    between atoms: C_4  and  C_5
REMARK                            x       y       z     vdW  Elec       q    Type
REMARK                         _______ _______ _______ _____ _____    ______ ____
ROOT
ATOM      1  N   UNL     1      -1.621  20.864  -1.454  0.00  0.00    -0.354 N 
ATOM      2  N   UNL     1      -0.182  22.664  -1.226  0.00  0.00    -0.372 N 
ATOM      3  N   UNL     1       0.666  20.539  -1.059  0.00  0.00    -0.372 N 
ATOM      4  C   UNL     1      -0.387  21.342  -1.247  0.00  0.00    +0.166 C 
ATOM      5  H   UNL     1      -2.382  21.525  -1.559  0.00  0.00    +0.163 HD
ATOM      6  H   UNL     1       0.738  23.054  -1.076  0.00  0.00    +0.159 HD
ATOM      7  H   UNL     1      -0.937  23.322  -1.378  0.00  0.00    +0.159 HD
ATOM      8  H   UNL     1       0.578  19.532  -1.058  0.00  0.00    +0.159 HD
ATOM      9  H   UNL     1       1.594  20.910  -0.896  0.00  0.00    +0.159 HD
ENDROOT
BRANCH   1  10
ATOM     10  C   UNL     1      -1.941  19.440  -1.548  0.00  0.00    +0.151 C 
BRANCH  10  11
ATOM     11  C   UNL     1      -2.181  19.086  -2.990  0.00  0.00    -0.028 A 
ATOM     12  C   UNL     1      -1.130  18.618  -3.792  0.00  0.00    +0.005 A 
ATOM     13  C   UNL     1      -3.458  19.210  -3.558  0.00  0.00    +0.005 A 
ATOM     14  C   UNL     1      -1.358  18.259  -5.123  0.00  0.00    +0.000 A 
ATOM     15  C   UNL     1      -3.682  18.852  -4.888  0.00  0.00    +0.000 A 
ATOM     16  C   UNL     1      -2.632  18.374  -5.669  0.00  0.00    +0.000 A 
ENDBRANCH  10  11
ENDBRANCH   1  10
TORSDOF 2
ENDMDL
MODEL 7
REMARK VINA RESULT:    -4.657      3.911      4.986
REMARK INTER + INTRA:          -5.297
REMARK INTER:                  -5.122
REMARK INTRA:                  -0.175
REMARK UNBOUND:                -0.095
REMARK  Name = 1550473
REMARK  2 active torsions:
REMARK  status: ('A' for Active; 'I' for Inactive)
REMARK    1  A    between atoms: N_1  and  C_4
REMARK    2  A    between atoms: C_4  and  C_5
REMARK                            x       y       z     vdW  Elec       q    Type
REMARK                         _______ _______ _______ _____ _____    ______ ____
ROOT
ATOM      1  N   UNL     1       0.790  22.382  -2.484  0.00  0.00    -0.354 N 
ATOM      2  N   UNL     1       0.351  24.655  -2.418  0.00  0.00    -0.372 N 
ATOM      3  N   UNL     1       0.262  23.451  -0.467  0.00  0.00    -0.372 N 
ATOM      4  C   UNL     1       0.470  23.480  -1.787  0.00  0.00    +0.166 C 
ATOM      5  H   UNL     1       0.905  22.465  -3.488  0.00  0.00    +0.163 HD
ATOM      6  H   UNL     1       0.114  25.501  -1.918  0.00  0.00    +0.159 HD
ATOM      7  H   UNL     1       0.512  24.744  -3.414  0.00  0.00    +0.159 HD
ATOM      8  H   UNL     1       0.331  22.595   0.067  0.00  0.00    +0.159 HD
ATOM      9  H   UNL     1       0.013  24.285   0.049  0.00  0.00    +0.159 HD
ENDROOT
BRANCH   1  10
ATOM     10  C   UNL     1       0.997  21.065  -1.885  0.00  0.00    +0.151 C 
BRANCH  10  11
ATOM     11  C   UNL     1      -0.243  20.236  -2.080  0.00  0.00    -0.028 A 
ATOM     12  C   UNL     1      -1.217  20.165  -1.073  0.00  0.00    +0.005 A 
ATOM     13  C   UNL     1      -0.452  19.525  -3.271  0.00  0.00    +0.005 A 
ATOM     14  C   UNL     1      -2.383  19.420  -1.266  0.00  0.00    +0.000 A 
ATOM     15  C   UNL     1      -1.617  18.781  -3.459  0.00  0.00    +0.000 A 
ATOM     16  C   UNL     1      -2.583  18.731  -2.458  0.00  0.00    +0.000 A 
ENDBRANCH  10  11
ENDBRANCH   1  10
TORSDOF 2
ENDMDL
MODEL 8
REMARK VINA RESULT:    -4.615      7.087      8.606
REMARK INTER + INTRA:          -5.250
REMARK INTER:                  -5.132
REMARK INTRA:                  -0.117
REMARK UNBOUND:                -0.095
REMARK  Name = 1550473
REMARK  2 active torsions:
REMARK  status: ('A' for Active; 'I' for Inactive)
REMARK    1  A    between atoms: N_1  and  C_4
REMARK    2  A    between atoms: C_4  and  C_5
REMARK                            x       y       z     vdW  Elec       q    Type
REMARK                         _______ _______ _______ _____ _____    ______ ____
ROOT
ATOM      1  N   UNL     1      -9.724  13.194  -0.368  0.00  0.00    -0.354 N 
ATOM      2  N   UNL     1      -9.843  11.868   1.527  0.00  0.00    -0.372 N 
ATOM      3  N   UNL     1     -11.386  11.557  -0.143  0.00  0.00    -0.372 N 
ATOM      4  C   UNL     1     -10.319  12.214   0.325  0.00  0.00    +0.166 C 
ATOM      5  H   UNL     1      -8.938  13.673   0.055  0.00  0.00    +0.163 HD
ATOM      6  H   UNL     1     -10.269  11.130   2.072  0.00  0.00    +0.159 HD
ATOM      7  H   UNL     1      -9.029  12.318   1.928  0.00  0.00    +0.159 HD
ATOM      8  H   UNL     1     -11.798  11.774  -1.040  0.00  0.00    +0.159 HD
ATOM      9  H   UNL     1     -11.834  10.824   0.393  0.00  0.00    +0.159 HD
ENDROOT
BRANCH   1  10
ATOM     10  C   UNL     1     -10.131  13.611  -1.709  0.00  0.00    +0.151 C 
BRANCH  10  11
ATOM     11  C   UNL     1      -9.422  14.889  -2.062  0.00  0.00    -0.028 A 
ATOM     12  C   UNL     1      -9.176  15.861  -1.081  0.00  0.00    +0.005 A 
ATOM     13  C   UNL     1      -8.990  15.132  -3.375  0.00  0.00    +0.005 A 
ATOM     14  C   UNL     1      -8.491  17.036  -1.402  0.00  0.00    +0.000 A 
ATOM     15  C   UNL     1      -8.307  16.307  -3.691  0.00  0.00    +0.000 A 
ATOM     16  C   UNL     1      -8.056  17.257  -2.704  0.00  0.00    +0.000 A 
ENDBRANCH  10  11
ENDBRANCH   1  10
TORSDOF 2
ENDMDL
MODEL 9
REMARK VINA RESULT:    -4.364     19.700     21.011
REMARK INTER + INTRA:          -4.969
REMARK INTER:                  -4.817
REMARK INTRA:                  -0.152
REMARK UNBOUND:                -0.095
REMARK  Name = 1550473
REMARK  2 active torsions:
REMARK  status: ('A' for Active; 'I' for Inactive)
REMARK    1  A    between atoms: N_1  and  C_4
REMARK    2  A    between atoms: C_4  and  C_5
REMARK                            x       y       z     vdW  Elec       q    Type
REMARK                         _______ _______ _______ _____ _____    ______ ____
ROOT
ATOM      1  N   UNL     1     -14.560   0.802  -3.621  0.00  0.00    -0.354 N 
ATOM      2  N   UNL     1     -16.565  -0.081  -4.370  0.00  0.00    -0.372 N 
ATOM      3  N   UNL     1     -15.715  -0.803  -2.365  0.00  0.00    -0.372 N 
ATOM      4  C   UNL     1     -15.600  -0.023  -3.444  0.00  0.00    +0.166 C 
ATOM      5  H   UNL     1     -14.516   1.345  -4.475  0.00  0.00    +0.163 HD
ATOM      6  H   UNL     1     -17.364  -0.692  -4.263  0.00  0.00    +0.159 HD
ATOM      7  H   UNL     1     -16.542   0.496  -5.201  0.00  0.00    +0.159 HD
ATOM      8  H   UNL     1     -15.018  -0.811  -1.632  0.00  0.00    +0.159 HD
ATOM      9  H   UNL     1     -16.501  -1.430  -2.245  0.00  0.00    +0.159 HD
ENDROOT
BRANCH   1  10
ATOM     10  C   UNL     1     -13.483   0.980  -2.648  0.00  0.00    +0.151 C 
BRANCH  10  11
ATOM     11  C   UNL     1     -13.498   2.400  -2.153  0.00  0.00    -0.028 A 
ATOM     12  C   UNL     1     -14.580   2.881  -1.401  0.00  0.00    +0.005 A 
ATOM     13  C   UNL     1     -12.430   3.269  -2.428  0.00  0.00    +0.005 A 
ATOM     14  C   UNL     1     -14.580   4.191  -0.915  0.00  0.00    +0.000 A 
ATOM     15  C   UNL     1     -12.435   4.576  -1.942  0.00  0.00    +0.000 A 
ATOM     16  C   UNL     1     -13.509   5.036  -1.184  0.00  0.00    +0.000 A 
ENDBRANCH  10  11
ENDBRANCH   1  10
TORSDOF 2
ENDMDL
