MODEL 1
REMARK VINA RESULT:    -4.906      0.000      0.000
REMARK INTER + INTRA:          -5.589
REMARK INTER:                  -5.480
REMARK INTRA:                  -0.109
REMARK UNBOUND:                -0.109
REMARK  Name = 1550473
REMARK  2 active torsions:
REMARK  status: ('A' for Active; 'I' for Inactive)
REMARK    1  A    between atoms: N_1  and  C_4
REMARK    2  A    between atoms: C_4  and  C_5
REMARK                            x       y       z     vdW  Elec       q    Type
REMARK                         _______ _______ _______ _____ _____    ______ ____
ROOT
ATOM      1  N   UNL     1      -7.620 -12.900   4.052  0.00  0.00    -0.354 N 
ATOM      2  N   UNL     1      -7.631 -15.192   3.718  0.00  0.00    -0.372 N 
ATOM      3  N   UNL     1      -5.622 -14.123   4.009  0.00  0.00    -0.372 N 
ATOM      4  C   UNL     1      -6.955 -14.056   3.929  0.00  0.00    +0.166 C 
ATOM      5  H   UNL     1      -8.628 -12.911   3.951  0.00  0.00    +0.163 HD
ATOM      6  H   UNL     1      -7.157 -16.080   3.624  0.00  0.00    +0.159 HD
ATOM      7  H   UNL     1      -8.643 -15.207   3.663  0.00  0.00    +0.159 HD
ATOM      8  H   UNL     1      -5.052 -13.301   4.161  0.00  0.00    +0.159 HD
ATOM      9  H   UNL     1      -5.128 -15.001   3.906  0.00  0.00    +0.159 HD
ENDROOT
BRANCH   1  10
ATOM     10  C   UNL     1      -6.982 -11.616   4.337  0.00  0.00    +0.151 C 
BRANCH  10  11
ATOM     11  C   UNL     1      -7.949 -10.742   5.087  0.00  0.00    -0.028 A 
ATOM     12  C   UNL     1      -8.307 -11.048   6.409  0.00  0.00    +0.005 A 
ATOM     13  C   UNL     1      -8.506  -9.604   4.485  0.00  0.00    +0.005 A 
ATOM     14  C   UNL     1      -9.181 -10.221   7.117  0.00  0.00    +0.000 A 
ATOM     15  C   UNL     1      -9.380  -8.781   5.195  0.00  0.00    +0.000 A 
ATOM     16  C   UNL     1      -9.715  -9.088   6.512  0.00  0.00    +0.000 A 
ENDBRANCH  10  11
ENDBRANCH   1  10
TORSDOF 2
ENDMDL
MODEL 2
REMARK VINA RESULT:    -4.900      1.780      2.469
REMARK INTER + INTRA:          -5.582
REMARK INTER:                  -5.460
REMARK INTRA:                  -0.123
REMARK UNBOUND:                -0.109
REMARK  Name = 1550473
REMARK  2 active torsions:
REMARK  status: ('A' for Active; 'I' for Inactive)
REMARK    1  A    between atoms: N_1  and  C_4
REMARK    2  A    between atoms: C_4  and  C_5
REMARK                            x       y       z     vdW  Elec       q    Type
REMARK                         _______ _______ _______ _____ _____    ______ ____
ROOT
ATOM      1  N   UNL     1      -7.701 -11.838   2.347  0.00  0.00    -0.354 N 
ATOM      2  N   UNL     1      -5.807 -12.225   1.072  0.00  0.00    -0.372 N 
ATOM      3  N   UNL     1      -6.110 -13.428   3.002  0.00  0.00    -0.372 N 
ATOM      4  C   UNL     1      -6.551 -12.496   2.151  0.00  0.00    +0.166 C 
ATOM      5  H   UNL     1      -7.966 -11.122   1.680  0.00  0.00    +0.163 HD
ATOM      6  H   UNL     1      -4.936 -12.708   0.895  0.00  0.00    +0.159 HD
ATOM      7  H   UNL     1      -6.096 -11.541   0.383  0.00  0.00    +0.159 HD
ATOM      8  H   UNL     1      -6.622 -13.675   3.838  0.00  0.00    +0.159 HD
ATOM      9  H   UNL     1      -5.235 -13.914   2.849  0.00  0.00    +0.159 HD
ENDROOT
BRANCH   1  10
ATOM     10  C   UNL     1      -8.612 -12.096   3.461  0.00  0.00    +0.151 C 
BRANCH  10  11
ATOM     11  C   UNL     1      -8.961 -10.792   4.122  0.00  0.00    -0.028 A 
ATOM     12  C   UNL     1      -9.467  -9.724   3.367  0.00  0.00    +0.005 A 
ATOM     13  C   UNL     1      -8.793 -10.619   5.505  0.00  0.00    +0.005 A 
ATOM     14  C   UNL     1      -9.820  -8.522   3.986  0.00  0.00    +0.000 A 
ATOM     15  C   UNL     1      -9.146  -9.417   6.118  0.00  0.00    +0.000 A 
ATOM     16  C   UNL     1      -9.661  -8.370   5.359  0.00  0.00    +0.000 A 
ENDBRANCH  10  11
ENDBRANCH   1  10
TORSDOF 2
ENDMDL
MODEL 3
REMARK VINA RESULT:    -4.898      0.530      1.504
REMARK INTER + INTRA:          -5.580
REMARK INTER:                  -5.489
REMARK INTRA:                  -0.092
REMARK UNBOUND:                -0.109
REMARK  Name = 1550473
REMARK  2 active torsions:
REMARK  status: ('A' for Active; 'I' for Inactive)
REMARK    1  A    between atoms: N_1  and  C_4
REMARK    2  A    between atoms: C_4  and  C_5
REMARK                            x       y       z     vdW  Elec       q    Type
REMARK                         _______ _______ _______ _____ _____    ______ ____
ROOT
ATOM      1  N   UNL     1      -7.544 -13.145   4.652  0.00  0.00    -0.354 N 
ATOM      2  N   UNL     1      -7.608 -15.301   3.809  0.00  0.00    -0.372 N 
ATOM      3  N   UNL     1      -5.579 -14.248   4.010  0.00  0.00    -0.372 N 
ATOM      4  C   UNL     1      -6.907 -14.216   4.162  0.00  0.00    +0.166 C 
ATOM      5  H   UNL     1      -8.555 -13.172   4.714  0.00  0.00    +0.163 HD
ATOM      6  H   UNL     1      -7.154 -16.126   3.440  0.00  0.00    +0.159 HD
ATOM      7  H   UNL     1      -8.614 -15.343   3.916  0.00  0.00    +0.159 HD
ATOM      8  H   UNL     1      -4.993 -13.460   4.252  0.00  0.00    +0.159 HD
ATOM      9  H   UNL     1      -5.108 -15.060   3.631  0.00  0.00    +0.159 HD
ENDROOT
BRANCH   1  10
ATOM     10  C   UNL     1      -6.869 -11.934   5.116  0.00  0.00    +0.151 C 
BRANCH  10  11
ATOM     11  C   UNL     1      -7.897 -10.865   5.368  0.00  0.00    -0.028 A 
ATOM     12  C   UNL     1      -8.196  -9.917   4.379  0.00  0.00    +0.005 A 
ATOM     13  C   UNL     1      -8.578 -10.798   6.593  0.00  0.00    +0.005 A 
ATOM     14  C   UNL     1      -9.171  -8.943   4.601  0.00  0.00    +0.000 A 
ATOM     15  C   UNL     1      -9.551  -9.822   6.812  0.00  0.00    +0.000 A 
ATOM     16  C   UNL     1      -9.849  -8.897   5.815  0.00  0.00    +0.000 A 
ENDBRANCH  10  11
ENDBRANCH   1  10
TORSDOF 2
ENDMDL
MODEL 4
REMARK VINA RESULT:    -4.775      3.064      4.014
REMARK INTER + INTRA:          -5.442
REMARK INTER:                  -5.297
REMARK INTRA:                  -0.146
REMARK UNBOUND:                -0.109
REMARK  Name = 1550473
REMARK  2 active torsions:
REMARK  status: ('A' for Active; 'I' for Inactive)
REMARK    1  A    between atoms: N_1  and  C_4
REMARK    2  A    between atoms: C_4  and  C_5
REMARK                            x       y       z     vdW  Elec       q    Type
REMARK                         _______ _______ _______ _____ _____    ______ ____
ROOT
ATOM      1  N   UNL     1      -6.749 -13.735   2.957  0.00  0.00    -0.354 N 
ATOM      2  N   UNL     1      -6.003 -14.714   4.919  0.00  0.00    -0.372 N 
ATOM      3  N   UNL     1      -5.605 -12.481   4.572  0.00  0.00    -0.372 N 
ATOM      4  C   UNL     1      -6.123 -13.634   4.137  0.00  0.00    +0.166 C 
ATOM      5  H   UNL     1      -7.093 -14.645   2.671  0.00  0.00    +0.163 HD
ATOM      6  H   UNL     1      -5.538 -14.667   5.816  0.00  0.00    +0.159 HD
ATOM      7  H   UNL     1      -6.388 -15.611   4.651  0.00  0.00    +0.159 HD
ATOM      8  H   UNL     1      -5.657 -11.631   4.027  0.00  0.00    +0.159 HD
ATOM      9  H   UNL     1      -5.126 -12.417   5.462  0.00  0.00    +0.159 HD
ENDROOT
BRANCH   1  10
ATOM     10  C   UNL     1      -6.980 -12.609   2.055  0.00  0.00    +0.151 C 
BRANCH  10  11
ATOM     11  C   UNL     1      -8.460 -12.436   1.855  0.00  0.00    -0.028 A 
ATOM     12  C   UNL     1      -9.138 -13.180   0.878  0.00  0.00    +0.005 A 
ATOM     13  C   UNL     1      -9.192 -11.533   2.642  0.00  0.00    +0.005 A 
ATOM     14  C   UNL     1     -10.519 -13.041   0.712  0.00  0.00    +0.000 A 
ATOM     15  C   UNL     1     -10.570 -11.397   2.472  0.00  0.00    +0.000 A 
ATOM     16  C   UNL     1     -11.233 -12.153   1.509  0.00  0.00    +0.000 A 
ENDBRANCH  10  11
ENDBRANCH   1  10
TORSDOF 2
ENDMDL
MODEL 5
REMARK VINA RESULT:    -4.750     19.911     20.949
REMARK INTER + INTRA:          -5.414
REMARK INTER:                  -5.315
REMARK INTRA:                  -0.099
REMARK UNBOUND:                -0.109
REMARK  Name = 1550473
REMARK  2 active torsions:
REMARK  status: ('A' for Active; 'I' for Inactive)
REMARK    1  A    between atoms: N_1  and  C_4
REMARK    2  A    between atoms: C_4  and  C_5
REMARK                            x       y       z     vdW  Elec       q    Type
REMARK                         _______ _______ _______ _____ _____    ______ ____
ROOT
ATOM      1  N   UNL     1      -6.139  -6.076 -14.695  0.00  0.00    -0.354 N 
ATOM      2  N   UNL     1      -8.406  -6.518 -14.517  0.00  0.00    -0.372 N 
ATOM      3  N   UNL     1      -7.726  -4.652 -15.667  0.00  0.00    -0.372 N 
ATOM      4  C   UNL     1      -7.409  -5.743 -14.962  0.00  0.00    +0.166 C 
ATOM      5  H   UNL     1      -5.966  -6.900 -14.130  0.00  0.00    +0.163 HD
ATOM      6  H   UNL     1      -9.374  -6.294 -14.706  0.00  0.00    +0.159 HD
ATOM      7  H   UNL     1      -8.228  -7.365 -13.991  0.00  0.00    +0.159 HD
ATOM      8  H   UNL     1      -7.021  -4.023 -16.026  0.00  0.00    +0.159 HD
ATOM      9  H   UNL     1      -8.690  -4.405 -15.856  0.00  0.00    +0.159 HD
ENDROOT
BRANCH   1  10
ATOM     10  C   UNL     1      -4.979  -5.330 -15.179  0.00  0.00    +0.151 C 
BRANCH  10  11
ATOM     11  C   UNL     1      -3.731  -5.922 -14.584  0.00  0.00    -0.028 A 
ATOM     12  C   UNL     1      -3.510  -5.872 -13.200  0.00  0.00    +0.005 A 
ATOM     13  C   UNL     1      -2.770  -6.539 -15.399  0.00  0.00    +0.005 A 
ATOM     14  C   UNL     1      -2.365  -6.449 -12.644  0.00  0.00    +0.000 A 
ATOM     15  C   UNL     1      -1.628  -7.113 -14.839  0.00  0.00    +0.000 A 
ATOM     16  C   UNL     1      -1.427  -7.069 -13.462  0.00  0.00    +0.000 A 
ENDBRANCH  10  11
ENDBRANCH   1  10
TORSDOF 2
ENDMDL
MODEL 6
REMARK VINA RESULT:    -4.576     18.175     19.224
REMARK INTER + INTRA:          -5.221
REMARK INTER:                  -5.115
REMARK INTRA:                  -0.106
REMARK UNBOUND:                -0.109
REMARK  Name = 1550473
REMARK  2 active torsions:
REMARK  status: ('A' for Active; 'I' for Inactive)
REMARK    1  A    between atoms: N_1  and  C_4
REMARK    2  A    between atoms: C_4  and  C_5
REMARK                            x       y       z     vdW  Elec       q    Type
REMARK                         _______ _______ _______ _____ _____    ______ ____
ROOT
ATOM      1  N   UNL     1      -0.599  -7.711 -10.711  0.00  0.00    -0.354 N 
ATOM      2  N   UNL     1      -0.465  -8.945  -8.755  0.00  0.00    -0.372 N 
ATOM      3  N   UNL     1       1.382  -8.810 -10.111  0.00  0.00    -0.372 N 
ATOM      4  C   UNL     1       0.107  -8.481  -9.873  0.00  0.00    +0.166 C 
ATOM      5  H   UNL     1      -1.570  -7.523 -10.489  0.00  0.00    +0.163 HD
ATOM      6  H   UNL     1       0.044  -9.525  -8.102  0.00  0.00    +0.159 HD
ATOM      7  H   UNL     1      -1.422  -8.717  -8.513  0.00  0.00    +0.159 HD
ATOM      8  H   UNL     1       1.870  -8.498 -10.939  0.00  0.00    +0.159 HD
ATOM      9  H   UNL     1       1.904  -9.400  -9.475  0.00  0.00    +0.159 HD
ENDROOT
BRANCH   1  10
ATOM     10  C   UNL     1      -0.054  -7.112 -11.928  0.00  0.00    +0.151 C 
BRANCH  10  11
ATOM     11  C   UNL     1      -1.184  -6.783 -12.863  0.00  0.00    -0.028 A 
ATOM     12  C   UNL     1      -1.139  -7.189 -14.205  0.00  0.00    +0.005 A 
ATOM     13  C   UNL     1      -2.307  -6.072 -12.412  0.00  0.00    +0.005 A 
ATOM     14  C   UNL     1      -2.202  -6.910 -15.067  0.00  0.00    +0.000 A 
ATOM     15  C   UNL     1      -3.366  -5.794 -13.276  0.00  0.00    +0.000 A 
ATOM     16  C   UNL     1      -3.314  -6.216 -14.603  0.00  0.00    +0.000 A 
ENDBRANCH  10  11
ENDBRANCH   1  10
TORSDOF 2
ENDMDL
MODEL 7
REMARK VINA RESULT:    -4.549      3.800      4.372
REMARK INTER + INTRA:          -5.190
REMARK INTER:                  -5.073
REMARK INTRA:                  -0.118
REMARK UNBOUND:                -0.109
REMARK  Name = 1550473
REMARK  2 active torsions:
REMARK  status: ('A' for Active; 'I' for Inactive)
REMARK    1  A    between atoms: N_1  and  C_4
REMARK    2  A    between atoms: C_4  and  C_5
REMARK                            x       y       z     vdW  Elec       q    Type
REMARK                         _______ _______ _______ _____ _____    ______ ____
ROOT
ATOM      1  N   UNL     1      -7.650 -12.040   1.778  0.00  0.00    -0.354 N 
ATOM      2  N   UNL     1      -5.644 -12.697   0.825  0.00  0.00    -0.372 N 
ATOM      3  N   UNL     1      -6.142 -13.396   2.953  0.00  0.00    -0.372 N 
ATOM      4  C   UNL     1      -6.492 -12.708   1.861  0.00  0.00    +0.166 C 
ATOM      5  H   UNL     1      -7.843 -11.513   0.934  0.00  0.00    +0.163 HD
ATOM      6  H   UNL     1      -4.765 -13.194   0.857  0.00  0.00    +0.159 HD
ATOM      7  H   UNL     1      -5.860 -12.207  -0.035  0.00  0.00    +0.159 HD
ATOM      8  H   UNL     1      -6.735 -13.439   3.771  0.00  0.00    +0.159 HD
ATOM      9  H   UNL     1      -5.261 -13.890   3.008  0.00  0.00    +0.159 HD
ENDROOT
BRANCH   1  10
ATOM     10  C   UNL     1      -8.666 -12.032   2.829  0.00  0.00    +0.151 C 
BRANCH  10  11
ATOM     11  C   UNL     1     -10.011 -11.768   2.210  0.00  0.00    -0.028 A 
ATOM     12  C   UNL     1     -10.850 -10.770   2.729  0.00  0.00    +0.005 A 
ATOM     13  C   UNL     1     -10.450 -12.507   1.101  0.00  0.00    +0.005 A 
ATOM     14  C   UNL     1     -12.086 -10.504   2.136  0.00  0.00    +0.000 A 
ATOM     15  C   UNL     1     -11.686 -12.239   0.513  0.00  0.00    +0.000 A 
ATOM     16  C   UNL     1     -12.502 -11.235   1.029  0.00  0.00    +0.000 A 
ENDBRANCH  10  11
ENDBRANCH   1  10
TORSDOF 2
ENDMDL
MODEL 8
REMARK VINA RESULT:    -4.475      2.995      4.475
REMARK INTER + INTRA:          -5.108
REMARK INTER:                  -4.938
REMARK INTRA:                  -0.170
REMARK UNBOUND:                -0.109
REMARK  Name = 1550473
REMARK  2 active torsions:
REMARK  status: ('A' for Active; 'I' for Inactive)
REMARK    1  A    between atoms: N_1  and  C_4
REMARK    2  A    between atoms: C_4  and  C_5
REMARK                            x       y       z     vdW  Elec       q    Type
REMARK                         _______ _______ _______ _____ _____    ______ ____
ROOT
ATOM      1  N   UNL     1      -8.014 -12.189   4.803  0.00  0.00    -0.354 N 
ATOM      2  N   UNL     1      -6.854 -13.447   6.364  0.00  0.00    -0.372 N 
ATOM      3  N   UNL     1      -5.675 -12.328   4.744  0.00  0.00    -0.372 N 
ATOM      4  C   UNL     1      -6.853 -12.645   5.292  0.00  0.00    +0.166 C 
ATOM      5  H   UNL     1      -8.875 -12.491   5.246  0.00  0.00    +0.163 HD
ATOM      6  H   UNL     1      -5.994 -13.804   6.757  0.00  0.00    +0.159 HD
ATOM      7  H   UNL     1      -7.713 -13.710   6.832  0.00  0.00    +0.159 HD
ATOM      8  H   UNL     1      -5.607 -11.732   3.930  0.00  0.00    +0.159 HD
ATOM      9  H   UNL     1      -4.804 -12.685   5.116  0.00  0.00    +0.159 HD
ENDROOT
BRANCH   1  10
ATOM     10  C   UNL     1      -8.119 -11.268   3.673  0.00  0.00    +0.151 C 
BRANCH  10  11
ATOM     11  C   UNL     1      -8.585 -12.028   2.462  0.00  0.00    -0.028 A 
ATOM     12  C   UNL     1      -9.941 -12.038   2.105  0.00  0.00    +0.005 A 
ATOM     13  C   UNL     1      -7.673 -12.736   1.664  0.00  0.00    +0.005 A 
ATOM     14  C   UNL     1     -10.369 -12.719   0.963  0.00  0.00    +0.000 A 
ATOM     15  C   UNL     1      -8.105 -13.416   0.525  0.00  0.00    +0.000 A 
ATOM     16  C   UNL     1      -9.452 -13.405   0.173  0.00  0.00    +0.000 A 
ENDBRANCH  10  11
ENDBRANCH   1  10
TORSDOF 2
ENDMDL
MODEL 9
REMARK VINA RESULT:    -4.243      2.726      3.603
REMARK INTER + INTRA:          -4.849
REMARK INTER:                  -4.687
REMARK INTRA:                  -0.161
REMARK UNBOUND:                -0.109
REMARK  Name = 1550473
REMARK  2 active torsions:
REMARK  status: ('A' for Active; 'I' for Inactive)
REMARK    1  A    between atoms: N_1  and  C_4
REMARK    2  A    between atoms: C_4  and  C_5
REMARK                            x       y       z     vdW  Elec       q    Type
REMARK                         _______ _______ _______ _____ _____    ______ ____
ROOT
ATOM      1  N   UNL     1      -7.989 -11.128   3.277  0.00  0.00    -0.354 N 
ATOM      2  N   UNL     1      -6.488 -12.231   1.900  0.00  0.00    -0.372 N 
ATOM      3  N   UNL     1      -8.342 -13.357   2.648  0.00  0.00    -0.372 N 
ATOM      4  C   UNL     1      -7.618 -12.233   2.618  0.00  0.00    +0.166 C 
ATOM      5  H   UNL     1      -7.381 -10.318   3.238  0.00  0.00    +0.163 HD
ATOM      6  H   UNL     1      -6.184 -13.049   1.390  0.00  0.00    +0.159 HD
ATOM      7  H   UNL     1      -5.906 -11.405   1.826  0.00  0.00    +0.159 HD
ATOM      8  H   UNL     1      -9.202 -13.426   3.175  0.00  0.00    +0.159 HD
ATOM      9  H   UNL     1      -8.049 -14.190   2.153  0.00  0.00    +0.159 HD
ENDROOT
BRANCH   1  10
ATOM     10  C   UNL     1      -9.229 -11.009   4.043  0.00  0.00    +0.151 C 
BRANCH  10  11
ATOM     11  C   UNL     1     -10.142 -10.034   3.352  0.00  0.00    -0.028 A 
ATOM     12  C   UNL     1     -11.213 -10.492   2.571  0.00  0.00    +0.005 A 
ATOM     13  C   UNL     1      -9.944  -8.651   3.480  0.00  0.00    +0.005 A 
ATOM     14  C   UNL     1     -12.079  -9.586   1.954  0.00  0.00    +0.000 A 
ATOM     15  C   UNL     1     -10.811  -7.749   2.862  0.00  0.00    +0.000 A 
ATOM     16  C   UNL     1     -11.880  -8.218   2.101  0.00  0.00    +0.000 A 
ENDBRANCH  10  11
ENDBRANCH   1  10
TORSDOF 2
ENDMDL
