MODEL 1
REMARK VINA RESULT:    -5.045      0.000      0.000
REMARK INTER + INTRA:          -5.773
REMARK INTER:                  -5.635
REMARK INTRA:                  -0.138
REMARK UNBOUND:                -0.138
REMARK  Name = 1550473
REMARK  2 active torsions:
REMARK  status: ('A' for Active; 'I' for Inactive)
REMARK    1  A    between atoms: N_1  and  C_4
REMARK    2  A    between atoms: C_4  and  C_5
REMARK                            x       y       z     vdW  Elec       q    Type
REMARK                         _______ _______ _______ _____ _____    ______ ____
ROOT
ATOM      1  N   UNL     1       5.835   3.071  -6.073  0.00  0.00    -0.354 N 
ATOM      2  N   UNL     1       5.135   2.435  -3.959  0.00  0.00    -0.372 N 
ATOM      3  N   UNL     1       4.859   4.618  -4.608  0.00  0.00    -0.372 N 
ATOM      4  C   UNL     1       5.280   3.382  -4.893  0.00  0.00    +0.166 C 
ATOM      5  H   UNL     1       6.161   2.122  -6.216  0.00  0.00    +0.163 HD
ATOM      6  H   UNL     1       4.717   2.639  -3.061  0.00  0.00    +0.159 HD
ATOM      7  H   UNL     1       5.420   1.477  -4.122  0.00  0.00    +0.159 HD
ATOM      8  H   UNL     1       4.946   5.379  -5.268  0.00  0.00    +0.159 HD
ATOM      9  H   UNL     1       4.449   4.845  -3.711  0.00  0.00    +0.159 HD
ENDROOT
BRANCH   1  10
ATOM     10  C   UNL     1       5.990   4.015  -7.178  0.00  0.00    +0.151 C 
BRANCH  10  11
ATOM     11  C   UNL     1       7.424   4.010  -7.631  0.00  0.00    -0.028 A 
ATOM     12  C   UNL     1       7.777   4.533  -8.884  0.00  0.00    +0.005 A 
ATOM     13  C   UNL     1       8.435   3.487  -6.810  0.00  0.00    +0.005 A 
ATOM     14  C   UNL     1       9.112   4.555  -9.293  0.00  0.00    +0.000 A 
ATOM     15  C   UNL     1       9.768   3.510  -7.223  0.00  0.00    +0.000 A 
ATOM     16  C   UNL     1      10.106   4.047  -8.463  0.00  0.00    +0.000 A 
ENDBRANCH  10  11
ENDBRANCH   1  10
TORSDOF 2
ENDMDL
MODEL 2
REMARK VINA RESULT:    -4.956     21.750     22.815
REMARK INTER + INTRA:          -5.673
REMARK INTER:                  -5.516
REMARK INTRA:                  -0.158
REMARK UNBOUND:                -0.138
REMARK  Name = 1550473
REMARK  2 active torsions:
REMARK  status: ('A' for Active; 'I' for Inactive)
REMARK    1  A    between atoms: N_1  and  C_4
REMARK    2  A    between atoms: C_4  and  C_5
REMARK                            x       y       z     vdW  Elec       q    Type
REMARK                         _______ _______ _______ _____ _____    ______ ____
ROOT
ATOM      1  N   UNL     1       4.252  18.926  10.667  0.00  0.00    -0.354 N 
ATOM      2  N   UNL     1       5.724  19.708   9.059  0.00  0.00    -0.372 N 
ATOM      3  N   UNL     1       6.570  18.738  10.958  0.00  0.00    -0.372 N 
ATOM      4  C   UNL     1       5.507  19.118  10.240  0.00  0.00    +0.166 C 
ATOM      5  H   UNL     1       3.490  19.264  10.090  0.00  0.00    +0.163 HD
ATOM      6  H   UNL     1       6.660  19.863   8.709  0.00  0.00    +0.159 HD
ATOM      7  H   UNL     1       4.960  20.004   8.463  0.00  0.00    +0.159 HD
ATOM      8  H   UNL     1       6.474  18.292  11.861  0.00  0.00    +0.159 HD
ATOM      9  H   UNL     1       7.515  18.895  10.630  0.00  0.00    +0.159 HD
ENDROOT
BRANCH   1  10
ATOM     10  C   UNL     1       3.907  18.245  11.914  0.00  0.00    +0.151 C 
BRANCH  10  11
ATOM     11  C   UNL     1       3.610  16.801  11.619  0.00  0.00    -0.028 A 
ATOM     12  C   UNL     1       2.326  16.406  11.216  0.00  0.00    +0.005 A 
ATOM     13  C   UNL     1       4.610  15.823  11.734  0.00  0.00    +0.005 A 
ATOM     14  C   UNL     1       2.057  15.069  10.913  0.00  0.00    +0.000 A 
ATOM     15  C   UNL     1       4.337  14.489  11.431  0.00  0.00    +0.000 A 
ATOM     16  C   UNL     1       3.061  14.113  11.018  0.00  0.00    +0.000 A 
ENDBRANCH  10  11
ENDBRANCH   1  10
TORSDOF 2
ENDMDL
MODEL 3
REMARK VINA RESULT:    -4.841      6.894      8.063
REMARK INTER + INTRA:          -5.546
REMARK INTER:                  -5.395
REMARK INTRA:                  -0.151
REMARK UNBOUND:                -0.138
REMARK  Name = 1550473
REMARK  2 active torsions:
REMARK  status: ('A' for Active; 'I' for Inactive)
REMARK    1  A    between atoms: N_1  and  C_4
REMARK    2  A    between atoms: C_4  and  C_5
REMARK                            x       y       z     vdW  Elec       q    Type
REMARK                         _______ _______ _______ _____ _____    ______ ____
ROOT
ATOM      1  N   UNL     1      11.490   8.053  -9.031  0.00  0.00    -0.354 N 
ATOM      2  N   UNL     1      10.388   6.209  -8.165  0.00  0.00    -0.372 N 
ATOM      3  N   UNL     1       9.216   7.692  -9.466  0.00  0.00    -0.372 N 
ATOM      4  C   UNL     1      10.370   7.331  -8.894  0.00  0.00    +0.166 C 
ATOM      5  H   UNL     1      12.325   7.742  -8.548  0.00  0.00    +0.163 HD
ATOM      6  H   UNL     1       9.559   5.643  -8.047  0.00  0.00    +0.159 HD
ATOM      7  H   UNL     1      11.235   5.876  -7.721  0.00  0.00    +0.159 HD
ATOM      8  H   UNL     1       9.134   8.532 -10.024  0.00  0.00    +0.159 HD
ATOM      9  H   UNL     1       8.372   7.145  -9.349  0.00  0.00    +0.159 HD
ENDROOT
BRANCH   1  10
ATOM     10  C   UNL     1      11.590   9.261  -9.848  0.00  0.00    +0.151 C 
BRANCH  10  11
ATOM     11  C   UNL     1      11.323  10.462  -8.983  0.00  0.00    -0.028 A 
ATOM     12  C   UNL     1      11.877  10.551  -7.697  0.00  0.00    +0.005 A 
ATOM     13  C   UNL     1      10.521  11.517  -9.445  0.00  0.00    +0.005 A 
ATOM     14  C   UNL     1      11.653  11.680  -6.905  0.00  0.00    +0.000 A 
ATOM     15  C   UNL     1      10.299  12.641  -8.650  0.00  0.00    +0.000 A 
ATOM     16  C   UNL     1      10.868  12.724  -7.382  0.00  0.00    +0.000 A 
ENDBRANCH  10  11
ENDBRANCH   1  10
TORSDOF 2
ENDMDL
MODEL 4
REMARK VINA RESULT:    -4.738      6.223      6.881
REMARK INTER + INTRA:          -5.430
REMARK INTER:                  -5.315
REMARK INTRA:                  -0.115
REMARK UNBOUND:                -0.138
REMARK  Name = 1550473
REMARK  2 active torsions:
REMARK  status: ('A' for Active; 'I' for Inactive)
REMARK    1  A    between atoms: N_1  and  C_4
REMARK    2  A    between atoms: C_4  and  C_5
REMARK                            x       y       z     vdW  Elec       q    Type
REMARK                         _______ _______ _______ _____ _____    ______ ____
ROOT
ATOM      1  N   UNL     1       4.867   0.133 -11.318  0.00  0.00    -0.354 N 
ATOM      2  N   UNL     1       3.749   1.158 -13.068  0.00  0.00    -0.372 N 
ATOM      3  N   UNL     1       3.266   1.797 -10.918  0.00  0.00    -0.372 N 
ATOM      4  C   UNL     1       3.967   1.024 -11.754  0.00  0.00    +0.166 C 
ATOM      5  H   UNL     1       5.343  -0.444 -12.001  0.00  0.00    +0.163 HD
ATOM      6  H   UNL     1       3.079   1.824 -13.427  0.00  0.00    +0.159 HD
ATOM      7  H   UNL     1       4.260   0.612 -13.751  0.00  0.00    +0.159 HD
ATOM      8  H   UNL     1       3.379   1.740  -9.915  0.00  0.00    +0.159 HD
ATOM      9  H   UNL     1       2.582   2.462 -11.257  0.00  0.00    +0.159 HD
ENDROOT
BRANCH   1  10
ATOM     10  C   UNL     1       5.217  -0.053  -9.911  0.00  0.00    +0.151 C 
BRANCH  10  11
ATOM     11  C   UNL     1       6.353  -1.034  -9.813  0.00  0.00    -0.028 A 
ATOM     12  C   UNL     1       6.430  -1.930  -8.737  0.00  0.00    +0.005 A 
ATOM     13  C   UNL     1       7.353  -1.076 -10.797  0.00  0.00    +0.005 A 
ATOM     14  C   UNL     1       7.469  -2.861  -8.661  0.00  0.00    +0.000 A 
ATOM     15  C   UNL     1       8.389  -2.007 -10.718  0.00  0.00    +0.000 A 
ATOM     16  C   UNL     1       8.445  -2.900  -9.651  0.00  0.00    +0.000 A 
ENDBRANCH  10  11
ENDBRANCH   1  10
TORSDOF 2
ENDMDL
MODEL 5
REMARK VINA RESULT:    -4.726      6.880      8.044
REMARK INTER + INTRA:          -5.417
REMARK INTER:                  -5.275
REMARK INTRA:                  -0.142
REMARK UNBOUND:                -0.138
REMARK  Name = 1550473
REMARK  2 active torsions:
REMARK  status: ('A' for Active; 'I' for Inactive)
REMARK    1  A    between atoms: N_1  and  C_4
REMARK    2  A    between atoms: C_4  and  C_5
REMARK                            x       y       z     vdW  Elec       q    Type
REMARK                         _______ _______ _______ _____ _____    ______ ____
ROOT
ATOM      1  N   UNL     1      11.671  10.863  -8.062  0.00  0.00    -0.354 N 
ATOM      2  N   UNL     1      12.374  11.576  -5.973  0.00  0.00    -0.372 N 
ATOM      3  N   UNL     1      10.834  12.836  -7.115  0.00  0.00    -0.372 N 
ATOM      4  C   UNL     1      11.620  11.756  -7.064  0.00  0.00    +0.166 C 
ATOM      5  H   UNL     1      12.310  10.081  -7.976  0.00  0.00    +0.163 HD
ATOM      6  H   UNL     1      12.354  12.231  -5.203  0.00  0.00    +0.159 HD
ATOM      7  H   UNL     1      12.977  10.769  -5.870  0.00  0.00    +0.159 HD
ATOM      8  H   UNL     1      10.245  13.033  -7.913  0.00  0.00    +0.159 HD
ATOM      9  H   UNL     1      10.808  13.509  -6.359  0.00  0.00    +0.159 HD
ENDROOT
BRANCH   1  10
ATOM     10  C   UNL     1      10.851  10.938  -9.269  0.00  0.00    +0.151 C 
BRANCH  10  11
ATOM     11  C   UNL     1      10.237   9.591  -9.531  0.00  0.00    -0.028 A 
ATOM     12  C   UNL     1      10.515   8.506  -8.687  0.00  0.00    +0.005 A 
ATOM     13  C   UNL     1       9.373   9.393 -10.619  0.00  0.00    +0.005 A 
ATOM     14  C   UNL     1       9.921   7.261  -8.912  0.00  0.00    +0.000 A 
ATOM     15  C   UNL     1       8.783   8.149 -10.841  0.00  0.00    +0.000 A 
ATOM     16  C   UNL     1       9.056   7.084  -9.986  0.00  0.00    +0.000 A 
ENDBRANCH  10  11
ENDBRANCH   1  10
TORSDOF 2
ENDMDL
MODEL 6
REMARK VINA RESULT:    -4.701     18.488     19.427
REMARK INTER + INTRA:          -5.389
REMARK INTER:                  -5.271
REMARK INTRA:                  -0.118
REMARK UNBOUND:                -0.138
REMARK  Name = 1550473
REMARK  2 active torsions:
REMARK  status: ('A' for Active; 'I' for Inactive)
REMARK    1  A    between atoms: N_1  and  C_4
REMARK    2  A    between atoms: C_4  and  C_5
REMARK                            x       y       z     vdW  Elec       q    Type
REMARK                         _______ _______ _______ _____ _____    ______ ____
ROOT
ATOM      1  N   UNL     1      -5.330  15.445   1.374  0.00  0.00    -0.354 N 
ATOM      2  N   UNL     1      -4.259  14.371   3.124  0.00  0.00    -0.372 N 
ATOM      3  N   UNL     1      -3.036  15.745   1.752  0.00  0.00    -0.372 N 
ATOM      4  C   UNL     1      -4.213  15.195   2.071  0.00  0.00    +0.166 C 
ATOM      5  H   UNL     1      -6.184  14.973   1.648  0.00  0.00    +0.163 HD
ATOM      6  H   UNL     1      -3.433  14.166   3.671  0.00  0.00    +0.159 HD
ATOM      7  H   UNL     1      -5.123  13.937   3.424  0.00  0.00    +0.159 HD
ATOM      8  H   UNL     1      -2.933  16.371   0.964  0.00  0.00    +0.159 HD
ATOM      9  H   UNL     1      -2.196  15.543   2.280  0.00  0.00    +0.159 HD
ENDROOT
BRANCH   1  10
ATOM     10  C   UNL     1      -5.398  16.369   0.243  0.00  0.00    +0.151 C 
BRANCH  10  11
ATOM     11  C   UNL     1      -6.522  15.951  -0.665  0.00  0.00    -0.028 A 
ATOM     12  C   UNL     1      -6.604  14.632  -1.135  0.00  0.00    +0.005 A 
ATOM     13  C   UNL     1      -7.510  16.868  -1.055  0.00  0.00    +0.005 A 
ATOM     14  C   UNL     1      -7.664  14.236  -1.954  0.00  0.00    +0.000 A 
ATOM     15  C   UNL     1      -8.566  16.469  -1.874  0.00  0.00    +0.000 A 
ATOM     16  C   UNL     1      -8.644  15.152  -2.321  0.00  0.00    +0.000 A 
ENDBRANCH  10  11
ENDBRANCH   1  10
TORSDOF 2
ENDMDL
MODEL 7
REMARK VINA RESULT:    -4.637     26.159     27.236
REMARK INTER + INTRA:          -5.318
REMARK INTER:                  -5.190
REMARK INTRA:                  -0.127
REMARK UNBOUND:                -0.138
REMARK  Name = 1550473
REMARK  2 active torsions:
REMARK  status: ('A' for Active; 'I' for Inactive)
REMARK    1  A    between atoms: N_1  and  C_4
REMARK    2  A    between atoms: C_4  and  C_5
REMARK                            x       y       z     vdW  Elec       q    Type
REMARK                         _______ _______ _______ _____ _____    ______ ____
ROOT
ATOM      1  N   UNL     1     -17.476  10.034   1.137  0.00  0.00    -0.354 N 
ATOM      2  N   UNL     1     -16.015  11.682   0.419  0.00  0.00    -0.372 N 
ATOM      3  N   UNL     1     -16.927  11.845   2.519  0.00  0.00    -0.372 N 
ATOM      4  C   UNL     1     -16.816  11.177   1.365  0.00  0.00    +0.166 C 
ATOM      5  H   UNL     1     -17.373   9.592   0.230  0.00  0.00    +0.163 HD
ATOM      6  H   UNL     1     -15.502  12.541   0.564  0.00  0.00    +0.159 HD
ATOM      7  H   UNL     1     -15.879  11.214  -0.468  0.00  0.00    +0.159 HD
ATOM      8  H   UNL     1     -17.519  11.520   3.271  0.00  0.00    +0.159 HD
ATOM      9  H   UNL     1     -16.430  12.713   2.679  0.00  0.00    +0.159 HD
ENDROOT
BRANCH   1  10
ATOM     10  C   UNL     1     -18.330   9.372   2.121  0.00  0.00    +0.151 C 
BRANCH  10  11
ATOM     11  C   UNL     1     -18.448   7.915   1.768  0.00  0.00    -0.028 A 
ATOM     12  C   UNL     1     -19.428   7.113   2.372  0.00  0.00    +0.005 A 
ATOM     13  C   UNL     1     -17.587   7.331   0.826  0.00  0.00    +0.005 A 
ATOM     14  C   UNL     1     -19.557   5.767   2.023  0.00  0.00    +0.000 A 
ATOM     15  C   UNL     1     -17.719   5.986   0.481  0.00  0.00    +0.000 A 
ATOM     16  C   UNL     1     -18.705   5.205   1.077  0.00  0.00    +0.000 A 
ENDBRANCH  10  11
ENDBRANCH   1  10
TORSDOF 2
ENDMDL
MODEL 8
REMARK VINA RESULT:    -4.482     22.503     23.459
REMARK INTER + INTRA:          -5.145
REMARK INTER:                  -5.022
REMARK INTRA:                  -0.122
REMARK UNBOUND:                -0.138
REMARK  Name = 1550473
REMARK  2 active torsions:
REMARK  status: ('A' for Active; 'I' for Inactive)
REMARK    1  A    between atoms: N_1  and  C_4
REMARK    2  A    between atoms: C_4  and  C_5
REMARK                            x       y       z     vdW  Elec       q    Type
REMARK                         _______ _______ _______ _____ _____    ______ ____
ROOT
ATOM      1  N   UNL     1       3.336  15.561  13.837  0.00  0.00    -0.354 N 
ATOM      2  N   UNL     1       3.536  15.903  16.119  0.00  0.00    -0.372 N 
ATOM      3  N   UNL     1       2.674  13.914  15.367  0.00  0.00    -0.372 N 
ATOM      4  C   UNL     1       3.179  15.121  15.093  0.00  0.00    +0.166 C 
ATOM      5  H   UNL     1       3.697  16.498  13.697  0.00  0.00    +0.163 HD
ATOM      6  H   UNL     1       3.433  15.596  17.078  0.00  0.00    +0.159 HD
ATOM      7  H   UNL     1       3.939  16.820  15.975  0.00  0.00    +0.159 HD
ATOM      8  H   UNL     1       2.380  13.278  14.638  0.00  0.00    +0.159 HD
ATOM      9  H   UNL     1       2.552  13.594  16.320  0.00  0.00    +0.159 HD
ENDROOT
BRANCH   1  10
ATOM     10  C   UNL     1       3.029  14.767  12.649  0.00  0.00    +0.151 C 
BRANCH  10  11
ATOM     11  C   UNL     1       2.339  15.642  11.639  0.00  0.00    -0.028 A 
ATOM     12  C   UNL     1       2.749  16.970  11.449  0.00  0.00    +0.005 A 
ATOM     13  C   UNL     1       1.278  15.147  10.865  0.00  0.00    +0.005 A 
ATOM     14  C   UNL     1       2.128  17.774  10.490  0.00  0.00    +0.000 A 
ATOM     15  C   UNL     1       0.660  15.953   9.909  0.00  0.00    +0.000 A 
ATOM     16  C   UNL     1       1.087  17.265   9.720  0.00  0.00    +0.000 A 
ENDBRANCH  10  11
ENDBRANCH   1  10
TORSDOF 2
ENDMDL
MODEL 9
REMARK VINA RESULT:    -4.450      1.552      2.574
REMARK INTER + INTRA:          -5.109
REMARK INTER:                  -4.948
REMARK INTRA:                  -0.161
REMARK UNBOUND:                -0.138
REMARK  Name = 1550473
REMARK  2 active torsions:
REMARK  status: ('A' for Active; 'I' for Inactive)
REMARK    1  A    between atoms: N_1  and  C_4
REMARK    2  A    between atoms: C_4  and  C_5
REMARK                            x       y       z     vdW  Elec       q    Type
REMARK                         _______ _______ _______ _____ _____    ______ ____
ROOT
ATOM      1  N   UNL     1       6.451   4.187  -6.329  0.00  0.00    -0.354 N 
ATOM      2  N   UNL     1       4.747   4.742  -4.861  0.00  0.00    -0.372 N 
ATOM      3  N   UNL     1       4.950   2.563  -5.551  0.00  0.00    -0.372 N 
ATOM      4  C   UNL     1       5.393   3.824  -5.590  0.00  0.00    +0.166 C 
ATOM      5  H   UNL     1       6.718   5.164  -6.339  0.00  0.00    +0.163 HD
ATOM      6  H   UNL     1       3.948   4.497  -4.291  0.00  0.00    +0.159 HD
ATOM      7  H   UNL     1       5.045   5.710  -4.837  0.00  0.00    +0.159 HD
ATOM      8  H   UNL     1       5.390   1.824  -6.084  0.00  0.00    +0.159 HD
ATOM      9  H   UNL     1       4.145   2.301  -4.997  0.00  0.00    +0.159 HD
ENDROOT
BRANCH   1  10
ATOM     10  C   UNL     1       7.256   3.255  -7.117  0.00  0.00    +0.151 C 
BRANCH  10  11
ATOM     11  C   UNL     1       7.176   3.642  -8.568  0.00  0.00    -0.028 A 
ATOM     12  C   UNL     1       5.987   3.459  -9.289  0.00  0.00    +0.005 A 
ATOM     13  C   UNL     1       8.283   4.198  -9.226  0.00  0.00    +0.005 A 
ATOM     14  C   UNL     1       5.902   3.846 -10.628  0.00  0.00    +0.000 A 
ATOM     15  C   UNL     1       8.195   4.583 -10.564  0.00  0.00    +0.000 A 
ATOM     16  C   UNL     1       7.004   4.408 -11.264  0.00  0.00    +0.000 A 
ENDBRANCH  10  11
ENDBRANCH   1  10
TORSDOF 2
ENDMDL
