MODEL 1
REMARK VINA RESULT:    -5.210      0.000      0.000
REMARK INTER + INTRA:          -5.980
REMARK INTER:                  -5.820
REMARK INTRA:                  -0.161
REMARK UNBOUND:                -0.161
REMARK  Name = 1550473
REMARK  2 active torsions:
REMARK  status: ('A' for Active; 'I' for Inactive)
REMARK    1  A    between atoms: N_1  and  C_4
REMARK    2  A    between atoms: C_4  and  C_5
REMARK                            x       y       z     vdW  Elec       q    Type
REMARK                         _______ _______ _______ _____ _____    ______ ____
ROOT
ATOM      1  N   UNL     1     -19.946   1.908   2.202  0.00  0.00    -0.354 N 
ATOM      2  N   UNL     1     -20.262   2.177  -0.076  0.00  0.00    -0.372 N 
ATOM      3  N   UNL     1     -21.981   2.699   1.352  0.00  0.00    -0.372 N 
ATOM      4  C   UNL     1     -20.730   2.260   1.175  0.00  0.00    +0.166 C 
ATOM      5  H   UNL     1     -19.017   1.555   2.000  0.00  0.00    +0.163 HD
ATOM      6  H   UNL     1     -20.830   2.440  -0.871  0.00  0.00    +0.159 HD
ATOM      7  H   UNL     1     -19.318   1.868  -0.272  0.00  0.00    +0.159 HD
ATOM      8  H   UNL     1     -22.396   2.779   2.271  0.00  0.00    +0.159 HD
ATOM      9  H   UNL     1     -22.569   2.955   0.568  0.00  0.00    +0.159 HD
ENDROOT
BRANCH   1  10
ATOM     10  C   UNL     1     -20.341   2.012   3.606  0.00  0.00    +0.151 C 
BRANCH  10  11
ATOM     11  C   UNL     1     -19.623   3.175   4.233  0.00  0.00    -0.028 A 
ATOM     12  C   UNL     1     -18.332   3.526   3.814  0.00  0.00    +0.005 A 
ATOM     13  C   UNL     1     -20.232   3.934   5.245  0.00  0.00    +0.005 A 
ATOM     14  C   UNL     1     -17.677   4.624   4.375  0.00  0.00    +0.000 A 
ATOM     15  C   UNL     1     -19.575   5.030   5.803  0.00  0.00    +0.000 A 
ATOM     16  C   UNL     1     -18.298   5.376   5.367  0.00  0.00    +0.000 A 
ENDBRANCH  10  11
ENDBRANCH   1  10
TORSDOF 2
ENDMDL
MODEL 2
REMARK VINA RESULT:    -5.097     33.145     34.227
REMARK INTER + INTRA:          -5.853
REMARK INTER:                  -5.741
REMARK INTRA:                  -0.112
REMARK UNBOUND:                -0.161
REMARK  Name = 1550473
REMARK  2 active torsions:
REMARK  status: ('A' for Active; 'I' for Inactive)
REMARK    1  A    between atoms: N_1  and  C_4
REMARK    2  A    between atoms: C_4  and  C_5
REMARK                            x       y       z     vdW  Elec       q    Type
REMARK                         _______ _______ _______ _____ _____    ______ ____
ROOT
ATOM      1  N   UNL     1       7.512 -12.407  -6.697  0.00  0.00    -0.354 N 
ATOM      2  N   UNL     1       7.633 -10.123  -6.337  0.00  0.00    -0.372 N 
ATOM      3  N   UNL     1       9.279 -11.470  -5.475  0.00  0.00    -0.372 N 
ATOM      4  C   UNL     1       8.143 -11.349  -6.170  0.00  0.00    +0.166 C 
ATOM      5  H   UNL     1       6.639 -12.252  -7.188  0.00  0.00    +0.163 HD
ATOM      6  H   UNL     1       8.089  -9.305  -5.954  0.00  0.00    +0.159 HD
ATOM      7  H   UNL     1       6.785  -9.966  -6.867  0.00  0.00    +0.159 HD
ATOM      8  H   UNL     1       9.711 -12.368  -5.309  0.00  0.00    +0.159 HD
ATOM      9  H   UNL     1       9.743 -10.664  -5.074  0.00  0.00    +0.159 HD
ENDROOT
BRANCH   1  10
ATOM     10  C   UNL     1       8.012 -13.779  -6.619  0.00  0.00    +0.151 C 
BRANCH  10  11
ATOM     11  C   UNL     1       7.382 -14.594  -7.714  0.00  0.00    -0.028 A 
ATOM     12  C   UNL     1       6.678 -15.769  -7.412  0.00  0.00    +0.005 A 
ATOM     13  C   UNL     1       7.480 -14.194  -9.056  0.00  0.00    +0.005 A 
ATOM     14  C   UNL     1       6.067 -16.511  -8.426  0.00  0.00    +0.000 A 
ATOM     15  C   UNL     1       6.869 -14.938 -10.065  0.00  0.00    +0.000 A 
ATOM     16  C   UNL     1       6.161 -16.095  -9.750  0.00  0.00    +0.000 A 
ENDBRANCH  10  11
ENDBRANCH   1  10
TORSDOF 2
ENDMDL
MODEL 3
REMARK VINA RESULT:    -5.075     22.424     23.854
REMARK INTER + INTRA:          -5.828
REMARK INTER:                  -5.685
REMARK INTRA:                  -0.144
REMARK UNBOUND:                -0.161
REMARK  Name = 1550473
REMARK  2 active torsions:
REMARK  status: ('A' for Active; 'I' for Inactive)
REMARK    1  A    between atoms: N_1  and  C_4
REMARK    2  A    between atoms: C_4  and  C_5
REMARK                            x       y       z     vdW  Elec       q    Type
REMARK                         _______ _______ _______ _____ _____    ______ ____
ROOT
ATOM      1  N   UNL     1       0.181  13.759   8.359  0.00  0.00    -0.354 N 
ATOM      2  N   UNL     1      -0.727  15.560   9.498  0.00  0.00    -0.372 N 
ATOM      3  N   UNL     1      -1.649  14.939   7.491  0.00  0.00    -0.372 N 
ATOM      4  C   UNL     1      -0.727  14.741   8.439  0.00  0.00    +0.166 C 
ATOM      5  H   UNL     1       0.872  13.681   9.096  0.00  0.00    +0.163 HD
ATOM      6  H   UNL     1      -1.402  16.308   9.589  0.00  0.00    +0.159 HD
ATOM      7  H   UNL     1      -0.064  15.451  10.256  0.00  0.00    +0.159 HD
ATOM      8  H   UNL     1      -1.699  14.359   6.664  0.00  0.00    +0.159 HD
ATOM      9  H   UNL     1      -2.326  15.689   7.558  0.00  0.00    +0.159 HD
ENDROOT
BRANCH   1  10
ATOM     10  C   UNL     1       0.232  12.780   7.274  0.00  0.00    +0.151 C 
BRANCH  10  11
ATOM     11  C   UNL     1       1.340  13.153   6.328  0.00  0.00    -0.028 A 
ATOM     12  C   UNL     1       1.319  12.711   4.997  0.00  0.00    +0.005 A 
ATOM     13  C   UNL     1       2.411  13.953   6.755  0.00  0.00    +0.005 A 
ATOM     14  C   UNL     1       2.333  13.081   4.110  0.00  0.00    +0.000 A 
ATOM     15  C   UNL     1       3.422  14.320   5.867  0.00  0.00    +0.000 A 
ATOM     16  C   UNL     1       3.381  13.886   4.544  0.00  0.00    +0.000 A 
ENDBRANCH  10  11
ENDBRANCH   1  10
TORSDOF 2
ENDMDL
MODEL 4
REMARK VINA RESULT:    -4.830     23.751     24.251
REMARK INTER + INTRA:          -5.556
REMARK INTER:                  -5.435
REMARK INTRA:                  -0.121
REMARK UNBOUND:                -0.161
REMARK  Name = 1550473
REMARK  2 active torsions:
REMARK  status: ('A' for Active; 'I' for Inactive)
REMARK    1  A    between atoms: N_1  and  C_4
REMARK    2  A    between atoms: C_4  and  C_5
REMARK                            x       y       z     vdW  Elec       q    Type
REMARK                         _______ _______ _______ _____ _____    ______ ____
ROOT
ATOM      1  N   UNL     1      -1.599  -1.279  17.994  0.00  0.00    -0.354 N 
ATOM      2  N   UNL     1      -2.932  -2.252  19.619  0.00  0.00    -0.372 N 
ATOM      3  N   UNL     1      -1.171  -3.450  18.766  0.00  0.00    -0.372 N 
ATOM      4  C   UNL     1      -1.890  -2.323  18.782  0.00  0.00    +0.166 C 
ATOM      5  H   UNL     1      -2.201  -0.465  18.032  0.00  0.00    +0.163 HD
ATOM      6  H   UNL     1      -3.174  -3.022  20.228  0.00  0.00    +0.159 HD
ATOM      7  H   UNL     1      -3.505  -1.420  19.688  0.00  0.00    +0.159 HD
ATOM      8  H   UNL     1      -0.376  -3.569  18.153  0.00  0.00    +0.159 HD
ATOM      9  H   UNL     1      -1.404  -4.236  19.360  0.00  0.00    +0.159 HD
ENDROOT
BRANCH   1  10
ATOM     10  C   UNL     1      -0.454  -1.234  17.086  0.00  0.00    +0.151 C 
BRANCH  10  11
ATOM     11  C   UNL     1      -0.057   0.199  16.867  0.00  0.00    -0.028 A 
ATOM     12  C   UNL     1       0.246   0.665  15.580  0.00  0.00    +0.005 A 
ATOM     13  C   UNL     1       0.013   1.098  17.943  0.00  0.00    +0.005 A 
ATOM     14  C   UNL     1       0.586   2.004  15.372  0.00  0.00    +0.000 A 
ATOM     15  C   UNL     1       0.354   2.434  17.731  0.00  0.00    +0.000 A 
ATOM     16  C   UNL     1       0.638   2.887  16.445  0.00  0.00    +0.000 A 
ENDBRANCH  10  11
ENDBRANCH   1  10
TORSDOF 2
ENDMDL
MODEL 5
REMARK VINA RESULT:    -4.632     25.634     26.189
REMARK INTER + INTRA:          -5.334
REMARK INTER:                  -5.213
REMARK INTRA:                  -0.121
REMARK UNBOUND:                -0.161
REMARK  Name = 1550473
REMARK  2 active torsions:
REMARK  status: ('A' for Active; 'I' for Inactive)
REMARK    1  A    between atoms: N_1  and  C_4
REMARK    2  A    between atoms: C_4  and  C_5
REMARK                            x       y       z     vdW  Elec       q    Type
REMARK                         _______ _______ _______ _____ _____    ______ ____
ROOT
ATOM      1  N   UNL     1      -7.686 -18.745  -1.685  0.00  0.00    -0.354 N 
ATOM      2  N   UNL     1      -5.867 -17.321  -1.854  0.00  0.00    -0.372 N 
ATOM      3  N   UNL     1      -5.497 -19.581  -1.715  0.00  0.00    -0.372 N 
ATOM      4  C   UNL     1      -6.361 -18.561  -1.750  0.00  0.00    +0.166 C 
ATOM      5  H   UNL     1      -8.286 -17.928  -1.686  0.00  0.00    +0.163 HD
ATOM      6  H   UNL     1      -4.872 -17.152  -1.909  0.00  0.00    +0.159 HD
ATOM      7  H   UNL     1      -6.471 -16.510  -1.902  0.00  0.00    +0.159 HD
ATOM      8  H   UNL     1      -5.805 -20.541  -1.631  0.00  0.00    +0.159 HD
ATOM      9  H   UNL     1      -4.497 -19.431  -1.756  0.00  0.00    +0.159 HD
ENDROOT
BRANCH   1  10
ATOM     10  C   UNL     1      -8.327 -20.057  -1.623  0.00  0.00    +0.151 C 
BRANCH  10  11
ATOM     11  C   UNL     1      -9.676 -19.976  -2.283  0.00  0.00    -0.028 A 
ATOM     12  C   UNL     1      -9.815 -19.391  -3.551  0.00  0.00    +0.005 A 
ATOM     13  C   UNL     1     -10.819 -20.487  -1.649  0.00  0.00    +0.005 A 
ATOM     14  C   UNL     1     -11.062 -19.343  -4.177  0.00  0.00    +0.000 A 
ATOM     15  C   UNL     1     -12.063 -20.436  -2.277  0.00  0.00    +0.000 A 
ATOM     16  C   UNL     1     -12.184 -19.866  -3.542  0.00  0.00    +0.000 A 
ENDBRANCH  10  11
ENDBRANCH   1  10
TORSDOF 2
ENDMDL
MODEL 6
REMARK VINA RESULT:    -4.577     33.124     34.197
REMARK INTER + INTRA:          -5.273
REMARK INTER:                  -5.153
REMARK INTRA:                  -0.120
REMARK UNBOUND:                -0.161
REMARK  Name = 1550473
REMARK  2 active torsions:
REMARK  status: ('A' for Active; 'I' for Inactive)
REMARK    1  A    between atoms: N_1  and  C_4
REMARK    2  A    between atoms: C_4  and  C_5
REMARK                            x       y       z     vdW  Elec       q    Type
REMARK                         _______ _______ _______ _____ _____    ______ ____
ROOT
ATOM      1  N   UNL     1       8.859  -9.494  -6.633  0.00  0.00    -0.354 N 
ATOM      2  N   UNL     1       8.844  -8.524  -4.530  0.00  0.00    -0.372 N 
ATOM      3  N   UNL     1       8.040 -10.660  -4.772  0.00  0.00    -0.372 N 
ATOM      4  C   UNL     1       8.580  -9.568  -5.325  0.00  0.00    +0.166 C 
ATOM      5  H   UNL     1       9.239  -8.628  -6.996  0.00  0.00    +0.163 HD
ATOM      6  H   UNL     1       8.648  -8.552  -3.538  0.00  0.00    +0.159 HD
ATOM      7  H   UNL     1       9.267  -7.676  -4.887  0.00  0.00    +0.159 HD
ATOM      8  H   UNL     1       7.811 -11.479  -5.318  0.00  0.00    +0.159 HD
ATOM      9  H   UNL     1       7.826 -10.702  -3.783  0.00  0.00    +0.159 HD
ENDROOT
BRANCH   1  10
ATOM     10  C   UNL     1       8.659 -10.594  -7.575  0.00  0.00    +0.151 C 
BRANCH  10  11
ATOM     11  C   UNL     1       9.285 -10.232  -8.893  0.00  0.00    -0.028 A 
ATOM     12  C   UNL     1       9.540  -8.891  -9.216  0.00  0.00    +0.005 A 
ATOM     13  C   UNL     1       9.632 -11.225  -9.822  0.00  0.00    +0.005 A 
ATOM     14  C   UNL     1      10.149  -8.556 -10.427  0.00  0.00    +0.000 A 
ATOM     15  C   UNL     1      10.239 -10.887 -11.031  0.00  0.00    +0.000 A 
ATOM     16  C   UNL     1      10.500  -9.552 -11.332  0.00  0.00    +0.000 A 
ENDBRANCH  10  11
ENDBRANCH   1  10
TORSDOF 2
ENDMDL
MODEL 7
REMARK VINA RESULT:    -4.575      3.842      5.236
REMARK INTER + INTRA:          -5.271
REMARK INTER:                  -5.169
REMARK INTRA:                  -0.101
REMARK UNBOUND:                -0.161
REMARK  Name = 1550473
REMARK  2 active torsions:
REMARK  status: ('A' for Active; 'I' for Inactive)
REMARK    1  A    between atoms: N_1  and  C_4
REMARK    2  A    between atoms: C_4  and  C_5
REMARK                            x       y       z     vdW  Elec       q    Type
REMARK                         _______ _______ _______ _____ _____    ______ ____
ROOT
ATOM      1  N   UNL     1     -21.664   4.825   7.195  0.00  0.00    -0.354 N 
ATOM      2  N   UNL     1     -22.963   3.506   8.587  0.00  0.00    -0.372 N 
ATOM      3  N   UNL     1     -20.946   4.283   9.359  0.00  0.00    -0.372 N 
ATOM      4  C   UNL     1     -21.847   4.214   8.373  0.00  0.00    +0.166 C 
ATOM      5  H   UNL     1     -22.371   4.709   6.478  0.00  0.00    +0.163 HD
ATOM      6  H   UNL     1     -23.130   3.037   9.467  0.00  0.00    +0.159 HD
ATOM      7  H   UNL     1     -23.689   3.430   7.885  0.00  0.00    +0.159 HD
ATOM      8  H   UNL     1     -20.080   4.795   9.258  0.00  0.00    +0.159 HD
ATOM      9  H   UNL     1     -21.090   3.810  10.242  0.00  0.00    +0.159 HD
ENDROOT
BRANCH   1  10
ATOM     10  C   UNL     1     -20.509   5.664   6.879  0.00  0.00    +0.151 C 
BRANCH  10  11
ATOM     11  C   UNL     1     -19.624   4.935   5.907  0.00  0.00    -0.028 A 
ATOM     12  C   UNL     1     -19.971   3.655   5.449  0.00  0.00    +0.005 A 
ATOM     13  C   UNL     1     -18.440   5.521   5.434  0.00  0.00    +0.005 A 
ATOM     14  C   UNL     1     -19.165   2.990   4.522  0.00  0.00    +0.000 A 
ATOM     15  C   UNL     1     -17.637   4.853   4.509  0.00  0.00    +0.000 A 
ATOM     16  C   UNL     1     -18.001   3.589   4.052  0.00  0.00    +0.000 A 
ENDBRANCH  10  11
ENDBRANCH   1  10
TORSDOF 2
ENDMDL
MODEL 8
REMARK VINA RESULT:    -4.441      1.945      2.803
REMARK INTER + INTRA:          -5.121
REMARK INTER:                  -4.983
REMARK INTRA:                  -0.138
REMARK UNBOUND:                -0.161
REMARK  Name = 1550473
REMARK  2 active torsions:
REMARK  status: ('A' for Active; 'I' for Inactive)
REMARK    1  A    between atoms: N_1  and  C_4
REMARK    2  A    between atoms: C_4  and  C_5
REMARK                            x       y       z     vdW  Elec       q    Type
REMARK                         _______ _______ _______ _____ _____    ______ ____
ROOT
ATOM      1  N   UNL     1     -19.339   4.305  -0.066  0.00  0.00    -0.354 N 
ATOM      2  N   UNL     1     -18.478   3.862  -2.170  0.00  0.00    -0.372 N 
ATOM      3  N   UNL     1     -19.928   2.355  -1.225  0.00  0.00    -0.372 N 
ATOM      4  C   UNL     1     -19.255   3.508  -1.139  0.00  0.00    +0.166 C 
ATOM      5  H   UNL     1     -18.780   5.150  -0.049  0.00  0.00    +0.163 HD
ATOM      6  H   UNL     1     -18.398   3.283  -2.995  0.00  0.00    +0.159 HD
ATOM      7  H   UNL     1     -17.957   4.731  -2.170  0.00  0.00    +0.159 HD
ATOM      8  H   UNL     1     -20.527   2.028  -0.479  0.00  0.00    +0.159 HD
ATOM      9  H   UNL     1     -19.851   1.756  -2.038  0.00  0.00    +0.159 HD
ENDROOT
BRANCH   1  10
ATOM     10  C   UNL     1     -20.198   4.037   1.086  0.00  0.00    +0.151 C 
BRANCH  10  11
ATOM     11  C   UNL     1     -19.365   4.068   2.338  0.00  0.00    -0.028 A 
ATOM     12  C   UNL     1     -19.665   3.219   3.414  0.00  0.00    +0.005 A 
ATOM     13  C   UNL     1     -18.271   4.939   2.453  0.00  0.00    +0.005 A 
ATOM     14  C   UNL     1     -18.873   3.225   4.565  0.00  0.00    +0.000 A 
ATOM     15  C   UNL     1     -17.484   4.944   3.604  0.00  0.00    +0.000 A 
ATOM     16  C   UNL     1     -17.784   4.085   4.659  0.00  0.00    +0.000 A 
ENDBRANCH  10  11
ENDBRANCH   1  10
TORSDOF 2
ENDMDL
MODEL 9
REMARK VINA RESULT:    -4.392     21.315     22.889
REMARK INTER + INTRA:          -5.066
REMARK INTER:                  -4.927
REMARK INTRA:                  -0.140
REMARK UNBOUND:                -0.161
REMARK  Name = 1550473
REMARK  2 active torsions:
REMARK  status: ('A' for Active; 'I' for Inactive)
REMARK    1  A    between atoms: N_1  and  C_4
REMARK    2  A    between atoms: C_4  and  C_5
REMARK                            x       y       z     vdW  Elec       q    Type
REMARK                         _______ _______ _______ _____ _____    ______ ____
ROOT
ATOM      1  N   UNL     1      -1.948  14.855   4.808  0.00  0.00    -0.354 N 
ATOM      2  N   UNL     1      -3.415  16.639   4.982  0.00  0.00    -0.372 N 
ATOM      3  N   UNL     1      -2.741  15.567   6.895  0.00  0.00    -0.372 N 
ATOM      4  C   UNL     1      -2.691  15.675   5.563  0.00  0.00    +0.166 C 
ATOM      5  H   UNL     1      -1.977  14.970   3.801  0.00  0.00    +0.163 HD
ATOM      6  H   UNL     1      -3.983  17.274   5.526  0.00  0.00    +0.159 HD
ATOM      7  H   UNL     1      -3.406  16.780   3.979  0.00  0.00    +0.159 HD
ATOM      8  H   UNL     1      -2.222  14.856   7.394  0.00  0.00    +0.159 HD
ATOM      9  H   UNL     1      -3.312  16.186   7.456  0.00  0.00    +0.159 HD
ENDROOT
BRANCH   1  10
ATOM     10  C   UNL     1      -1.082  13.808   5.346  0.00  0.00    +0.151 C 
BRANCH  10  11
ATOM     11  C   UNL     1       0.309  13.993   4.804  0.00  0.00    -0.028 A 
ATOM     12  C   UNL     1       1.298  13.026   5.037  0.00  0.00    +0.005 A 
ATOM     13  C   UNL     1       0.642  15.130   4.052  0.00  0.00    +0.005 A 
ATOM     14  C   UNL     1       2.582  13.184   4.509  0.00  0.00    +0.000 A 
ATOM     15  C   UNL     1       1.925  15.283   3.528  0.00  0.00    +0.000 A 
ATOM     16  C   UNL     1       2.894  14.309   3.754  0.00  0.00    +0.000 A 
ENDBRANCH  10  11
ENDBRANCH   1  10
TORSDOF 2
ENDMDL
