MODEL 1
REMARK VINA RESULT:    -4.762      0.000      0.000
REMARK INTER + INTRA:          -5.430
REMARK INTER:                  -5.319
REMARK INTRA:                  -0.111
REMARK UNBOUND:                -0.111
REMARK  Name = 1550473
REMARK  2 active torsions:
REMARK  status: ('A' for Active; 'I' for Inactive)
REMARK    1  A    between atoms: N_1  and  C_4
REMARK    2  A    between atoms: C_4  and  C_5
REMARK                            x       y       z     vdW  Elec       q    Type
REMARK                         _______ _______ _______ _____ _____    ______ ____
ROOT
ATOM      1  N   UNL     1      35.575  56.266  43.922  0.00  0.00    -0.354 N 
ATOM      2  N   UNL     1      37.071  55.463  42.346  0.00  0.00    -0.372 N 
ATOM      3  N   UNL     1      35.447  54.056  43.152  0.00  0.00    -0.372 N 
ATOM      4  C   UNL     1      36.020  55.265  43.151  0.00  0.00    +0.166 C 
ATOM      5  H   UNL     1      36.071  57.150  43.897  0.00  0.00    +0.163 HD
ATOM      6  H   UNL     1      37.427  54.728  41.751  0.00  0.00    +0.159 HD
ATOM      7  H   UNL     1      37.537  56.361  42.290  0.00  0.00    +0.159 HD
ATOM      8  H   UNL     1      34.654  53.840  43.741  0.00  0.00    +0.159 HD
ATOM      9  H   UNL     1      35.796  53.304  42.572  0.00  0.00    +0.159 HD
ENDROOT
BRANCH   1  10
ATOM     10  C   UNL     1      34.405  56.170  44.793  0.00  0.00    +0.151 C 
BRANCH  10  11
ATOM     11  C   UNL     1      33.745  57.518  44.880  0.00  0.00    -0.028 A 
ATOM     12  C   UNL     1      34.507  58.670  45.125  0.00  0.00    +0.005 A 
ATOM     13  C   UNL     1      32.358  57.652  44.712  0.00  0.00    +0.005 A 
ATOM     14  C   UNL     1      33.898  59.926  45.176  0.00  0.00    +0.000 A 
ATOM     15  C   UNL     1      31.754  58.908  44.764  0.00  0.00    +0.000 A 
ATOM     16  C   UNL     1      32.525  60.045  44.994  0.00  0.00    +0.000 A 
ENDBRANCH  10  11
ENDBRANCH   1  10
TORSDOF 2
ENDMDL
MODEL 2
REMARK VINA RESULT:    -4.760    106.802    108.228
REMARK INTER + INTRA:          -5.427
REMARK INTER:                  -5.277
REMARK INTRA:                  -0.150
REMARK UNBOUND:                -0.111
REMARK  Name = 1550473
REMARK  2 active torsions:
REMARK  status: ('A' for Active; 'I' for Inactive)
REMARK    1  A    between atoms: N_1  and  C_4
REMARK    2  A    between atoms: C_4  and  C_5
REMARK                            x       y       z     vdW  Elec       q    Type
REMARK                         _______ _______ _______ _____ _____    ______ ____
ROOT
ATOM      1  N   UNL     1     -15.228 -15.626 -19.495  0.00  0.00    -0.354 N 
ATOM      2  N   UNL     1     -15.302 -14.672 -21.604  0.00  0.00    -0.372 N 
ATOM      3  N   UNL     1     -17.146 -15.797 -20.831  0.00  0.00    -0.372 N 
ATOM      4  C   UNL     1     -15.894 -15.372 -20.630  0.00  0.00    +0.166 C 
ATOM      5  H   UNL     1     -14.270 -15.303 -19.417  0.00  0.00    +0.163 HD
ATOM      6  H   UNL     1     -15.781 -14.462 -22.470  0.00  0.00    +0.159 HD
ATOM      7  H   UNL     1     -14.361 -14.310 -21.505  0.00  0.00    +0.159 HD
ATOM      8  H   UNL     1     -17.647 -16.335 -20.137  0.00  0.00    +0.159 HD
ATOM      9  H   UNL     1     -17.638 -15.607 -21.695  0.00  0.00    +0.159 HD
ENDROOT
BRANCH   1  10
ATOM     10  C   UNL     1     -15.800 -16.334 -18.352  0.00  0.00    +0.151 C 
BRANCH  10  11
ATOM     11  C   UNL     1     -16.497 -15.344 -17.460  0.00  0.00    -0.028 A 
ATOM     12  C   UNL     1     -15.795 -14.258 -16.916  0.00  0.00    +0.005 A 
ATOM     13  C   UNL     1     -17.861 -15.482 -17.160  0.00  0.00    +0.005 A 
ATOM     14  C   UNL     1     -16.450 -13.321 -16.112  0.00  0.00    +0.000 A 
ATOM     15  C   UNL     1     -18.511 -14.545 -16.356  0.00  0.00    +0.000 A 
ATOM     16  C   UNL     1     -17.805 -13.464 -15.835  0.00  0.00    +0.000 A 
ENDBRANCH  10  11
ENDBRANCH   1  10
TORSDOF 2
ENDMDL
MODEL 3
REMARK VINA RESULT:    -4.561     75.183     76.988
REMARK INTER + INTRA:          -5.205
REMARK INTER:                  -5.056
REMARK INTRA:                  -0.148
REMARK UNBOUND:                -0.111
REMARK  Name = 1550473
REMARK  2 active torsions:
REMARK  status: ('A' for Active; 'I' for Inactive)
REMARK    1  A    between atoms: N_1  and  C_4
REMARK    2  A    between atoms: C_4  and  C_5
REMARK                            x       y       z     vdW  Elec       q    Type
REMARK                         _______ _______ _______ _____ _____    ______ ____
ROOT
ATOM      1  N   UNL     1       4.538  -7.020  10.660  0.00  0.00    -0.354 N 
ATOM      2  N   UNL     1       4.757  -9.307  10.369  0.00  0.00    -0.372 N 
ATOM      3  N   UNL     1       4.334  -7.991   8.537  0.00  0.00    -0.372 N 
ATOM      4  C   UNL     1       4.541  -8.090   9.855  0.00  0.00    +0.166 C 
ATOM      5  H   UNL     1       4.671  -7.165  11.654  0.00  0.00    +0.163 HD
ATOM      6  H   UNL     1       4.768 -10.133   9.786  0.00  0.00    +0.159 HD
ATOM      7  H   UNL     1       4.935  -9.444  11.357  0.00  0.00    +0.159 HD
ATOM      8  H   UNL     1       4.159  -7.103   8.088  0.00  0.00    +0.159 HD
ATOM      9  H   UNL     1       4.330  -8.808   7.938  0.00  0.00    +0.159 HD
ENDROOT
BRANCH   1  10
ATOM     10  C   UNL     1       4.366  -5.645  10.192  0.00  0.00    +0.151 C 
BRANCH  10  11
ATOM     11  C   UNL     1       5.541  -4.822  10.643  0.00  0.00    -0.028 A 
ATOM     12  C   UNL     1       5.359  -3.744  11.521  0.00  0.00    +0.005 A 
ATOM     13  C   UNL     1       6.839  -5.119  10.200  0.00  0.00    +0.005 A 
ATOM     14  C   UNL     1       6.454  -2.998  11.964  0.00  0.00    +0.000 A 
ATOM     15  C   UNL     1       7.929  -4.371  10.644  0.00  0.00    +0.000 A 
ATOM     16  C   UNL     1       7.737  -3.312  11.528  0.00  0.00    +0.000 A 
ENDBRANCH  10  11
ENDBRANCH   1  10
TORSDOF 2
ENDMDL
MODEL 4
REMARK VINA RESULT:    -4.549     86.359     87.657
REMARK INTER + INTRA:          -5.191
REMARK INTER:                  -5.072
REMARK INTRA:                  -0.120
REMARK UNBOUND:                -0.111
REMARK  Name = 1550473
REMARK  2 active torsions:
REMARK  status: ('A' for Active; 'I' for Inactive)
REMARK    1  A    between atoms: N_1  and  C_4
REMARK    2  A    between atoms: C_4  and  C_5
REMARK                            x       y       z     vdW  Elec       q    Type
REMARK                         _______ _______ _______ _____ _____    ______ ____
ROOT
ATOM      1  N   UNL     1      -1.576   2.558 -13.049  0.00  0.00    -0.354 N 
ATOM      2  N   UNL     1      -2.410   2.696 -10.893  0.00  0.00    -0.372 N 
ATOM      3  N   UNL     1      -0.917   1.029 -11.401  0.00  0.00    -0.372 N 
ATOM      4  C   UNL     1      -1.628   2.091 -11.795  0.00  0.00    +0.166 C 
ATOM      5  H   UNL     1      -2.162   3.348 -13.293  0.00  0.00    +0.163 HD
ATOM      6  H   UNL     1      -2.467   2.368  -9.938  0.00  0.00    +0.159 HD
ATOM      7  H   UNL     1      -2.960   3.513 -11.127  0.00  0.00    +0.159 HD
ATOM      8  H   UNL     1      -0.312   0.524 -12.034  0.00  0.00    +0.159 HD
ATOM      9  H   UNL     1      -0.969   0.679 -10.452  0.00  0.00    +0.159 HD
ENDROOT
BRANCH   1  10
ATOM     10  C   UNL     1      -0.716   2.005 -14.093  0.00  0.00    +0.151 C 
BRANCH  10  11
ATOM     11  C   UNL     1      -0.824   2.862 -15.325  0.00  0.00    -0.028 A 
ATOM     12  C   UNL     1      -1.214   4.206 -15.225  0.00  0.00    +0.005 A 
ATOM     13  C   UNL     1      -0.533   2.338 -16.593  0.00  0.00    +0.005 A 
ATOM     14  C   UNL     1      -1.286   5.010 -16.365  0.00  0.00    +0.000 A 
ATOM     15  C   UNL     1      -0.607   3.144 -17.729  0.00  0.00    +0.000 A 
ATOM     16  C   UNL     1      -0.981   4.480 -17.614  0.00  0.00    +0.000 A 
ENDBRANCH  10  11
ENDBRANCH   1  10
TORSDOF 2
ENDMDL
MODEL 5
REMARK VINA RESULT:    -4.485     86.813     87.919
REMARK INTER + INTRA:          -5.120
REMARK INTER:                  -4.984
REMARK INTRA:                  -0.136
REMARK UNBOUND:                -0.111
REMARK  Name = 1550473
REMARK  2 active torsions:
REMARK  status: ('A' for Active; 'I' for Inactive)
REMARK    1  A    between atoms: N_1  and  C_4
REMARK    2  A    between atoms: C_4  and  C_5
REMARK                            x       y       z     vdW  Elec       q    Type
REMARK                         _______ _______ _______ _____ _____    ______ ____
ROOT
ATOM      1  N   UNL     1      -0.886   2.189 -16.404  0.00  0.00    -0.354 N 
ATOM      2  N   UNL     1      -1.545   3.258 -18.350  0.00  0.00    -0.372 N 
ATOM      3  N   UNL     1       0.674   3.286 -17.765  0.00  0.00    -0.372 N 
ATOM      4  C   UNL     1      -0.578   2.905 -17.494  0.00  0.00    +0.166 C 
ATOM      5  H   UNL     1      -1.859   1.957 -16.239  0.00  0.00    +0.163 HD
ATOM      6  H   UNL     1      -1.342   3.795 -19.183  0.00  0.00    +0.159 HD
ATOM      7  H   UNL     1      -2.509   2.986 -18.207  0.00  0.00    +0.159 HD
ATOM      8  H   UNL     1       1.448   3.057 -17.156  0.00  0.00    +0.159 HD
ATOM      9  H   UNL     1       0.895   3.834 -18.588  0.00  0.00    +0.159 HD
ENDROOT
BRANCH   1  10
ATOM     10  C   UNL     1       0.099   1.708 -15.437  0.00  0.00    +0.151 C 
BRANCH  10  11
ATOM     11  C   UNL     1      -0.428   1.933 -14.046  0.00  0.00    -0.028 A 
ATOM     12  C   UNL     1      -0.996   3.165 -13.690  0.00  0.00    +0.005 A 
ATOM     13  C   UNL     1      -0.366   0.916 -13.081  0.00  0.00    +0.005 A 
ATOM     14  C   UNL     1      -1.513   3.364 -12.408  0.00  0.00    +0.000 A 
ATOM     15  C   UNL     1      -0.882   1.119 -11.801  0.00  0.00    +0.000 A 
ATOM     16  C   UNL     1      -1.458   2.342 -11.466  0.00  0.00    +0.000 A 
ENDBRANCH  10  11
ENDBRANCH   1  10
TORSDOF 2
ENDMDL
MODEL 6
REMARK VINA RESULT:    -4.397    104.616    106.042
REMARK INTER + INTRA:          -5.022
REMARK INTER:                  -4.913
REMARK INTRA:                  -0.110
REMARK UNBOUND:                -0.111
REMARK  Name = 1550473
REMARK  2 active torsions:
REMARK  status: ('A' for Active; 'I' for Inactive)
REMARK    1  A    between atoms: N_1  and  C_4
REMARK    2  A    between atoms: C_4  and  C_5
REMARK                            x       y       z     vdW  Elec       q    Type
REMARK                         _______ _______ _______ _____ _____    ______ ____
ROOT
ATOM      1  N   UNL     1     -14.284 -15.134 -17.779  0.00  0.00    -0.354 N 
ATOM      2  N   UNL     1     -12.482 -15.381 -19.213  0.00  0.00    -0.372 N 
ATOM      3  N   UNL     1     -14.539 -14.873 -20.094  0.00  0.00    -0.372 N 
ATOM      4  C   UNL     1     -13.782 -15.128 -19.021  0.00  0.00    +0.166 C 
ATOM      5  H   UNL     1     -13.664 -15.364 -17.011  0.00  0.00    +0.163 HD
ATOM      6  H   UNL     1     -12.074 -15.380 -20.138  0.00  0.00    +0.159 HD
ATOM      7  H   UNL     1     -11.855 -15.565 -18.439  0.00  0.00    +0.159 HD
ATOM      8  H   UNL     1     -15.529 -14.680 -20.017  0.00  0.00    +0.159 HD
ATOM      9  H   UNL     1     -14.152 -14.879 -21.029  0.00  0.00    +0.159 HD
ENDROOT
BRANCH   1  10
ATOM     10  C   UNL     1     -15.674 -14.818 -17.457  0.00  0.00    +0.151 C 
BRANCH  10  11
ATOM     11  C   UNL     1     -15.716 -14.045 -16.168  0.00  0.00    -0.028 A 
ATOM     12  C   UNL     1     -15.118 -14.561 -15.009  0.00  0.00    +0.005 A 
ATOM     13  C   UNL     1     -16.349 -12.794 -16.100  0.00  0.00    +0.005 A 
ATOM     14  C   UNL     1     -15.130 -13.830 -13.818  0.00  0.00    +0.000 A 
ATOM     15  C   UNL     1     -16.360 -12.068 -14.909  0.00  0.00    +0.000 A 
ATOM     16  C   UNL     1     -15.749 -12.585 -13.769  0.00  0.00    +0.000 A 
ENDBRANCH  10  11
ENDBRANCH   1  10
TORSDOF 2
ENDMDL
MODEL 7
REMARK VINA RESULT:    -4.368     67.528     69.190
REMARK INTER + INTRA:          -4.989
REMARK INTER:                  -4.846
REMARK INTRA:                  -0.143
REMARK UNBOUND:                -0.111
REMARK  Name = 1550473
REMARK  2 active torsions:
REMARK  status: ('A' for Active; 'I' for Inactive)
REMARK    1  A    between atoms: N_1  and  C_4
REMARK    2  A    between atoms: C_4  and  C_5
REMARK                            x       y       z     vdW  Elec       q    Type
REMARK                         _______ _______ _______ _____ _____    ______ ____
ROOT
ATOM      1  N   UNL     1       5.928   1.278  19.402  0.00  0.00    -0.354 N 
ATOM      2  N   UNL     1       6.652   2.244  17.425  0.00  0.00    -0.372 N 
ATOM      3  N   UNL     1       7.915   0.580  18.374  0.00  0.00    -0.372 N 
ATOM      4  C   UNL     1       6.829   1.359  18.414  0.00  0.00    +0.166 C 
ATOM      5  H   UNL     1       5.142   1.918  19.390  0.00  0.00    +0.163 HD
ATOM      6  H   UNL     1       7.313   2.325  16.664  0.00  0.00    +0.159 HD
ATOM      7  H   UNL     1       5.841   2.850  17.391  0.00  0.00    +0.159 HD
ATOM      8  H   UNL     1       8.110  -0.104  19.094  0.00  0.00    +0.159 HD
ATOM      9  H   UNL     1       8.594   0.655  17.628  0.00  0.00    +0.159 HD
ENDROOT
BRANCH   1  10
ATOM     10  C   UNL     1       6.000   0.313  20.497  0.00  0.00    +0.151 C 
BRANCH  10  11
ATOM     11  C   UNL     1       4.819  -0.615  20.412  0.00  0.00    -0.028 A 
ATOM     12  C   UNL     1       3.757  -0.337  19.540  0.00  0.00    +0.005 A 
ATOM     13  C   UNL     1       4.759  -1.776  21.199  0.00  0.00    +0.005 A 
ATOM     14  C   UNL     1       2.674  -1.214  19.439  0.00  0.00    +0.000 A 
ATOM     15  C   UNL     1       3.675  -2.648  21.096  0.00  0.00    +0.000 A 
ATOM     16  C   UNL     1       2.634  -2.368  20.214  0.00  0.00    +0.000 A 
ENDBRANCH  10  11
ENDBRANCH   1  10
TORSDOF 2
ENDMDL
MODEL 8
REMARK VINA RESULT:    -4.173     96.005     97.654
REMARK INTER + INTRA:          -4.772
REMARK INTER:                  -4.652
REMARK INTRA:                  -0.120
REMARK UNBOUND:                -0.111
REMARK  Name = 1550473
REMARK  2 active torsions:
REMARK  status: ('A' for Active; 'I' for Inactive)
REMARK    1  A    between atoms: N_1  and  C_4
REMARK    2  A    between atoms: C_4  and  C_5
REMARK                            x       y       z     vdW  Elec       q    Type
REMARK                         _______ _______ _______ _____ _____    ______ ____
ROOT
ATOM      1  N   UNL     1      -8.664  -8.423 -12.636  0.00  0.00    -0.354 N 
ATOM      2  N   UNL     1     -10.666  -7.352 -12.176  0.00  0.00    -0.372 N 
ATOM      3  N   UNL     1      -8.838  -6.899 -10.864  0.00  0.00    -0.372 N 
ATOM      4  C   UNL     1      -9.375  -7.564 -11.892  0.00  0.00    +0.166 C 
ATOM      5  H   UNL     1      -9.137  -8.918 -13.383  0.00  0.00    +0.163 HD
ATOM      6  H   UNL     1     -11.226  -6.707 -11.635  0.00  0.00    +0.159 HD
ATOM      7  H   UNL     1     -11.124  -7.813 -12.952  0.00  0.00    +0.159 HD
ATOM      8  H   UNL     1      -7.871  -7.020 -10.594  0.00  0.00    +0.159 HD
ATOM      9  H   UNL     1      -9.386  -6.259 -10.303  0.00  0.00    +0.159 HD
ENDROOT
BRANCH   1  10
ATOM     10  C   UNL     1      -7.239  -8.685 -12.445  0.00  0.00    +0.151 C 
BRANCH  10  11
ATOM     11  C   UNL     1      -6.807  -9.768 -13.394  0.00  0.00    -0.028 A 
ATOM     12  C   UNL     1      -7.740 -10.683 -13.902  0.00  0.00    +0.005 A 
ATOM     13  C   UNL     1      -5.466  -9.880 -13.795  0.00  0.00    +0.005 A 
ATOM     14  C   UNL     1      -7.345 -11.671 -14.808  0.00  0.00    +0.000 A 
ATOM     15  C   UNL     1      -5.076 -10.868 -14.698  0.00  0.00    +0.000 A 
ATOM     16  C   UNL     1      -6.015 -11.761 -15.207  0.00  0.00    +0.000 A 
ENDBRANCH  10  11
ENDBRANCH   1  10
TORSDOF 2
ENDMDL
MODEL 9
REMARK VINA RESULT:    -4.148    114.260    115.677
REMARK INTER + INTRA:          -4.743
REMARK INTER:                  -4.629
REMARK INTRA:                  -0.115
REMARK UNBOUND:                -0.111
REMARK  Name = 1550473
REMARK  2 active torsions:
REMARK  status: ('A' for Active; 'I' for Inactive)
REMARK    1  A    between atoms: N_1  and  C_4
REMARK    2  A    between atoms: C_4  and  C_5
REMARK                            x       y       z     vdW  Elec       q    Type
REMARK                         _______ _______ _______ _____ _____    ______ ____
ROOT
ATOM      1  N   UNL     1     -16.575 -13.366 -30.330  0.00  0.00    -0.354 N 
ATOM      2  N   UNL     1     -14.888 -12.781 -28.855  0.00  0.00    -0.372 N 
ATOM      3  N   UNL     1     -15.772 -14.896 -28.747  0.00  0.00    -0.372 N 
ATOM      4  C   UNL     1     -15.757 -13.687 -29.319  0.00  0.00    +0.166 C 
ATOM      5  H   UNL     1     -16.536 -12.423 -30.701  0.00  0.00    +0.163 HD
ATOM      6  H   UNL     1     -14.256 -12.995 -28.096  0.00  0.00    +0.159 HD
ATOM      7  H   UNL     1     -14.819 -11.854 -29.258  0.00  0.00    +0.159 HD
ATOM      8  H   UNL     1     -16.408 -15.622 -29.047  0.00  0.00    +0.159 HD
ATOM      9  H   UNL     1     -15.155 -15.126 -27.978  0.00  0.00    +0.159 HD
ENDROOT
BRANCH   1  10
ATOM     10  C   UNL     1     -17.520 -14.297 -30.945  0.00  0.00    +0.151 C 
BRANCH  10  11
ATOM     11  C   UNL     1     -18.698 -13.524 -31.473  0.00  0.00    -0.028 A 
ATOM     12  C   UNL     1     -19.998 -14.037 -31.351  0.00  0.00    +0.005 A 
ATOM     13  C   UNL     1     -18.521 -12.277 -32.090  0.00  0.00    +0.005 A 
ATOM     14  C   UNL     1     -21.095 -13.306 -31.814  0.00  0.00    +0.000 A 
ATOM     15  C   UNL     1     -19.619 -11.551 -32.552  0.00  0.00    +0.000 A 
ATOM     16  C   UNL     1     -20.905 -12.065 -32.411  0.00  0.00    +0.000 A 
ENDBRANCH  10  11
ENDBRANCH   1  10
TORSDOF 2
ENDMDL
