MODEL 1
REMARK VINA RESULT:    -5.593      0.000      0.000
REMARK INTER + INTRA:          -6.358
REMARK INTER:                  -6.247
REMARK INTRA:                  -0.111
REMARK UNBOUND:                -0.111
REMARK  Name = 1550473
REMARK  2 active torsions:
REMARK  status: ('A' for Active; 'I' for Inactive)
REMARK    1  A    between atoms: N_1  and  C_4
REMARK    2  A    between atoms: C_4  and  C_5
REMARK                            x       y       z     vdW  Elec       q    Type
REMARK                         _______ _______ _______ _____ _____    ______ ____
ROOT
ATOM      1  N   UNL     1      10.237  -4.211 -10.877  0.00  0.00    -0.354 N 
ATOM      2  N   UNL     1      10.539  -3.015 -12.837  0.00  0.00    -0.372 N 
ATOM      3  N   UNL     1      12.167  -2.927 -11.222  0.00  0.00    -0.372 N 
ATOM      4  C   UNL     1      10.981  -3.392 -11.631  0.00  0.00    +0.166 C 
ATOM      5  H   UNL     1       9.334  -4.504 -11.232  0.00  0.00    +0.163 HD
ATOM      6  H   UNL     1      11.081  -2.400 -13.430  0.00  0.00    +0.159 HD
ATOM      7  H   UNL     1       9.657  -3.346 -13.208  0.00  0.00    +0.159 HD
ATOM      8  H   UNL     1      12.554  -3.169 -10.320  0.00  0.00    +0.159 HD
ATOM      9  H   UNL     1      12.718  -2.302 -11.796  0.00  0.00    +0.159 HD
ENDROOT
BRANCH   1  10
ATOM     10  C   UNL     1      10.651  -4.724  -9.572  0.00  0.00    +0.151 C 
BRANCH  10  11
ATOM     11  C   UNL     1      10.212  -6.156  -9.445  0.00  0.00    -0.028 A 
ATOM     12  C   UNL     1      11.125  -7.149  -9.058  0.00  0.00    +0.005 A 
ATOM     13  C   UNL     1       8.884  -6.527  -9.705  0.00  0.00    +0.005 A 
ATOM     14  C   UNL     1      10.710  -8.475  -8.910  0.00  0.00    +0.000 A 
ATOM     15  C   UNL     1       8.475  -7.852  -9.557  0.00  0.00    +0.000 A 
ATOM     16  C   UNL     1       9.387  -8.825  -9.158  0.00  0.00    +0.000 A 
ENDBRANCH  10  11
ENDBRANCH   1  10
TORSDOF 2
ENDMDL
MODEL 2
REMARK VINA RESULT:    -5.405      2.416      3.590
REMARK INTER + INTRA:          -6.148
REMARK INTER:                  -6.024
REMARK INTRA:                  -0.124
REMARK UNBOUND:                -0.111
REMARK  Name = 1550473
REMARK  2 active torsions:
REMARK  status: ('A' for Active; 'I' for Inactive)
REMARK    1  A    between atoms: N_1  and  C_4
REMARK    2  A    between atoms: C_4  and  C_5
REMARK                            x       y       z     vdW  Elec       q    Type
REMARK                         _______ _______ _______ _____ _____    ______ ____
ROOT
ATOM      1  N   UNL     1      11.488  -6.495  -9.292  0.00  0.00    -0.354 N 
ATOM      2  N   UNL     1      11.902  -4.440 -10.278  0.00  0.00    -0.372 N 
ATOM      3  N   UNL     1      10.235  -5.765 -11.133  0.00  0.00    -0.372 N 
ATOM      4  C   UNL     1      11.203  -5.581 -10.230  0.00  0.00    +0.166 C 
ATOM      5  H   UNL     1      12.254  -6.308  -8.655  0.00  0.00    +0.163 HD
ATOM      6  H   UNL     1      11.708  -3.731 -10.972  0.00  0.00    +0.159 HD
ATOM      7  H   UNL     1      12.637  -4.237  -9.611  0.00  0.00    +0.159 HD
ATOM      8  H   UNL     1       9.675  -6.607 -11.154  0.00  0.00    +0.159 HD
ATOM      9  H   UNL     1      10.033  -5.072 -11.843  0.00  0.00    +0.159 HD
ENDROOT
BRANCH   1  10
ATOM     10  C   UNL     1      10.751  -7.746  -9.119  0.00  0.00    +0.151 C 
BRANCH  10  11
ATOM     11  C   UNL     1      11.504  -8.631  -8.165  0.00  0.00    -0.028 A 
ATOM     12  C   UNL     1      12.829  -8.334  -7.813  0.00  0.00    +0.005 A 
ATOM     13  C   UNL     1      10.896  -9.765  -7.604  0.00  0.00    +0.005 A 
ATOM     14  C   UNL     1      13.519  -9.140  -6.903  0.00  0.00    +0.000 A 
ATOM     15  C   UNL     1      11.588 -10.567  -6.697  0.00  0.00    +0.000 A 
ATOM     16  C   UNL     1      12.899 -10.252  -6.345  0.00  0.00    +0.000 A 
ENDBRANCH  10  11
ENDBRANCH   1  10
TORSDOF 2
ENDMDL
MODEL 3
REMARK VINA RESULT:    -5.277     16.225     18.227
REMARK INTER + INTRA:          -6.006
REMARK INTER:                  -5.853
REMARK INTRA:                  -0.153
REMARK UNBOUND:                -0.111
REMARK  Name = 1550473
REMARK  2 active torsions:
REMARK  status: ('A' for Active; 'I' for Inactive)
REMARK    1  A    between atoms: N_1  and  C_4
REMARK    2  A    between atoms: C_4  and  C_5
REMARK                            x       y       z     vdW  Elec       q    Type
REMARK                         _______ _______ _______ _____ _____    ______ ____
ROOT
ATOM      1  N   UNL     1       0.668   4.421 -20.365  0.00  0.00    -0.354 N 
ATOM      2  N   UNL     1       1.571   3.980 -18.278  0.00  0.00    -0.372 N 
ATOM      3  N   UNL     1      -0.143   2.662 -19.046  0.00  0.00    -0.372 N 
ATOM      4  C   UNL     1       0.691   3.688 -19.244  0.00  0.00    +0.166 C 
ATOM      5  H   UNL     1       1.306   5.205 -20.441  0.00  0.00    +0.163 HD
ATOM      6  H   UNL     1       1.614   3.443 -17.423  0.00  0.00    +0.159 HD
ATOM      7  H   UNL     1       2.239   4.736 -18.376  0.00  0.00    +0.159 HD
ATOM      8  H   UNL     1      -0.835   2.394 -19.733  0.00  0.00    +0.159 HD
ATOM      9  H   UNL     1      -0.123   2.120 -18.191  0.00  0.00    +0.159 HD
ENDROOT
BRANCH   1  10
ATOM     10  C   UNL     1      -0.215   4.153 -21.499  0.00  0.00    +0.151 C 
BRANCH  10  11
ATOM     11  C   UNL     1       0.621   3.846 -22.711  0.00  0.00    -0.028 A 
ATOM     12  C   UNL     1       1.419   2.693 -22.752  0.00  0.00    +0.005 A 
ATOM     13  C   UNL     1       0.615   4.701 -23.824  0.00  0.00    +0.005 A 
ATOM     14  C   UNL     1       2.172   2.392 -23.889  0.00  0.00    +0.000 A 
ATOM     15  C   UNL     1       1.369   4.397 -24.957  0.00  0.00    +0.000 A 
ATOM     16  C   UNL     1       2.146   3.242 -24.990  0.00  0.00    +0.000 A 
ENDBRANCH  10  11
ENDBRANCH   1  10
TORSDOF 2
ENDMDL
MODEL 4
REMARK VINA RESULT:    -5.230      2.601      4.758
REMARK INTER + INTRA:          -5.953
REMARK INTER:                  -5.816
REMARK INTRA:                  -0.137
REMARK UNBOUND:                -0.111
REMARK  Name = 1550473
REMARK  2 active torsions:
REMARK  status: ('A' for Active; 'I' for Inactive)
REMARK    1  A    between atoms: N_1  and  C_4
REMARK    2  A    between atoms: C_4  and  C_5
REMARK                            x       y       z     vdW  Elec       q    Type
REMARK                         _______ _______ _______ _____ _____    ______ ____
ROOT
ATOM      1  N   UNL     1       9.090  -6.982 -10.698  0.00  0.00    -0.354 N 
ATOM      2  N   UNL     1       9.143  -9.161 -11.482  0.00  0.00    -0.372 N 
ATOM      3  N   UNL     1      10.077  -8.695  -9.438  0.00  0.00    -0.372 N 
ATOM      4  C   UNL     1       9.438  -8.266 -10.532  0.00  0.00    +0.166 C 
ATOM      5  H   UNL     1       8.635  -6.715 -11.563  0.00  0.00    +0.163 HD
ATOM      6  H   UNL     1       9.390 -10.137 -11.383  0.00  0.00    +0.159 HD
ATOM      7  H   UNL     1       8.647  -8.900 -12.325  0.00  0.00    +0.159 HD
ATOM      8  H   UNL     1      10.333  -8.068  -8.687  0.00  0.00    +0.159 HD
ATOM      9  H   UNL     1      10.342  -9.665  -9.326  0.00  0.00    +0.159 HD
ENDROOT
BRANCH   1  10
ATOM     10  C   UNL     1       9.317  -5.938  -9.700  0.00  0.00    +0.151 C 
BRANCH  10  11
ATOM     11  C   UNL     1      10.124  -4.832 -10.321  0.00  0.00    -0.028 A 
ATOM     12  C   UNL     1      11.501  -4.733 -10.079  0.00  0.00    +0.005 A 
ATOM     13  C   UNL     1       9.517  -3.882 -11.158  0.00  0.00    +0.005 A 
ATOM     14  C   UNL     1      12.257  -3.723 -10.680  0.00  0.00    +0.000 A 
ATOM     15  C   UNL     1      10.275  -2.875 -11.756  0.00  0.00    +0.000 A 
ATOM     16  C   UNL     1      11.645  -2.797 -11.518  0.00  0.00    +0.000 A 
ENDBRANCH  10  11
ENDBRANCH   1  10
TORSDOF 2
ENDMDL
MODEL 5
REMARK VINA RESULT:    -5.064     21.978     22.935
REMARK INTER + INTRA:          -5.768
REMARK INTER:                  -5.632
REMARK INTRA:                  -0.136
REMARK UNBOUND:                -0.111
REMARK  Name = 1550473
REMARK  2 active torsions:
REMARK  status: ('A' for Active; 'I' for Inactive)
REMARK    1  A    between atoms: N_1  and  C_4
REMARK    2  A    between atoms: C_4  and  C_5
REMARK                            x       y       z     vdW  Elec       q    Type
REMARK                         _______ _______ _______ _____ _____    ______ ____
ROOT
ATOM      1  N   UNL     1      12.558  13.860  -0.597  0.00  0.00    -0.354 N 
ATOM      2  N   UNL     1      10.538  14.964  -0.843  0.00  0.00    -0.372 N 
ATOM      3  N   UNL     1      12.352  15.691  -2.045  0.00  0.00    -0.372 N 
ATOM      4  C   UNL     1      11.831  14.833  -1.162  0.00  0.00    +0.166 C 
ATOM      5  H   UNL     1      12.112  13.261   0.088  0.00  0.00    +0.163 HD
ATOM      6  H   UNL     1       9.963  15.687  -1.256  0.00  0.00    +0.159 HD
ATOM      7  H   UNL     1      10.082  14.335  -0.193  0.00  0.00    +0.159 HD
ATOM      8  H   UNL     1      13.324  15.649  -2.323  0.00  0.00    +0.159 HD
ATOM      9  H   UNL     1      11.796  16.428  -2.460  0.00  0.00    +0.159 HD
ENDROOT
BRANCH   1  10
ATOM     10  C   UNL     1      13.961  13.598  -0.915  0.00  0.00    +0.151 C 
BRANCH  10  11
ATOM     11  C   UNL     1      14.760  13.584   0.359  0.00  0.00    -0.028 A 
ATOM     12  C   UNL     1      15.971  12.880   0.433  0.00  0.00    +0.005 A 
ATOM     13  C   UNL     1      14.314  14.278   1.494  0.00  0.00    +0.005 A 
ATOM     14  C   UNL     1      16.728  12.892   1.607  0.00  0.00    +0.000 A 
ATOM     15  C   UNL     1      15.073  14.287   2.665  0.00  0.00    +0.000 A 
ATOM     16  C   UNL     1      16.281  13.596   2.720  0.00  0.00    +0.000 A 
ENDBRANCH  10  11
ENDBRANCH   1  10
TORSDOF 2
ENDMDL
MODEL 6
REMARK VINA RESULT:    -5.053     30.870     31.745
REMARK INTER + INTRA:          -5.755
REMARK INTER:                  -5.650
REMARK INTRA:                  -0.105
REMARK UNBOUND:                -0.111
REMARK  Name = 1550473
REMARK  2 active torsions:
REMARK  status: ('A' for Active; 'I' for Inactive)
REMARK    1  A    between atoms: N_1  and  C_4
REMARK    2  A    between atoms: C_4  and  C_5
REMARK                            x       y       z     vdW  Elec       q    Type
REMARK                         _______ _______ _______ _____ _____    ______ ____
ROOT
ATOM      1  N   UNL     1      -8.819 -11.639  14.027  0.00  0.00    -0.354 N 
ATOM      2  N   UNL     1     -10.007 -12.934  12.518  0.00  0.00    -0.372 N 
ATOM      3  N   UNL     1      -8.392 -13.932  13.806  0.00  0.00    -0.372 N 
ATOM      4  C   UNL     1      -9.063 -12.829  13.461  0.00  0.00    +0.166 C 
ATOM      5  H   UNL     1      -9.342 -10.834  13.700  0.00  0.00    +0.163 HD
ATOM      6  H   UNL     1     -10.215 -13.819  12.076  0.00  0.00    +0.159 HD
ATOM      7  H   UNL     1     -10.559 -12.137  12.226  0.00  0.00    +0.159 HD
ATOM      8  H   UNL     1      -7.663 -13.919  14.507  0.00  0.00    +0.159 HD
ATOM      9  H   UNL     1      -8.578 -14.825  13.367  0.00  0.00    +0.159 HD
ENDROOT
BRANCH   1  10
ATOM     10  C   UNL     1      -7.850 -11.427  15.100  0.00  0.00    +0.151 C 
BRANCH  10  11
ATOM     11  C   UNL     1      -7.742  -9.954  15.380  0.00  0.00    -0.028 A 
ATOM     12  C   UNL     1      -7.908  -9.462  16.684  0.00  0.00    +0.005 A 
ATOM     13  C   UNL     1      -7.466  -9.044  14.348  0.00  0.00    +0.005 A 
ATOM     14  C   UNL     1      -7.778  -8.097  16.949  0.00  0.00    +0.000 A 
ATOM     15  C   UNL     1      -7.338  -7.681  14.617  0.00  0.00    +0.000 A 
ATOM     16  C   UNL     1      -7.491  -7.209  15.918  0.00  0.00    +0.000 A 
ENDBRANCH  10  11
ENDBRANCH   1  10
TORSDOF 2
ENDMDL
MODEL 7
REMARK VINA RESULT:    -5.049     21.890     23.186
REMARK INTER + INTRA:          -5.751
REMARK INTER:                  -5.651
REMARK INTRA:                  -0.099
REMARK UNBOUND:                -0.111
REMARK  Name = 1550473
REMARK  2 active torsions:
REMARK  status: ('A' for Active; 'I' for Inactive)
REMARK    1  A    between atoms: N_1  and  C_4
REMARK    2  A    between atoms: C_4  and  C_5
REMARK                            x       y       z     vdW  Elec       q    Type
REMARK                         _______ _______ _______ _____ _____    ______ ____
ROOT
ATOM      1  N   UNL     1     -13.587  -4.431  -7.822  0.00  0.00    -0.354 N 
ATOM      2  N   UNL     1     -15.411  -5.857  -7.781  0.00  0.00    -0.372 N 
ATOM      3  N   UNL     1     -13.991  -5.924  -9.582  0.00  0.00    -0.372 N 
ATOM      4  C   UNL     1     -14.317  -5.395  -8.398  0.00  0.00    +0.166 C 
ATOM      5  H   UNL     1     -13.904  -4.050  -6.938  0.00  0.00    +0.163 HD
ATOM      6  H   UNL     1     -15.980  -6.587  -8.189  0.00  0.00    +0.159 HD
ATOM      7  H   UNL     1     -15.700  -5.507  -6.875  0.00  0.00    +0.159 HD
ATOM      8  H   UNL     1     -13.180  -5.615 -10.102  0.00  0.00    +0.159 HD
ATOM      9  H   UNL     1     -14.554  -6.647 -10.012  0.00  0.00    +0.159 HD
ENDROOT
BRANCH   1  10
ATOM     10  C   UNL     1     -12.348  -3.896  -8.385  0.00  0.00    +0.151 C 
BRANCH  10  11
ATOM     11  C   UNL     1     -11.531  -3.284  -7.281  0.00  0.00    -0.028 A 
ATOM     12  C   UNL     1     -10.240  -3.757  -7.005  0.00  0.00    +0.005 A 
ATOM     13  C   UNL     1     -12.039  -2.226  -6.512  0.00  0.00    +0.005 A 
ATOM     14  C   UNL     1      -9.469  -3.169  -5.999  0.00  0.00    +0.000 A 
ATOM     15  C   UNL     1     -11.267  -1.642  -5.508  0.00  0.00    +0.000 A 
ATOM     16  C   UNL     1      -9.980  -2.112  -5.254  0.00  0.00    +0.000 A 
ENDBRANCH  10  11
ENDBRANCH   1  10
TORSDOF 2
ENDMDL
MODEL 8
REMARK VINA RESULT:    -4.943     21.014     21.972
REMARK INTER + INTRA:          -5.632
REMARK INTER:                  -5.464
REMARK INTRA:                  -0.169
REMARK UNBOUND:                -0.111
REMARK  Name = 1550473
REMARK  2 active torsions:
REMARK  status: ('A' for Active; 'I' for Inactive)
REMARK    1  A    between atoms: N_1  and  C_4
REMARK    2  A    between atoms: C_4  and  C_5
REMARK                            x       y       z     vdW  Elec       q    Type
REMARK                         _______ _______ _______ _____ _____    ______ ____
ROOT
ATOM      1  N   UNL     1       6.006  -8.632  10.426  0.00  0.00    -0.354 N 
ATOM      2  N   UNL     1       4.307  -7.064  10.552  0.00  0.00    -0.372 N 
ATOM      3  N   UNL     1       5.058  -8.043  12.486  0.00  0.00    -0.372 N 
ATOM      4  C   UNL     1       5.135  -7.924  11.157  0.00  0.00    +0.166 C 
ATOM      5  H   UNL     1       5.994  -8.519   9.419  0.00  0.00    +0.163 HD
ATOM      6  H   UNL     1       3.641  -6.513  11.077  0.00  0.00    +0.159 HD
ATOM      7  H   UNL     1       4.328  -6.919   9.550  0.00  0.00    +0.159 HD
ATOM      8  H   UNL     1       5.651  -8.679  13.002  0.00  0.00    +0.159 HD
ATOM      9  H   UNL     1       4.390  -7.509  13.028  0.00  0.00    +0.159 HD
ENDROOT
BRANCH   1  10
ATOM     10  C   UNL     1       6.987  -9.556  10.993  0.00  0.00    +0.151 C 
BRANCH  10  11
ATOM     11  C   UNL     1       8.320  -8.865  11.078  0.00  0.00    -0.028 A 
ATOM     12  C   UNL     1       9.216  -8.910   9.999  0.00  0.00    +0.005 A 
ATOM     13  C   UNL     1       8.692  -8.158  12.232  0.00  0.00    +0.005 A 
ATOM     14  C   UNL     1      10.442  -8.244  10.066  0.00  0.00    +0.000 A 
ATOM     15  C   UNL     1       9.917  -7.495  12.295  0.00  0.00    +0.000 A 
ATOM     16  C   UNL     1      10.790  -7.535  11.211  0.00  0.00    +0.000 A 
ENDBRANCH  10  11
ENDBRANCH   1  10
TORSDOF 2
ENDMDL
MODEL 9
REMARK VINA RESULT:    -4.825     22.185     23.678
REMARK INTER + INTRA:          -5.501
REMARK INTER:                  -5.320
REMARK INTRA:                  -0.181
REMARK UNBOUND:                -0.111
REMARK  Name = 1550473
REMARK  2 active torsions:
REMARK  status: ('A' for Active; 'I' for Inactive)
REMARK    1  A    between atoms: N_1  and  C_4
REMARK    2  A    between atoms: C_4  and  C_5
REMARK                            x       y       z     vdW  Elec       q    Type
REMARK                         _______ _______ _______ _____ _____    ______ ____
ROOT
ATOM      1  N   UNL     1      14.854  14.183   4.002  0.00  0.00    -0.354 N 
ATOM      2  N   UNL     1      14.528  13.116   6.032  0.00  0.00    -0.372 N 
ATOM      3  N   UNL     1      16.574  12.948   5.007  0.00  0.00    -0.372 N 
ATOM      4  C   UNL     1      15.324  13.422   5.000  0.00  0.00    +0.166 C 
ATOM      5  H   UNL     1      13.888  14.485   4.041  0.00  0.00    +0.163 HD
ATOM      6  H   UNL     1      14.856  12.547   6.801  0.00  0.00    +0.159 HD
ATOM      7  H   UNL     1      13.577  13.458   6.091  0.00  0.00    +0.159 HD
ATOM      8  H   UNL     1      17.223  13.137   4.255  0.00  0.00    +0.159 HD
ATOM      9  H   UNL     1      16.917  12.367   5.762  0.00  0.00    +0.159 HD
ENDROOT
BRANCH   1  10
ATOM     10  C   UNL     1      15.655  14.617   2.858  0.00  0.00    +0.151 C 
BRANCH  10  11
ATOM     11  C   UNL     1      15.317  13.761   1.669  0.00  0.00    -0.028 A 
ATOM     12  C   UNL     1      14.054  13.847   1.066  0.00  0.00    +0.005 A 
ATOM     13  C   UNL     1      16.259  12.867   1.136  0.00  0.00    +0.005 A 
ATOM     14  C   UNL     1      13.750  13.074  -0.057  0.00  0.00    +0.000 A 
ATOM     15  C   UNL     1      15.951  12.097   0.015  0.00  0.00    +0.000 A 
ATOM     16  C   UNL     1      14.698  12.202  -0.583  0.00  0.00    +0.000 A 
ENDBRANCH  10  11
ENDBRANCH   1  10
TORSDOF 2
ENDMDL
