MODEL 1
REMARK VINA RESULT:    -5.840      0.000      0.000
REMARK INTER + INTRA:          -6.706
REMARK INTER:                  -6.523
REMARK INTRA:                  -0.182
REMARK UNBOUND:                -0.182
REMARK  Name = 1550473
REMARK  2 active torsions:
REMARK  status: ('A' for Active; 'I' for Inactive)
REMARK    1  A    between atoms: N_1  and  C_4
REMARK    2  A    between atoms: C_4  and  C_5
REMARK                            x       y       z     vdW  Elec       q    Type
REMARK                         _______ _______ _______ _____ _____    ______ ____
ROOT
ATOM      1  N   UNL     1      -2.843   8.631   1.367  0.00  0.00    -0.354 N 
ATOM      2  N   UNL     1      -1.123   7.261   2.096  0.00  0.00    -0.372 N 
ATOM      3  N   UNL     1      -2.762   6.368   0.761  0.00  0.00    -0.372 N 
ATOM      4  C   UNL     1      -2.255   7.427   1.402  0.00  0.00    +0.166 C 
ATOM      5  H   UNL     1      -2.425   9.386   1.899  0.00  0.00    +0.163 HD
ATOM      6  H   UNL     1      -0.655   6.366   2.138  0.00  0.00    +0.159 HD
ATOM      7  H   UNL     1      -0.682   8.029   2.589  0.00  0.00    +0.159 HD
ATOM      8  H   UNL     1      -3.617   6.426   0.225  0.00  0.00    +0.159 HD
ATOM      9  H   UNL     1      -2.314   5.461   0.801  0.00  0.00    +0.159 HD
ENDROOT
BRANCH   1  10
ATOM     10  C   UNL     1      -4.049   8.930   0.598  0.00  0.00    +0.151 C 
BRANCH  10  11
ATOM     11  C   UNL     1      -3.658   9.630  -0.675  0.00  0.00    -0.028 A 
ATOM     12  C   UNL     1      -3.584   8.921  -1.883  0.00  0.00    +0.005 A 
ATOM     13  C   UNL     1      -3.367  11.002  -0.680  0.00  0.00    +0.005 A 
ATOM     14  C   UNL     1      -3.251   9.577  -3.071  0.00  0.00    +0.000 A 
ATOM     15  C   UNL     1      -3.034  11.653  -1.868  0.00  0.00    +0.000 A 
ATOM     16  C   UNL     1      -2.978  10.940  -3.063  0.00  0.00    +0.000 A 
ENDBRANCH  10  11
ENDBRANCH   1  10
TORSDOF 2
ENDMDL
MODEL 2
REMARK VINA RESULT:    -5.640     19.074     20.323
REMARK INTER + INTRA:          -6.482
REMARK INTER:                  -6.360
REMARK INTRA:                  -0.122
REMARK UNBOUND:                -0.182
REMARK  Name = 1550473
REMARK  2 active torsions:
REMARK  status: ('A' for Active; 'I' for Inactive)
REMARK    1  A    between atoms: N_1  and  C_4
REMARK    2  A    between atoms: C_4  and  C_5
REMARK                            x       y       z     vdW  Elec       q    Type
REMARK                         _______ _______ _______ _____ _____    ______ ____
ROOT
ATOM      1  N   UNL     1      14.969   0.719   5.542  0.00  0.00    -0.354 N 
ATOM      2  N   UNL     1      16.615   0.900   3.923  0.00  0.00    -0.372 N 
ATOM      3  N   UNL     1      16.896   1.999   5.917  0.00  0.00    -0.372 N 
ATOM      4  C   UNL     1      16.150   1.207   5.140  0.00  0.00    +0.166 C 
ATOM      5  H   UNL     1      14.437   0.149   4.894  0.00  0.00    +0.163 HD
ATOM      6  H   UNL     1      17.504   1.250   3.593  0.00  0.00    +0.159 HD
ATOM      7  H   UNL     1      16.103   0.292   3.295  0.00  0.00    +0.159 HD
ATOM      8  H   UNL     1      16.599   2.272   6.845  0.00  0.00    +0.159 HD
ATOM      9  H   UNL     1      17.783   2.369   5.601  0.00  0.00    +0.159 HD
ENDROOT
BRANCH   1  10
ATOM     10  C   UNL     1      14.398   0.949   6.868  0.00  0.00    +0.151 C 
BRANCH  10  11
ATOM     11  C   UNL     1      13.026   0.336   6.926  0.00  0.00    -0.028 A 
ATOM     12  C   UNL     1      12.337   0.022   5.745  0.00  0.00    +0.005 A 
ATOM     13  C   UNL     1      12.413   0.060   8.157  0.00  0.00    +0.005 A 
ATOM     14  C   UNL     1      11.075  -0.576   5.798  0.00  0.00    +0.000 A 
ATOM     15  C   UNL     1      11.153  -0.536   8.206  0.00  0.00    +0.000 A 
ATOM     16  C   UNL     1      10.485  -0.856   7.026  0.00  0.00    +0.000 A 
ENDBRANCH  10  11
ENDBRANCH   1  10
TORSDOF 2
ENDMDL
MODEL 3
REMARK VINA RESULT:    -5.638     18.742     19.936
REMARK INTER + INTRA:          -6.480
REMARK INTER:                  -6.388
REMARK INTRA:                  -0.091
REMARK UNBOUND:                -0.182
REMARK  Name = 1550473
REMARK  2 active torsions:
REMARK  status: ('A' for Active; 'I' for Inactive)
REMARK    1  A    between atoms: N_1  and  C_4
REMARK    2  A    between atoms: C_4  and  C_5
REMARK                            x       y       z     vdW  Elec       q    Type
REMARK                         _______ _______ _______ _____ _____    ______ ____
ROOT
ATOM      1  N   UNL     1      10.247  -5.089   4.829  0.00  0.00    -0.354 N 
ATOM      2  N   UNL     1       8.906  -6.819   4.071  0.00  0.00    -0.372 N 
ATOM      3  N   UNL     1      11.088  -7.267   4.621  0.00  0.00    -0.372 N 
ATOM      4  C   UNL     1      10.092  -6.382   4.512  0.00  0.00    +0.166 C 
ATOM      5  H   UNL     1       9.462  -4.463   4.695  0.00  0.00    +0.163 HD
ATOM      6  H   UNL     1       8.757  -7.789   3.828  0.00  0.00    +0.159 HD
ATOM      7  H   UNL     1       8.109  -6.199   3.983  0.00  0.00    +0.159 HD
ATOM      8  H   UNL     1      12.009  -7.000   4.942  0.00  0.00    +0.159 HD
ATOM      9  H   UNL     1      10.962  -8.240   4.371  0.00  0.00    +0.159 HD
ENDROOT
BRANCH   1  10
ATOM     10  C   UNL     1      11.482  -4.523   5.369  0.00  0.00    +0.151 C 
BRANCH  10  11
ATOM     11  C   UNL     1      11.225  -3.106   5.802  0.00  0.00    -0.028 A 
ATOM     12  C   UNL     1      11.330  -2.051   4.884  0.00  0.00    +0.005 A 
ATOM     13  C   UNL     1      10.869  -2.813   7.127  0.00  0.00    +0.005 A 
ATOM     14  C   UNL     1      11.061  -0.738   5.278  0.00  0.00    +0.000 A 
ATOM     15  C   UNL     1      10.602  -1.501   7.517  0.00  0.00    +0.000 A 
ATOM     16  C   UNL     1      10.696  -0.464   6.592  0.00  0.00    +0.000 A 
ENDBRANCH  10  11
ENDBRANCH   1  10
TORSDOF 2
ENDMDL
MODEL 4
REMARK VINA RESULT:    -5.541      2.621      3.351
REMARK INTER + INTRA:          -6.371
REMARK INTER:                  -6.277
REMARK INTRA:                  -0.095
REMARK UNBOUND:                -0.182
REMARK  Name = 1550473
REMARK  2 active torsions:
REMARK  status: ('A' for Active; 'I' for Inactive)
REMARK    1  A    between atoms: N_1  and  C_4
REMARK    2  A    between atoms: C_4  and  C_5
REMARK                            x       y       z     vdW  Elec       q    Type
REMARK                         _______ _______ _______ _____ _____    ______ ____
ROOT
ATOM      1  N   UNL     1      -4.325   5.665  -1.296  0.00  0.00    -0.354 N 
ATOM      2  N   UNL     1      -3.699   3.582  -0.498  0.00  0.00    -0.372 N 
ATOM      3  N   UNL     1      -5.303   3.707  -2.134  0.00  0.00    -0.372 N 
ATOM      4  C   UNL     1      -4.449   4.331  -1.316  0.00  0.00    +0.166 C 
ATOM      5  H   UNL     1      -3.681   6.078  -0.631  0.00  0.00    +0.163 HD
ATOM      6  H   UNL     1      -3.768   2.573  -0.494  0.00  0.00    +0.159 HD
ATOM      7  H   UNL     1      -3.023   3.996   0.132  0.00  0.00    +0.159 HD
ATOM      8  H   UNL     1      -5.902   4.215  -2.772  0.00  0.00    +0.159 HD
ATOM      9  H   UNL     1      -5.395   2.699  -2.136  0.00  0.00    +0.159 HD
ENDROOT
BRANCH   1  10
ATOM     10  C   UNL     1      -5.055   6.568  -2.184  0.00  0.00    +0.151 C 
BRANCH  10  11
ATOM     11  C   UNL     1      -4.444   7.939  -2.100  0.00  0.00    -0.028 A 
ATOM     12  C   UNL     1      -3.773   8.488  -3.203  0.00  0.00    +0.005 A 
ATOM     13  C   UNL     1      -4.538   8.698  -0.923  0.00  0.00    +0.005 A 
ATOM     14  C   UNL     1      -3.232   9.774  -3.136  0.00  0.00    +0.000 A 
ATOM     15  C   UNL     1      -3.995   9.981  -0.860  0.00  0.00    +0.000 A 
ATOM     16  C   UNL     1      -3.344  10.519  -1.968  0.00  0.00    +0.000 A 
ENDBRANCH  10  11
ENDBRANCH   1  10
TORSDOF 2
ENDMDL
MODEL 5
REMARK VINA RESULT:    -5.519     19.126     20.371
REMARK INTER + INTRA:          -6.347
REMARK INTER:                  -6.179
REMARK INTRA:                  -0.168
REMARK UNBOUND:                -0.182
REMARK  Name = 1550473
REMARK  2 active torsions:
REMARK  status: ('A' for Active; 'I' for Inactive)
REMARK    1  A    between atoms: N_1  and  C_4
REMARK    2  A    between atoms: C_4  and  C_5
REMARK                            x       y       z     vdW  Elec       q    Type
REMARK                         _______ _______ _______ _____ _____    ______ ____
ROOT
ATOM      1  N   UNL     1      15.192  -0.115   6.932  0.00  0.00    -0.354 N 
ATOM      2  N   UNL     1      16.918  -1.323   5.970  0.00  0.00    -0.372 N 
ATOM      3  N   UNL     1      15.791   0.211   4.689  0.00  0.00    -0.372 N 
ATOM      4  C   UNL     1      15.955  -0.400   5.868  0.00  0.00    +0.166 C 
ATOM      5  H   UNL     1      15.347  -0.635   7.788  0.00  0.00    +0.163 HD
ATOM      6  H   UNL     1      17.512  -1.556   5.186  0.00  0.00    +0.159 HD
ATOM      7  H   UNL     1      17.101  -1.808   6.840  0.00  0.00    +0.159 HD
ATOM      8  H   UNL     1      15.077   0.913   4.545  0.00  0.00    +0.159 HD
ATOM      9  H   UNL     1      16.367  -0.017   3.889  0.00  0.00    +0.159 HD
ENDROOT
BRANCH   1  10
ATOM     10  C   UNL     1      14.151   0.911   6.940  0.00  0.00    +0.151 C 
BRANCH  10  11
ATOM     11  C   UNL     1      12.808   0.251   6.794  0.00  0.00    -0.028 A 
ATOM     12  C   UNL     1      12.081  -0.144   7.926  0.00  0.00    +0.005 A 
ATOM     13  C   UNL     1      12.254   0.022   5.525  0.00  0.00    +0.005 A 
ATOM     14  C   UNL     1      10.821  -0.731   7.792  0.00  0.00    +0.000 A 
ATOM     15  C   UNL     1      10.996  -0.565   5.394  0.00  0.00    +0.000 A 
ATOM     16  C   UNL     1      10.278  -0.939   6.528  0.00  0.00    +0.000 A 
ENDBRANCH  10  11
ENDBRANCH   1  10
TORSDOF 2
ENDMDL
MODEL 6
REMARK VINA RESULT:    -5.337      3.490      4.513
REMARK INTER + INTRA:          -6.144
REMARK INTER:                  -6.021
REMARK INTRA:                  -0.123
REMARK UNBOUND:                -0.182
REMARK  Name = 1550473
REMARK  2 active torsions:
REMARK  status: ('A' for Active; 'I' for Inactive)
REMARK    1  A    between atoms: N_1  and  C_4
REMARK    2  A    between atoms: C_4  and  C_5
REMARK                            x       y       z     vdW  Elec       q    Type
REMARK                         _______ _______ _______ _____ _____    ______ ____
ROOT
ATOM      1  N   UNL     1      -4.388  12.958   0.555  0.00  0.00    -0.354 N 
ATOM      2  N   UNL     1      -5.722  13.846   2.227  0.00  0.00    -0.372 N 
ATOM      3  N   UNL     1      -3.458  13.704   2.572  0.00  0.00    -0.372 N 
ATOM      4  C   UNL     1      -4.511  13.497   1.775  0.00  0.00    +0.166 C 
ATOM      5  H   UNL     1      -5.228  12.798   0.011  0.00  0.00    +0.163 HD
ATOM      6  H   UNL     1      -5.846  14.258   3.142  0.00  0.00    +0.159 HD
ATOM      7  H   UNL     1      -6.555  13.728   1.663  0.00  0.00    +0.159 HD
ATOM      8  H   UNL     1      -2.518  13.457   2.293  0.00  0.00    +0.159 HD
ATOM      9  H   UNL     1      -3.563  14.105   3.496  0.00  0.00    +0.159 HD
ENDROOT
BRANCH   1  10
ATOM     10  C   UNL     1      -3.109  12.593  -0.052  0.00  0.00    +0.151 C 
BRANCH  10  11
ATOM     11  C   UNL     1      -3.317  11.418  -0.968  0.00  0.00    -0.028 A 
ATOM     12  C   UNL     1      -2.782  11.423  -2.265  0.00  0.00    +0.005 A 
ATOM     13  C   UNL     1      -4.044  10.296  -0.544  0.00  0.00    +0.005 A 
ATOM     14  C   UNL     1      -2.950  10.320  -3.106  0.00  0.00    +0.000 A 
ATOM     15  C   UNL     1      -4.211   9.197  -1.387  0.00  0.00    +0.000 A 
ATOM     16  C   UNL     1      -3.661   9.208  -2.667  0.00  0.00    +0.000 A 
ENDBRANCH  10  11
ENDBRANCH   1  10
TORSDOF 2
ENDMDL
MODEL 7
REMARK VINA RESULT:    -5.130      4.286      5.607
REMARK INTER + INTRA:          -5.913
REMARK INTER:                  -5.789
REMARK INTRA:                  -0.123
REMARK UNBOUND:                -0.182
REMARK  Name = 1550473
REMARK  2 active torsions:
REMARK  status: ('A' for Active; 'I' for Inactive)
REMARK    1  A    between atoms: N_1  and  C_4
REMARK    2  A    between atoms: C_4  and  C_5
REMARK                            x       y       z     vdW  Elec       q    Type
REMARK                         _______ _______ _______ _____ _____    ______ ____
ROOT
ATOM      1  N   UNL     1      -4.006  14.380   1.436  0.00  0.00    -0.354 N 
ATOM      2  N   UNL     1      -4.185  16.687   1.511  0.00  0.00    -0.372 N 
ATOM      3  N   UNL     1      -2.964  15.617   3.132  0.00  0.00    -0.372 N 
ATOM      4  C   UNL     1      -3.716  15.546   2.028  0.00  0.00    +0.166 C 
ATOM      5  H   UNL     1      -4.606  14.391   0.619  0.00  0.00    +0.163 HD
ATOM      6  H   UNL     1      -3.980  17.583   1.933  0.00  0.00    +0.159 HD
ATOM      7  H   UNL     1      -4.746  16.699   0.668  0.00  0.00    +0.159 HD
ATOM      8  H   UNL     1      -2.585  14.791   3.575  0.00  0.00    +0.159 HD
ATOM      9  H   UNL     1      -2.757  16.503   3.576  0.00  0.00    +0.159 HD
ENDROOT
BRANCH   1  10
ATOM     10  C   UNL     1      -3.501  13.085   1.889  0.00  0.00    +0.151 C 
BRANCH  10  11
ATOM     11  C   UNL     1      -3.466  12.136   0.722  0.00  0.00    -0.028 A 
ATOM     12  C   UNL     1      -3.788  10.782   0.896  0.00  0.00    +0.005 A 
ATOM     13  C   UNL     1      -3.117  12.586  -0.560  0.00  0.00    +0.005 A 
ATOM     14  C   UNL     1      -3.785   9.907  -0.193  0.00  0.00    +0.000 A 
ATOM     15  C   UNL     1      -3.114  11.709  -1.645  0.00  0.00    +0.000 A 
ATOM     16  C   UNL     1      -3.451  10.370  -1.461  0.00  0.00    +0.000 A 
ENDBRANCH  10  11
ENDBRANCH   1  10
TORSDOF 2
ENDMDL
MODEL 8
REMARK VINA RESULT:    -5.097     20.129     21.060
REMARK INTER + INTRA:          -5.876
REMARK INTER:                  -5.755
REMARK INTRA:                  -0.121
REMARK UNBOUND:                -0.182
REMARK  Name = 1550473
REMARK  2 active torsions:
REMARK  status: ('A' for Active; 'I' for Inactive)
REMARK    1  A    between atoms: N_1  and  C_4
REMARK    2  A    between atoms: C_4  and  C_5
REMARK                            x       y       z     vdW  Elec       q    Type
REMARK                         _______ _______ _______ _____ _____    ______ ____
ROOT
ATOM      1  N   UNL     1      16.192   1.049   4.051  0.00  0.00    -0.354 N 
ATOM      2  N   UNL     1      16.934   1.734   1.967  0.00  0.00    -0.372 N 
ATOM      3  N   UNL     1      17.761   2.776   3.837  0.00  0.00    -0.372 N 
ATOM      4  C   UNL     1      16.959   1.851   3.300  0.00  0.00    +0.166 C 
ATOM      5  H   UNL     1      15.583   0.388   3.582  0.00  0.00    +0.163 HD
ATOM      6  H   UNL     1      17.504   2.323   1.375  0.00  0.00    +0.159 HD
ATOM      7  H   UNL     1      16.359   1.042   1.503  0.00  0.00    +0.159 HD
ATOM      8  H   UNL     1      17.821   2.919   4.836  0.00  0.00    +0.159 HD
ATOM      9  H   UNL     1      18.330   3.383   3.260  0.00  0.00    +0.159 HD
ENDROOT
BRANCH   1  10
ATOM     10  C   UNL     1      16.185   1.058   5.513  0.00  0.00    +0.151 C 
BRANCH  10  11
ATOM     11  C   UNL     1      14.826   0.639   6.000  0.00  0.00    -0.028 A 
ATOM     12  C   UNL     1      14.033  -0.232   5.238  0.00  0.00    +0.005 A 
ATOM     13  C   UNL     1      14.326   1.105   7.226  0.00  0.00    +0.005 A 
ATOM     14  C   UNL     1      12.782  -0.644   5.705  0.00  0.00    +0.000 A 
ATOM     15  C   UNL     1      13.077   0.691   7.688  0.00  0.00    +0.000 A 
ATOM     16  C   UNL     1      12.307  -0.185   6.928  0.00  0.00    +0.000 A 
ENDBRANCH  10  11
ENDBRANCH   1  10
TORSDOF 2
ENDMDL
MODEL 9
REMARK VINA RESULT:    -4.957     15.857     16.665
REMARK INTER + INTRA:          -5.719
REMARK INTER:                  -5.593
REMARK INTRA:                  -0.126
REMARK UNBOUND:                -0.182
REMARK  Name = 1550473
REMARK  2 active torsions:
REMARK  status: ('A' for Active; 'I' for Inactive)
REMARK    1  A    between atoms: N_1  and  C_4
REMARK    2  A    between atoms: C_4  and  C_5
REMARK                            x       y       z     vdW  Elec       q    Type
REMARK                         _______ _______ _______ _____ _____    ______ ____
ROOT
ATOM      1  N   UNL     1      10.503  11.374  -9.623  0.00  0.00    -0.354 N 
ATOM      2  N   UNL     1      11.608  10.013  -8.109  0.00  0.00    -0.372 N 
ATOM      3  N   UNL     1      10.225  11.662  -7.314  0.00  0.00    -0.372 N 
ATOM      4  C   UNL     1      10.770  11.027  -8.357  0.00  0.00    +0.166 C 
ATOM      5  H   UNL     1      10.972  10.872 -10.369  0.00  0.00    +0.163 HD
ATOM      6  H   UNL     1      11.826   9.726  -7.164  0.00  0.00    +0.159 HD
ATOM      7  H   UNL     1      12.040   9.483  -8.857  0.00  0.00    +0.159 HD
ATOM      8  H   UNL     1       9.589  12.439  -7.433  0.00  0.00    +0.159 HD
ATOM      9  H   UNL     1      10.439  11.397  -6.361  0.00  0.00    +0.159 HD
ENDROOT
BRANCH   1  10
ATOM     10  C   UNL     1       9.564  12.428 -10.001  0.00  0.00    +0.151 C 
BRANCH  10  11
ATOM     11  C   UNL     1       9.187  12.255 -11.447  0.00  0.00    -0.028 A 
ATOM     12  C   UNL     1       9.581  11.109 -12.153  0.00  0.00    +0.005 A 
ATOM     13  C   UNL     1       8.432  13.231 -12.115  0.00  0.00    +0.005 A 
ATOM     14  C   UNL     1       9.206  10.934 -13.487  0.00  0.00    +0.000 A 
ATOM     15  C   UNL     1       8.060  13.053 -13.447  0.00  0.00    +0.000 A 
ATOM     16  C   UNL     1       8.445  11.903 -14.132  0.00  0.00    +0.000 A 
ENDBRANCH  10  11
ENDBRANCH   1  10
TORSDOF 2
ENDMDL
