MODEL 1
REMARK VINA RESULT:    -6.094      0.000      0.000
REMARK INTER + INTRA:          -6.943
REMARK INTER:                  -6.807
REMARK INTRA:                  -0.136
REMARK UNBOUND:                -0.136
REMARK  Name = 1550473
REMARK  2 active torsions:
REMARK  status: ('A' for Active; 'I' for Inactive)
REMARK    1  A    between atoms: N_1  and  C_4
REMARK    2  A    between atoms: C_4  and  C_5
REMARK                            x       y       z     vdW  Elec       q    Type
REMARK                         _______ _______ _______ _____ _____    ______ ____
ROOT
ATOM      1  N   UNL     1       2.719   5.822   9.277  0.00  0.00    -0.354 N 
ATOM      2  N   UNL     1       0.956   7.318   9.144  0.00  0.00    -0.372 N 
ATOM      3  N   UNL     1       0.505   5.068   9.133  0.00  0.00    -0.372 N 
ATOM      4  C   UNL     1       1.403   6.057   9.185  0.00  0.00    +0.166 C 
ATOM      5  H   UNL     1       3.350   6.615   9.282  0.00  0.00    +0.163 HD
ATOM      6  H   UNL     1      -0.032   7.526   9.078  0.00  0.00    +0.159 HD
ATOM      7  H   UNL     1       1.586   8.109   9.195  0.00  0.00    +0.159 HD
ATOM      8  H   UNL     1       0.779   4.094   9.154  0.00  0.00    +0.159 HD
ATOM      9  H   UNL     1      -0.487   5.256   9.055  0.00  0.00    +0.159 HD
ENDROOT
BRANCH   1  10
ATOM     10  C   UNL     1       3.306   4.488   9.383  0.00  0.00    +0.151 C 
BRANCH  10  11
ATOM     11  C   UNL     1       4.268   4.464  10.539  0.00  0.00    -0.028 A 
ATOM     12  C   UNL     1       4.086   5.322  11.634  0.00  0.00    +0.005 A 
ATOM     13  C   UNL     1       5.360   3.583  10.547  0.00  0.00    +0.005 A 
ATOM     14  C   UNL     1       4.963   5.280  12.721  0.00  0.00    +0.000 A 
ATOM     15  C   UNL     1       6.234   3.545  11.634  0.00  0.00    +0.000 A 
ATOM     16  C   UNL     1       6.033   4.391  12.722  0.00  0.00    +0.000 A 
ENDBRANCH  10  11
ENDBRANCH   1  10
TORSDOF 2
ENDMDL
MODEL 2
REMARK VINA RESULT:    -5.832      1.261      2.124
REMARK INTER + INTRA:          -6.650
REMARK INTER:                  -6.530
REMARK INTRA:                  -0.119
REMARK UNBOUND:                -0.136
REMARK  Name = 1550473
REMARK  2 active torsions:
REMARK  status: ('A' for Active; 'I' for Inactive)
REMARK    1  A    between atoms: N_1  and  C_4
REMARK    2  A    between atoms: C_4  and  C_5
REMARK                            x       y       z     vdW  Elec       q    Type
REMARK                         _______ _______ _______ _____ _____    ______ ____
ROOT
ATOM      1  N   UNL     1       2.579   4.892   9.612  0.00  0.00    -0.354 N 
ATOM      2  N   UNL     1       0.493   5.484   8.797  0.00  0.00    -0.372 N 
ATOM      3  N   UNL     1       1.959   7.142   9.404  0.00  0.00    -0.372 N 
ATOM      4  C   UNL     1       1.692   5.838   9.277  0.00  0.00    +0.166 C 
ATOM      5  H   UNL     1       2.304   3.920   9.520  0.00  0.00    +0.163 HD
ATOM      6  H   UNL     1      -0.195   6.176   8.532  0.00  0.00    +0.159 HD
ATOM      7  H   UNL     1       0.239   4.513   8.663  0.00  0.00    +0.159 HD
ATOM      8  H   UNL     1       2.842   7.475   9.766  0.00  0.00    +0.159 HD
ATOM      9  H   UNL     1       1.278   7.849   9.156  0.00  0.00    +0.159 HD
ENDROOT
BRANCH   1  10
ATOM     10  C   UNL     1       3.930   5.172  10.094  0.00  0.00    +0.151 C 
BRANCH  10  11
ATOM     11  C   UNL     1       4.598   3.876  10.465  0.00  0.00    -0.028 A 
ATOM     12  C   UNL     1       5.694   3.865  11.340  0.00  0.00    +0.005 A 
ATOM     13  C   UNL     1       4.135   2.656   9.949  0.00  0.00    +0.005 A 
ATOM     14  C   UNL     1       6.295   2.659  11.708  0.00  0.00    +0.000 A 
ATOM     15  C   UNL     1       4.739   1.454  10.319  0.00  0.00    +0.000 A 
ATOM     16  C   UNL     1       5.817   1.456  11.201  0.00  0.00    +0.000 A 
ENDBRANCH  10  11
ENDBRANCH   1  10
TORSDOF 2
ENDMDL
MODEL 3
REMARK VINA RESULT:    -5.701      4.337      5.799
REMARK INTER + INTRA:          -6.504
REMARK INTER:                  -6.383
REMARK INTRA:                  -0.121
REMARK UNBOUND:                -0.136
REMARK  Name = 1550473
REMARK  2 active torsions:
REMARK  status: ('A' for Active; 'I' for Inactive)
REMARK    1  A    between atoms: N_1  and  C_4
REMARK    2  A    between atoms: C_4  and  C_5
REMARK                            x       y       z     vdW  Elec       q    Type
REMARK                         _______ _______ _______ _____ _____    ______ ____
ROOT
ATOM      1  N   UNL     1       3.738   1.952  10.034  0.00  0.00    -0.354 N 
ATOM      2  N   UNL     1       3.501   4.250  10.202  0.00  0.00    -0.372 N 
ATOM      3  N   UNL     1       5.434   3.275  10.964  0.00  0.00    -0.372 N 
ATOM      4  C   UNL     1       4.228   3.143  10.400  0.00  0.00    +0.166 C 
ATOM      5  H   UNL     1       2.805   1.916   9.639  0.00  0.00    +0.163 HD
ATOM      6  H   UNL     1       3.846   5.163  10.465  0.00  0.00    +0.159 HD
ATOM      7  H   UNL     1       2.588   4.216   9.765  0.00  0.00    +0.159 HD
ATOM      8  H   UNL     1       6.029   2.479  11.147  0.00  0.00    +0.159 HD
ATOM      9  H   UNL     1       5.791   4.180  11.245  0.00  0.00    +0.159 HD
ENDROOT
BRANCH   1  10
ATOM     10  C   UNL     1       4.471   0.693  10.157  0.00  0.00    +0.151 C 
BRANCH  10  11
ATOM     11  C   UNL     1       4.797   0.178   8.782  0.00  0.00    -0.028 A 
ATOM     12  C   UNL     1       4.417  -1.116   8.397  0.00  0.00    +0.005 A 
ATOM     13  C   UNL     1       5.482   0.982   7.857  0.00  0.00    +0.005 A 
ATOM     14  C   UNL     1       4.693  -1.583   7.110  0.00  0.00    +0.000 A 
ATOM     15  C   UNL     1       5.756   0.511   6.573  0.00  0.00    +0.000 A 
ATOM     16  C   UNL     1       5.359  -0.771   6.199  0.00  0.00    +0.000 A 
ENDBRANCH  10  11
ENDBRANCH   1  10
TORSDOF 2
ENDMDL
MODEL 4
REMARK VINA RESULT:    -5.646      2.425      3.654
REMARK INTER + INTRA:          -6.442
REMARK INTER:                  -6.336
REMARK INTRA:                  -0.106
REMARK UNBOUND:                -0.136
REMARK  Name = 1550473
REMARK  2 active torsions:
REMARK  status: ('A' for Active; 'I' for Inactive)
REMARK    1  A    between atoms: N_1  and  C_4
REMARK    2  A    between atoms: C_4  and  C_5
REMARK                            x       y       z     vdW  Elec       q    Type
REMARK                         _______ _______ _______ _____ _____    ______ ____
ROOT
ATOM      1  N   UNL     1       2.705   4.357   8.997  0.00  0.00    -0.354 N 
ATOM      2  N   UNL     1       0.622   5.355   9.157  0.00  0.00    -0.372 N 
ATOM      3  N   UNL     1       2.494   6.629   9.531  0.00  0.00    -0.372 N 
ATOM      4  C   UNL     1       1.956   5.443   9.228  0.00  0.00    +0.166 C 
ATOM      5  H   UNL     1       2.236   3.480   8.803  0.00  0.00    +0.163 HD
ATOM      6  H   UNL     1       0.030   6.159   9.322  0.00  0.00    +0.159 HD
ATOM      7  H   UNL     1       0.157   4.488   8.916  0.00  0.00    +0.159 HD
ATOM      8  H   UNL     1       3.494   6.760   9.606  0.00  0.00    +0.159 HD
ATOM      9  H   UNL     1       1.918   7.441   9.711  0.00  0.00    +0.159 HD
ENDROOT
BRANCH   1  10
ATOM     10  C   UNL     1       4.167   4.357   8.998  0.00  0.00    +0.151 C 
BRANCH  10  11
ATOM     11  C   UNL     1       4.659   2.963   8.722  0.00  0.00    -0.028 A 
ATOM     12  C   UNL     1       5.649   2.736   7.754  0.00  0.00    +0.005 A 
ATOM     13  C   UNL     1       4.143   1.866   9.428  0.00  0.00    +0.005 A 
ATOM     14  C   UNL     1       6.127   1.445   7.519  0.00  0.00    +0.000 A 
ATOM     15  C   UNL     1       4.623   0.578   9.190  0.00  0.00    +0.000 A 
ATOM     16  C   UNL     1       5.617   0.368   8.237  0.00  0.00    +0.000 A 
ENDBRANCH  10  11
ENDBRANCH   1  10
TORSDOF 2
ENDMDL
MODEL 5
REMARK VINA RESULT:    -5.599     14.434     14.769
REMARK INTER + INTRA:          -6.390
REMARK INTER:                  -6.248
REMARK INTRA:                  -0.142
REMARK UNBOUND:                -0.136
REMARK  Name = 1550473
REMARK  2 active torsions:
REMARK  status: ('A' for Active; 'I' for Inactive)
REMARK    1  A    between atoms: N_1  and  C_4
REMARK    2  A    between atoms: C_4  and  C_5
REMARK                            x       y       z     vdW  Elec       q    Type
REMARK                         _______ _______ _______ _____ _____    ______ ____
ROOT
ATOM      1  N   UNL     1      -4.778  -4.000  18.443  0.00  0.00    -0.354 N 
ATOM      2  N   UNL     1      -4.906  -1.999  19.603  0.00  0.00    -0.372 N 
ATOM      3  N   UNL     1      -4.178  -1.975  17.427  0.00  0.00    -0.372 N 
ATOM      4  C   UNL     1      -4.619  -2.670  18.481  0.00  0.00    +0.166 C 
ATOM      5  H   UNL     1      -5.086  -4.472  19.285  0.00  0.00    +0.163 HD
ATOM      6  H   UNL     1      -4.800  -0.995  19.660  0.00  0.00    +0.159 HD
ATOM      7  H   UNL     1      -5.259  -2.468  20.429  0.00  0.00    +0.159 HD
ATOM      8  H   UNL     1      -3.938  -2.422  16.553  0.00  0.00    +0.159 HD
ATOM      9  H   UNL     1      -4.053  -0.971  17.469  0.00  0.00    +0.159 HD
ENDROOT
BRANCH   1  10
ATOM     10  C   UNL     1      -4.544  -4.817  17.254  0.00  0.00    +0.151 C 
BRANCH  10  11
ATOM     11  C   UNL     1      -3.552  -5.897  17.588  0.00  0.00    -0.028 A 
ATOM     12  C   UNL     1      -2.982  -5.970  18.867  0.00  0.00    +0.005 A 
ATOM     13  C   UNL     1      -3.182  -6.855  16.630  0.00  0.00    +0.005 A 
ATOM     14  C   UNL     1      -2.083  -6.991  19.187  0.00  0.00    +0.000 A 
ATOM     15  C   UNL     1      -2.284  -7.872  16.953  0.00  0.00    +0.000 A 
ATOM     16  C   UNL     1      -1.737  -7.941  18.232  0.00  0.00    +0.000 A 
ENDBRANCH  10  11
ENDBRANCH   1  10
TORSDOF 2
ENDMDL
MODEL 6
REMARK VINA RESULT:    -5.483      2.521      3.894
REMARK INTER + INTRA:          -6.261
REMARK INTER:                  -6.121
REMARK INTRA:                  -0.139
REMARK UNBOUND:                -0.136
REMARK  Name = 1550473
REMARK  2 active torsions:
REMARK  status: ('A' for Active; 'I' for Inactive)
REMARK    1  A    between atoms: N_1  and  C_4
REMARK    2  A    between atoms: C_4  and  C_5
REMARK                            x       y       z     vdW  Elec       q    Type
REMARK                         _______ _______ _______ _____ _____    ______ ____
ROOT
ATOM      1  N   UNL     1       4.753   4.951   9.801  0.00  0.00    -0.354 N 
ATOM      2  N   UNL     1       2.533   5.498  10.170  0.00  0.00    -0.372 N 
ATOM      3  N   UNL     1       3.898   5.126  11.976  0.00  0.00    -0.372 N 
ATOM      4  C   UNL     1       3.743   5.188  10.649  0.00  0.00    +0.166 C 
ATOM      5  H   UNL     1       4.563   4.984   8.806  0.00  0.00    +0.163 HD
ATOM      6  H   UNL     1       1.752   5.685  10.785  0.00  0.00    +0.159 HD
ATOM      7  H   UNL     1       2.357   5.575   9.175  0.00  0.00    +0.159 HD
ATOM      8  H   UNL     1       4.785   4.892  12.401  0.00  0.00    +0.159 HD
ATOM      9  H   UNL     1       3.126   5.299  12.608  0.00  0.00    +0.159 HD
ENDROOT
BRANCH   1  10
ATOM     10  C   UNL     1       6.122   4.659  10.221  0.00  0.00    +0.151 C 
BRANCH  10  11
ATOM     11  C   UNL     1       6.565   3.369   9.587  0.00  0.00    -0.028 A 
ATOM     12  C   UNL     1       7.470   2.525  10.247  0.00  0.00    +0.005 A 
ATOM     13  C   UNL     1       6.079   2.983   8.328  0.00  0.00    +0.005 A 
ATOM     14  C   UNL     1       7.859   1.313   9.672  0.00  0.00    +0.000 A 
ATOM     15  C   UNL     1       6.471   1.772   7.757  0.00  0.00    +0.000 A 
ATOM     16  C   UNL     1       7.358   0.936   8.430  0.00  0.00    +0.000 A 
ENDBRANCH  10  11
ENDBRANCH   1  10
TORSDOF 2
ENDMDL
MODEL 7
REMARK VINA RESULT:    -5.480      4.592      5.945
REMARK INTER + INTRA:          -6.257
REMARK INTER:                  -6.130
REMARK INTRA:                  -0.128
REMARK UNBOUND:                -0.136
REMARK  Name = 1550473
REMARK  2 active torsions:
REMARK  status: ('A' for Active; 'I' for Inactive)
REMARK    1  A    between atoms: N_1  and  C_4
REMARK    2  A    between atoms: C_4  and  C_5
REMARK                            x       y       z     vdW  Elec       q    Type
REMARK                         _______ _______ _______ _____ _____    ______ ____
ROOT
ATOM      1  N   UNL     1       4.450   1.007   8.841  0.00  0.00    -0.354 N 
ATOM      2  N   UNL     1       3.868  -1.109   9.583  0.00  0.00    -0.372 N 
ATOM      3  N   UNL     1       4.394   0.503  11.129  0.00  0.00    -0.372 N 
ATOM      4  C   UNL     1       4.242   0.149   9.849  0.00  0.00    +0.166 C 
ATOM      5  H   UNL     1       4.347   0.668   7.892  0.00  0.00    +0.163 HD
ATOM      6  H   UNL     1       3.701  -1.778  10.322  0.00  0.00    +0.159 HD
ATOM      7  H   UNL     1       3.722  -1.431   8.634  0.00  0.00    +0.159 HD
ATOM      8  H   UNL     1       4.681   1.435  11.397  0.00  0.00    +0.159 HD
ATOM      9  H   UNL     1       4.243  -0.156  11.883  0.00  0.00    +0.159 HD
ENDROOT
BRANCH   1  10
ATOM     10  C   UNL     1       4.807   2.413   9.025  0.00  0.00    +0.151 C 
BRANCH  10  11
ATOM     11  C   UNL     1       5.680   2.851   7.882  0.00  0.00    -0.028 A 
ATOM     12  C   UNL     1       5.730   2.104   6.696  0.00  0.00    +0.005 A 
ATOM     13  C   UNL     1       6.457   4.017   7.976  0.00  0.00    +0.005 A 
ATOM     14  C   UNL     1       6.517   2.527   5.623  0.00  0.00    +0.000 A 
ATOM     15  C   UNL     1       7.242   4.435   6.903  0.00  0.00    +0.000 A 
ATOM     16  C   UNL     1       7.271   3.691   5.725  0.00  0.00    +0.000 A 
ENDBRANCH  10  11
ENDBRANCH   1  10
TORSDOF 2
ENDMDL
MODEL 8
REMARK VINA RESULT:    -4.968      9.803     10.582
REMARK INTER + INTRA:          -5.685
REMARK INTER:                  -5.593
REMARK INTRA:                  -0.092
REMARK UNBOUND:                -0.136
REMARK  Name = 1550473
REMARK  2 active torsions:
REMARK  status: ('A' for Active; 'I' for Inactive)
REMARK    1  A    between atoms: N_1  and  C_4
REMARK    2  A    between atoms: C_4  and  C_5
REMARK                            x       y       z     vdW  Elec       q    Type
REMARK                         _______ _______ _______ _____ _____    ______ ____
ROOT
ATOM      1  N   UNL     1      10.732   6.113  18.546  0.00  0.00    -0.354 N 
ATOM      2  N   UNL     1      11.030   7.293  20.516  0.00  0.00    -0.372 N 
ATOM      3  N   UNL     1       8.922   7.143  19.621  0.00  0.00    -0.372 N 
ATOM      4  C   UNL     1      10.223   6.842  19.548  0.00  0.00    +0.166 C 
ATOM      5  H   UNL     1      11.731   5.945  18.532  0.00  0.00    +0.163 HD
ATOM      6  H   UNL     1      10.674   7.843  21.287  0.00  0.00    +0.159 HD
ATOM      7  H   UNL     1      12.021   7.085  20.524  0.00  0.00    +0.159 HD
ATOM      8  H   UNL     1       8.262   6.838  18.919  0.00  0.00    +0.159 HD
ATOM      9  H   UNL     1       8.549   7.702  20.378  0.00  0.00    +0.159 HD
ENDROOT
BRANCH   1  10
ATOM     10  C   UNL     1       9.931   5.529  17.471  0.00  0.00    +0.151 C 
BRANCH  10  11
ATOM     11  C   UNL     1      10.846   5.074  16.368  0.00  0.00    -0.028 A 
ATOM     12  C   UNL     1      11.409   3.789  16.395  0.00  0.00    +0.005 A 
ATOM     13  C   UNL     1      11.151   5.920  15.291  0.00  0.00    +0.005 A 
ATOM     14  C   UNL     1      12.235   3.355  15.356  0.00  0.00    +0.000 A 
ATOM     15  C   UNL     1      11.977   5.483  14.256  0.00  0.00    +0.000 A 
ATOM     16  C   UNL     1      12.517   4.200  14.287  0.00  0.00    +0.000 A 
ENDBRANCH  10  11
ENDBRANCH   1  10
TORSDOF 2
ENDMDL
MODEL 9
REMARK VINA RESULT:    -4.892     29.745     31.099
REMARK INTER + INTRA:          -5.601
REMARK INTER:                  -5.501
REMARK INTRA:                  -0.100
REMARK UNBOUND:                -0.136
REMARK  Name = 1550473
REMARK  2 active torsions:
REMARK  status: ('A' for Active; 'I' for Inactive)
REMARK    1  A    between atoms: N_1  and  C_4
REMARK    2  A    between atoms: C_4  and  C_5
REMARK                            x       y       z     vdW  Elec       q    Type
REMARK                         _______ _______ _______ _____ _____    ______ ____
ROOT
ATOM      1  N   UNL     1      -9.739  -7.327 -14.960  0.00  0.00    -0.354 N 
ATOM      2  N   UNL     1      -8.348  -9.168 -14.760  0.00  0.00    -0.372 N 
ATOM      3  N   UNL     1     -10.606  -9.445 -14.457  0.00  0.00    -0.372 N 
ATOM      4  C   UNL     1      -9.576  -8.636 -14.726  0.00  0.00    +0.166 C 
ATOM      5  H   UNL     1      -8.915  -6.762 -15.129  0.00  0.00    +0.163 HD
ATOM      6  H   UNL     1      -8.194 -10.153 -14.591  0.00  0.00    +0.159 HD
ATOM      7  H   UNL     1      -7.531  -8.609 -14.974  0.00  0.00    +0.159 HD
ATOM      8  H   UNL     1     -11.557  -9.105 -14.411  0.00  0.00    +0.159 HD
ATOM      9  H   UNL     1     -10.471 -10.432 -14.273  0.00  0.00    +0.159 HD
ENDROOT
BRANCH   1  10
ATOM     10  C   UNL     1     -11.039  -6.659 -15.000  0.00  0.00    +0.151 C 
BRANCH  10  11
ATOM     11  C   UNL     1     -10.837  -5.179 -14.829  0.00  0.00    -0.028 A 
ATOM     12  C   UNL     1     -10.525  -4.644 -13.571  0.00  0.00    +0.005 A 
ATOM     13  C   UNL     1     -10.949  -4.307 -15.923  0.00  0.00    +0.005 A 
ATOM     14  C   UNL     1     -10.307  -3.272 -13.417  0.00  0.00    +0.000 A 
ATOM     15  C   UNL     1     -10.732  -2.938 -15.765  0.00  0.00    +0.000 A 
ATOM     16  C   UNL     1     -10.408  -2.422 -14.513  0.00  0.00    +0.000 A 
ENDBRANCH  10  11
ENDBRANCH   1  10
TORSDOF 2
ENDMDL
