MODEL 1
REMARK VINA RESULT:    -4.992      0.000      0.000
REMARK INTER + INTRA:          -5.720
REMARK INTER:                  -5.576
REMARK INTRA:                  -0.144
REMARK UNBOUND:                -0.144
REMARK  Name = 1550473
REMARK  2 active torsions:
REMARK  status: ('A' for Active; 'I' for Inactive)
REMARK    1  A    between atoms: N_1  and  C_4
REMARK    2  A    between atoms: C_4  and  C_5
REMARK                            x       y       z     vdW  Elec       q    Type
REMARK                         _______ _______ _______ _____ _____    ______ ____
ROOT
ATOM      1  N   UNL     1     -15.869  -4.824  10.094  0.00  0.00    -0.354 N 
ATOM      2  N   UNL     1     -14.842  -5.796   8.260  0.00  0.00    -0.372 N 
ATOM      3  N   UNL     1     -14.829  -6.917  10.262  0.00  0.00    -0.372 N 
ATOM      4  C   UNL     1     -15.186  -5.841   9.553  0.00  0.00    +0.166 C 
ATOM      5  H   UNL     1     -16.083  -4.023   9.511  0.00  0.00    +0.163 HD
ATOM      6  H   UNL     1     -14.329  -6.550   7.823  0.00  0.00    +0.159 HD
ATOM      7  H   UNL     1     -15.097  -5.015   7.668  0.00  0.00    +0.159 HD
ATOM      8  H   UNL     1     -15.054  -7.010  11.244  0.00  0.00    +0.159 HD
ATOM      9  H   UNL     1     -14.306  -7.677   9.846  0.00  0.00    +0.159 HD
ENDROOT
BRANCH   1  10
ATOM     10  C   UNL     1     -16.339  -4.799  11.478  0.00  0.00    +0.151 C 
BRANCH  10  11
ATOM     11  C   UNL     1     -15.582  -3.742  12.235  0.00  0.00    -0.028 A 
ATOM     12  C   UNL     1     -14.196  -3.852  12.417  0.00  0.00    +0.005 A 
ATOM     13  C   UNL     1     -16.245  -2.626  12.768  0.00  0.00    +0.005 A 
ATOM     14  C   UNL     1     -13.488  -2.856  13.093  0.00  0.00    +0.000 A 
ATOM     15  C   UNL     1     -15.534  -1.634  13.443  0.00  0.00    +0.000 A 
ATOM     16  C   UNL     1     -14.155  -1.748  13.604  0.00  0.00    +0.000 A 
ENDBRANCH  10  11
ENDBRANCH   1  10
TORSDOF 2
ENDMDL
MODEL 2
REMARK VINA RESULT:    -4.989     18.172     18.965
REMARK INTER + INTRA:          -5.717
REMARK INTER:                  -5.559
REMARK INTRA:                  -0.158
REMARK UNBOUND:                -0.144
REMARK  Name = 1550473
REMARK  2 active torsions:
REMARK  status: ('A' for Active; 'I' for Inactive)
REMARK    1  A    between atoms: N_1  and  C_4
REMARK    2  A    between atoms: C_4  and  C_5
REMARK                            x       y       z     vdW  Elec       q    Type
REMARK                         _______ _______ _______ _____ _____    ______ ____
ROOT
ATOM      1  N   UNL     1      -3.723   8.056   1.352  0.00  0.00    -0.354 N 
ATOM      2  N   UNL     1      -1.931   9.512   1.173  0.00  0.00    -0.372 N 
ATOM      3  N   UNL     1      -3.844   9.957  -0.013  0.00  0.00    -0.372 N 
ATOM      4  C   UNL     1      -3.179   9.167   0.837  0.00  0.00    +0.166 C 
ATOM      5  H   UNL     1      -3.156   7.483   1.967  0.00  0.00    +0.163 HD
ATOM      6  H   UNL     1      -1.495  10.347   0.804  0.00  0.00    +0.159 HD
ATOM      7  H   UNL     1      -1.383   8.963   1.824  0.00  0.00    +0.159 HD
ATOM      8  H   UNL     1      -4.787   9.749  -0.312  0.00  0.00    +0.159 HD
ATOM      9  H   UNL     1      -3.421  10.790  -0.403  0.00  0.00    +0.159 HD
ENDROOT
BRANCH   1  10
ATOM     10  C   UNL     1      -5.094   7.620   1.091  0.00  0.00    +0.151 C 
BRANCH  10  11
ATOM     11  C   UNL     1      -6.002   8.202   2.139  0.00  0.00    -0.028 A 
ATOM     12  C   UNL     1      -5.644   8.160   3.494  0.00  0.00    +0.005 A 
ATOM     13  C   UNL     1      -7.219   8.801   1.782  0.00  0.00    +0.005 A 
ATOM     14  C   UNL     1      -6.473   8.727   4.465  0.00  0.00    +0.000 A 
ATOM     15  C   UNL     1      -8.045   9.366   2.755  0.00  0.00    +0.000 A 
ATOM     16  C   UNL     1      -7.670   9.330   4.095  0.00  0.00    +0.000 A 
ENDBRANCH  10  11
ENDBRANCH   1  10
TORSDOF 2
ENDMDL
MODEL 3
REMARK VINA RESULT:    -4.635     10.443     11.646
REMARK INTER + INTRA:          -5.321
REMARK INTER:                  -5.157
REMARK INTRA:                  -0.164
REMARK UNBOUND:                -0.144
REMARK  Name = 1550473
REMARK  2 active torsions:
REMARK  status: ('A' for Active; 'I' for Inactive)
REMARK    1  A    between atoms: N_1  and  C_4
REMARK    2  A    between atoms: C_4  and  C_5
REMARK                            x       y       z     vdW  Elec       q    Type
REMARK                         _______ _______ _______ _____ _____    ______ ____
ROOT
ATOM      1  N   UNL     1      -9.904  -0.657  19.402  0.00  0.00    -0.354 N 
ATOM      2  N   UNL     1     -11.783   0.181  20.466  0.00  0.00    -0.372 N 
ATOM      3  N   UNL     1      -9.714   0.632  21.350  0.00  0.00    -0.372 N 
ATOM      4  C   UNL     1     -10.453   0.047  20.401  0.00  0.00    +0.166 C 
ATOM      5  H   UNL     1     -10.520  -1.101  18.731  0.00  0.00    +0.163 HD
ATOM      6  H   UNL     1     -12.225   0.709  21.206  0.00  0.00    +0.159 HD
ATOM      7  H   UNL     1     -12.394  -0.225  19.768  0.00  0.00    +0.159 HD
ATOM      8  H   UNL     1      -8.705   0.564  21.361  0.00  0.00    +0.159 HD
ATOM      9  H   UNL     1     -10.139   1.155  22.105  0.00  0.00    +0.159 HD
ENDROOT
BRANCH   1  10
ATOM     10  C   UNL     1      -8.464  -0.818  19.209  0.00  0.00    +0.151 C 
BRANCH  10  11
ATOM     11  C   UNL     1      -8.062  -2.201  19.641  0.00  0.00    -0.028 A 
ATOM     12  C   UNL     1      -6.825  -2.422  20.263  0.00  0.00    +0.005 A 
ATOM     13  C   UNL     1      -8.917  -3.295  19.436  0.00  0.00    +0.005 A 
ATOM     14  C   UNL     1      -6.464  -3.702  20.691  0.00  0.00    +0.000 A 
ATOM     15  C   UNL     1      -8.553  -4.572  19.864  0.00  0.00    +0.000 A 
ATOM     16  C   UNL     1      -7.328  -4.774  20.493  0.00  0.00    +0.000 A 
ENDBRANCH  10  11
ENDBRANCH   1  10
TORSDOF 2
ENDMDL
MODEL 4
REMARK VINA RESULT:    -4.563     21.123     21.943
REMARK INTER + INTRA:          -5.240
REMARK INTER:                  -5.122
REMARK INTRA:                  -0.119
REMARK UNBOUND:                -0.144
REMARK  Name = 1550473
REMARK  2 active torsions:
REMARK  status: ('A' for Active; 'I' for Inactive)
REMARK    1  A    between atoms: N_1  and  C_4
REMARK    2  A    between atoms: C_4  and  C_5
REMARK                            x       y       z     vdW  Elec       q    Type
REMARK                         _______ _______ _______ _____ _____    ______ ____
ROOT
ATOM      1  N   UNL     1      -1.701  10.321  -0.658  0.00  0.00    -0.354 N 
ATOM      2  N   UNL     1      -0.583  11.448  -2.344  0.00  0.00    -0.372 N 
ATOM      3  N   UNL     1       0.032  11.819  -0.165  0.00  0.00    -0.372 N 
ATOM      4  C   UNL     1      -0.757  11.190  -1.043  0.00  0.00    +0.166 C 
ATOM      5  H   UNL     1      -2.287   9.899  -1.370  0.00  0.00    +0.163 HD
ATOM      6  H   UNL     1       0.124  12.096  -2.665  0.00  0.00    +0.159 HD
ATOM      7  H   UNL     1      -1.139  10.991  -3.057  0.00  0.00    +0.159 HD
ATOM      8  H   UNL     1      -0.052  11.673   0.832  0.00  0.00    +0.159 HD
ATOM      9  H   UNL     1       0.737  12.480  -0.466  0.00  0.00    +0.159 HD
ENDROOT
BRANCH   1  10
ATOM     10  C   UNL     1      -1.935   9.929   0.731  0.00  0.00    +0.151 C 
BRANCH  10  11
ATOM     11  C   UNL     1      -3.286   9.276   0.836  0.00  0.00    -0.028 A 
ATOM     12  C   UNL     1      -3.497   8.219   1.734  0.00  0.00    +0.005 A 
ATOM     13  C   UNL     1      -4.359   9.713   0.045  0.00  0.00    +0.005 A 
ATOM     14  C   UNL     1      -4.759   7.632   1.853  0.00  0.00    +0.000 A 
ATOM     15  C   UNL     1      -5.617   9.123   0.167  0.00  0.00    +0.000 A 
ATOM     16  C   UNL     1      -5.818   8.084   1.073  0.00  0.00    +0.000 A 
ENDBRANCH  10  11
ENDBRANCH   1  10
TORSDOF 2
ENDMDL
MODEL 5
REMARK VINA RESULT:    -4.528     19.664     21.182
REMARK INTER + INTRA:          -5.202
REMARK INTER:                  -5.080
REMARK INTRA:                  -0.122
REMARK UNBOUND:                -0.144
REMARK  Name = 1550473
REMARK  2 active torsions:
REMARK  status: ('A' for Active; 'I' for Inactive)
REMARK    1  A    between atoms: N_1  and  C_4
REMARK    2  A    between atoms: C_4  and  C_5
REMARK                            x       y       z     vdW  Elec       q    Type
REMARK                         _______ _______ _______ _____ _____    ______ ____
ROOT
ATOM      1  N   UNL     1      -6.276   2.215  -8.222  0.00  0.00    -0.354 N 
ATOM      2  N   UNL     1      -5.637   2.268 -10.447  0.00  0.00    -0.372 N 
ATOM      3  N   UNL     1      -4.067   1.758  -8.854  0.00  0.00    -0.372 N 
ATOM      4  C   UNL     1      -5.328   2.080  -9.158  0.00  0.00    +0.166 C 
ATOM      5  H   UNL     1      -7.207   2.491  -8.515  0.00  0.00    +0.163 HD
ATOM      6  H   UNL     1      -4.943   2.170 -11.176  0.00  0.00    +0.159 HD
ATOM      7  H   UNL     1      -6.578   2.498 -10.741  0.00  0.00    +0.159 HD
ATOM      8  H   UNL     1      -3.768   1.608  -7.899  0.00  0.00    +0.159 HD
ATOM      9  H   UNL     1      -3.356   1.666  -9.568  0.00  0.00    +0.159 HD
ENDROOT
BRANCH   1  10
ATOM     10  C   UNL     1      -6.057   1.979  -6.796  0.00  0.00    +0.151 C 
BRANCH  10  11
ATOM     11  C   UNL     1      -7.386   1.780  -6.121  0.00  0.00    -0.028 A 
ATOM     12  C   UNL     1      -8.464   1.223  -6.823  0.00  0.00    +0.005 A 
ATOM     13  C   UNL     1      -7.571   2.141  -4.777  0.00  0.00    +0.005 A 
ATOM     14  C   UNL     1      -9.690   1.009  -6.187  0.00  0.00    +0.000 A 
ATOM     15  C   UNL     1      -8.796   1.927  -4.147  0.00  0.00    +0.000 A 
ATOM     16  C   UNL     1      -9.855   1.359  -4.851  0.00  0.00    +0.000 A 
ENDBRANCH  10  11
ENDBRANCH   1  10
TORSDOF 2
ENDMDL
MODEL 6
REMARK VINA RESULT:    -4.525     17.240     17.883
REMARK INTER + INTRA:          -5.198
REMARK INTER:                  -5.077
REMARK INTRA:                  -0.121
REMARK UNBOUND:                -0.144
REMARK  Name = 1550473
REMARK  2 active torsions:
REMARK  status: ('A' for Active; 'I' for Inactive)
REMARK    1  A    between atoms: N_1  and  C_4
REMARK    2  A    between atoms: C_4  and  C_5
REMARK                            x       y       z     vdW  Elec       q    Type
REMARK                         _______ _______ _______ _____ _____    ______ ____
ROOT
ATOM      1  N   UNL     1      -6.125   6.936  -0.274  0.00  0.00    -0.354 N 
ATOM      2  N   UNL     1      -6.803   5.140  -1.571  0.00  0.00    -0.372 N 
ATOM      3  N   UNL     1      -4.660   5.170  -0.751  0.00  0.00    -0.372 N 
ATOM      4  C   UNL     1      -5.855   5.760  -0.857  0.00  0.00    +0.166 C 
ATOM      5  H   UNL     1      -7.041   7.345  -0.417  0.00  0.00    +0.163 HD
ATOM      6  H   UNL     1      -6.630   4.250  -2.019  0.00  0.00    +0.159 HD
ATOM      7  H   UNL     1      -7.732   5.529  -1.674  0.00  0.00    +0.159 HD
ATOM      8  H   UNL     1      -3.900   5.588  -0.231  0.00  0.00    +0.159 HD
ATOM      9  H   UNL     1      -4.464   4.285  -1.202  0.00  0.00    +0.159 HD
ENDROOT
BRANCH   1  10
ATOM     10  C   UNL     1      -5.180   7.666   0.569  0.00  0.00    +0.151 C 
BRANCH  10  11
ATOM     11  C   UNL     1      -5.894   8.150   1.801  0.00  0.00    -0.028 A 
ATOM     12  C   UNL     1      -5.289   8.046   3.062  0.00  0.00    +0.005 A 
ATOM     13  C   UNL     1      -7.173   8.721   1.713  0.00  0.00    +0.005 A 
ATOM     14  C   UNL     1      -5.939   8.523   4.202  0.00  0.00    +0.000 A 
ATOM     15  C   UNL     1      -7.819   9.195   2.854  0.00  0.00    +0.000 A 
ATOM     16  C   UNL     1      -7.201   9.098   4.098  0.00  0.00    +0.000 A 
ENDBRANCH  10  11
ENDBRANCH   1  10
TORSDOF 2
ENDMDL
MODEL 7
REMARK VINA RESULT:    -4.512     12.032     13.393
REMARK INTER + INTRA:          -5.184
REMARK INTER:                  -5.012
REMARK INTRA:                  -0.171
REMARK UNBOUND:                -0.144
REMARK  Name = 1550473
REMARK  2 active torsions:
REMARK  status: ('A' for Active; 'I' for Inactive)
REMARK    1  A    between atoms: N_1  and  C_4
REMARK    2  A    between atoms: C_4  and  C_5
REMARK                            x       y       z     vdW  Elec       q    Type
REMARK                         _______ _______ _______ _____ _____    ______ ____
ROOT
ATOM      1  N   UNL     1      -8.926  -2.079  23.962  0.00  0.00    -0.354 N 
ATOM      2  N   UNL     1      -7.699  -1.121  25.677  0.00  0.00    -0.372 N 
ATOM      3  N   UNL     1      -6.906  -3.028  24.677  0.00  0.00    -0.372 N 
ATOM      4  C   UNL     1      -7.850  -2.085  24.761  0.00  0.00    +0.166 C 
ATOM      5  H   UNL     1      -9.621  -1.354  24.096  0.00  0.00    +0.163 HD
ATOM      6  H   UNL     1      -6.896  -1.097  26.291  0.00  0.00    +0.159 HD
ATOM      7  H   UNL     1      -8.372  -0.371  25.778  0.00  0.00    +0.159 HD
ATOM      8  H   UNL     1      -6.964  -3.786  24.010  0.00  0.00    +0.159 HD
ATOM      9  H   UNL     1      -6.100  -3.027  25.290  0.00  0.00    +0.159 HD
ENDROOT
BRANCH   1  10
ATOM     10  C   UNL     1      -9.158  -3.052  22.896  0.00  0.00    +0.151 C 
BRANCH  10  11
ATOM     11  C   UNL     1      -8.879  -2.402  21.569  0.00  0.00    -0.028 A 
ATOM     12  C   UNL     1      -7.882  -2.910  20.724  0.00  0.00    +0.005 A 
ATOM     13  C   UNL     1      -9.612  -1.282  21.149  0.00  0.00    +0.005 A 
ATOM     14  C   UNL     1      -7.643  -2.325  19.478  0.00  0.00    +0.000 A 
ATOM     15  C   UNL     1      -9.370  -0.700  19.905  0.00  0.00    +0.000 A 
ATOM     16  C   UNL     1      -8.387  -1.224  19.068  0.00  0.00    +0.000 A 
ENDBRANCH  10  11
ENDBRANCH   1  10
TORSDOF 2
ENDMDL
MODEL 8
REMARK VINA RESULT:    -4.473     12.835     14.308
REMARK INTER + INTRA:          -5.140
REMARK INTER:                  -5.003
REMARK INTRA:                  -0.137
REMARK UNBOUND:                -0.144
REMARK  Name = 1550473
REMARK  2 active torsions:
REMARK  status: ('A' for Active; 'I' for Inactive)
REMARK    1  A    between atoms: N_1  and  C_4
REMARK    2  A    between atoms: C_4  and  C_5
REMARK                            x       y       z     vdW  Elec       q    Type
REMARK                         _______ _______ _______ _____ _____    ______ ____
ROOT
ATOM      1  N   UNL     1      -8.993  -0.988  24.191  0.00  0.00    -0.354 N 
ATOM      2  N   UNL     1      -8.432   0.872  25.452  0.00  0.00    -0.372 N 
ATOM      3  N   UNL     1      -7.621  -1.181  26.081  0.00  0.00    -0.372 N 
ATOM      4  C   UNL     1      -8.351  -0.446  25.235  0.00  0.00    +0.166 C 
ATOM      5  H   UNL     1      -9.555  -0.381  23.604  0.00  0.00    +0.163 HD
ATOM      6  H   UNL     1      -7.955   1.309  26.230  0.00  0.00    +0.159 HD
ATOM      7  H   UNL     1      -8.956   1.482  24.838  0.00  0.00    +0.159 HD
ATOM      8  H   UNL     1      -7.525  -2.182  25.976  0.00  0.00    +0.159 HD
ATOM      9  H   UNL     1      -7.147  -0.763  26.872  0.00  0.00    +0.159 HD
ENDROOT
BRANCH   1  10
ATOM     10  C   UNL     1      -8.926  -2.404  23.835  0.00  0.00    +0.151 C 
BRANCH  10  11
ATOM     11  C   UNL     1      -8.362  -2.535  22.447  0.00  0.00    -0.028 A 
ATOM     12  C   UNL     1      -9.069  -2.040  21.342  0.00  0.00    +0.005 A 
ATOM     13  C   UNL     1      -7.119  -3.149  22.232  0.00  0.00    +0.005 A 
ATOM     14  C   UNL     1      -8.531  -2.135  20.056  0.00  0.00    +0.000 A 
ATOM     15  C   UNL     1      -6.586  -3.243  20.946  0.00  0.00    +0.000 A 
ATOM     16  C   UNL     1      -7.291  -2.733  19.859  0.00  0.00    +0.000 A 
ENDBRANCH  10  11
ENDBRANCH   1  10
TORSDOF 2
ENDMDL
MODEL 9
REMARK VINA RESULT:    -4.472     11.681     12.851
REMARK INTER + INTRA:          -5.139
REMARK INTER:                  -4.974
REMARK INTRA:                  -0.166
REMARK UNBOUND:                -0.144
REMARK  Name = 1550473
REMARK  2 active torsions:
REMARK  status: ('A' for Active; 'I' for Inactive)
REMARK    1  A    between atoms: N_1  and  C_4
REMARK    2  A    between atoms: C_4  and  C_5
REMARK                            x       y       z     vdW  Elec       q    Type
REMARK                         _______ _______ _______ _____ _____    ______ ____
ROOT
ATOM      1  N   UNL     1      -7.925  -4.047  22.798  0.00  0.00    -0.354 N 
ATOM      2  N   UNL     1      -6.746  -3.825  24.779  0.00  0.00    -0.372 N 
ATOM      3  N   UNL     1      -5.585  -3.917  22.803  0.00  0.00    -0.372 N 
ATOM      4  C   UNL     1      -6.757  -3.932  23.445  0.00  0.00    +0.166 C 
ATOM      5  H   UNL     1      -8.777  -4.082  23.345  0.00  0.00    +0.163 HD
ATOM      6  H   UNL     1      -5.881  -3.734  25.295  0.00  0.00    +0.159 HD
ATOM      7  H   UNL     1      -7.602  -3.814  25.320  0.00  0.00    +0.159 HD
ATOM      8  H   UNL     1      -5.524  -4.000  21.797  0.00  0.00    +0.159 HD
ATOM      9  H   UNL     1      -4.708  -3.838  23.302  0.00  0.00    +0.159 HD
ENDROOT
BRANCH   1  10
ATOM     10  C   UNL     1      -8.050  -4.115  21.343  0.00  0.00    +0.151 C 
BRANCH  10  11
ATOM     11  C   UNL     1      -8.478  -2.770  20.824  0.00  0.00    -0.028 A 
ATOM     12  C   UNL     1      -7.988  -2.290  19.600  0.00  0.00    +0.005 A 
ATOM     13  C   UNL     1      -9.378  -1.973  21.548  0.00  0.00    +0.005 A 
ATOM     14  C   UNL     1      -8.409  -1.054  19.103  0.00  0.00    +0.000 A 
ATOM     15  C   UNL     1      -9.795  -0.739  21.048  0.00  0.00    +0.000 A 
ATOM     16  C   UNL     1      -9.313  -0.281  19.825  0.00  0.00    +0.000 A 
ENDBRANCH  10  11
ENDBRANCH   1  10
TORSDOF 2
ENDMDL
