MODEL 1
REMARK VINA RESULT:    -5.843      0.000      0.000
REMARK INTER + INTRA:          -6.700
REMARK INTER:                  -6.526
REMARK INTRA:                  -0.174
REMARK UNBOUND:                -0.174
REMARK  Name = 1550473
REMARK  2 active torsions:
REMARK  status: ('A' for Active; 'I' for Inactive)
REMARK    1  A    between atoms: N_1  and  C_4
REMARK    2  A    between atoms: C_4  and  C_5
REMARK                            x       y       z     vdW  Elec       q    Type
REMARK                         _______ _______ _______ _____ _____    ______ ____
ROOT
ATOM      1  N   UNL     1     -11.871   2.188   5.381  0.00  0.00    -0.354 N 
ATOM      2  N   UNL     1     -14.148   1.768   5.449  0.00  0.00    -0.372 N 
ATOM      3  N   UNL     1     -13.333   3.636   6.504  0.00  0.00    -0.372 N 
ATOM      4  C   UNL     1     -13.102   2.536   5.779  0.00  0.00    +0.166 C 
ATOM      5  H   UNL     1     -11.759   1.326   4.860  0.00  0.00    +0.163 HD
ATOM      6  H   UNL     1     -15.089   2.007   5.732  0.00  0.00    +0.159 HD
ATOM      7  H   UNL     1     -14.039   0.932   4.888  0.00  0.00    +0.159 HD
ATOM      8  H   UNL     1     -12.586   4.254   6.791  0.00  0.00    +0.159 HD
ATOM      9  H   UNL     1     -14.266   3.885   6.807  0.00  0.00    +0.159 HD
ENDROOT
BRANCH   1  10
ATOM     10  C   UNL     1     -10.672   2.983   5.643  0.00  0.00    +0.151 C 
BRANCH  10  11
ATOM     11  C   UNL     1     -10.292   3.724   4.391  0.00  0.00    -0.028 A 
ATOM     12  C   UNL     1      -9.385   3.165   3.480  0.00  0.00    +0.005 A 
ATOM     13  C   UNL     1     -10.840   4.985   4.107  0.00  0.00    +0.005 A 
ATOM     14  C   UNL     1      -9.054   3.840   2.302  0.00  0.00    +0.000 A 
ATOM     15  C   UNL     1     -10.507   5.656   2.931  0.00  0.00    +0.000 A 
ATOM     16  C   UNL     1      -9.616   5.082   2.027  0.00  0.00    +0.000 A 
ENDBRANCH  10  11
ENDBRANCH   1  10
TORSDOF 2
ENDMDL
MODEL 2
REMARK VINA RESULT:    -5.739      1.050      1.463
REMARK INTER + INTRA:          -6.583
REMARK INTER:                  -6.411
REMARK INTRA:                  -0.172
REMARK UNBOUND:                -0.174
REMARK  Name = 1550473
REMARK  2 active torsions:
REMARK  status: ('A' for Active; 'I' for Inactive)
REMARK    1  A    between atoms: N_1  and  C_4
REMARK    2  A    between atoms: C_4  and  C_5
REMARK                            x       y       z     vdW  Elec       q    Type
REMARK                         _______ _______ _______ _____ _____    ______ ____
ROOT
ATOM      1  N   UNL     1     -13.190   3.043   5.438  0.00  0.00    -0.354 N 
ATOM      2  N   UNL     1     -14.957   1.875   4.501  0.00  0.00    -0.372 N 
ATOM      3  N   UNL     1     -13.000   0.760   4.944  0.00  0.00    -0.372 N 
ATOM      4  C   UNL     1     -13.702   1.898   4.967  0.00  0.00    +0.166 C 
ATOM      5  H   UNL     1     -13.762   3.878   5.400  0.00  0.00    +0.163 HD
ATOM      6  H   UNL     1     -15.371   1.025   4.143  0.00  0.00    +0.159 HD
ATOM      7  H   UNL     1     -15.543   2.701   4.507  0.00  0.00    +0.159 HD
ATOM      8  H   UNL     1     -12.046   0.712   5.275  0.00  0.00    +0.159 HD
ATOM      9  H   UNL     1     -13.394  -0.098   4.578  0.00  0.00    +0.159 HD
ENDROOT
BRANCH   1  10
ATOM     10  C   UNL     1     -11.853   3.163   6.017  0.00  0.00    +0.151 C 
BRANCH  10  11
ATOM     11  C   UNL     1     -10.900   3.646   4.958  0.00  0.00    -0.028 A 
ATOM     12  C   UNL     1      -9.967   2.769   4.386  0.00  0.00    +0.005 A 
ATOM     13  C   UNL     1     -10.930   4.978   4.518  0.00  0.00    +0.005 A 
ATOM     14  C   UNL     1      -9.102   3.210   3.381  0.00  0.00    +0.000 A 
ATOM     15  C   UNL     1     -10.065   5.415   3.515  0.00  0.00    +0.000 A 
ATOM     16  C   UNL     1      -9.153   4.530   2.945  0.00  0.00    +0.000 A 
ENDBRANCH  10  11
ENDBRANCH   1  10
TORSDOF 2
ENDMDL
MODEL 3
REMARK VINA RESULT:    -5.137     23.445     24.365
REMARK INTER + INTRA:          -5.911
REMARK INTER:                  -5.780
REMARK INTRA:                  -0.131
REMARK UNBOUND:                -0.174
REMARK  Name = 1550473
REMARK  2 active torsions:
REMARK  status: ('A' for Active; 'I' for Inactive)
REMARK    1  A    between atoms: N_1  and  C_4
REMARK    2  A    between atoms: C_4  and  C_5
REMARK                            x       y       z     vdW  Elec       q    Type
REMARK                         _______ _______ _______ _____ _____    ______ ____
ROOT
ATOM      1  N   UNL     1     -11.142 -16.870  -5.688  0.00  0.00    -0.354 N 
ATOM      2  N   UNL     1     -12.219 -15.050  -6.633  0.00  0.00    -0.372 N 
ATOM      3  N   UNL     1     -13.477 -16.687  -5.632  0.00  0.00    -0.372 N 
ATOM      4  C   UNL     1     -12.275 -16.216  -5.978  0.00  0.00    +0.166 C 
ATOM      5  H   UNL     1     -10.264 -16.474  -6.004  0.00  0.00    +0.163 HD
ATOM      6  H   UNL     1     -13.056 -14.532  -6.862  0.00  0.00    +0.159 HD
ATOM      7  H   UNL     1     -11.337 -14.634  -6.907  0.00  0.00    +0.159 HD
ATOM      8  H   UNL     1     -13.588 -17.564  -5.141  0.00  0.00    +0.159 HD
ATOM      9  H   UNL     1     -14.328 -16.189  -5.863  0.00  0.00    +0.159 HD
ENDROOT
BRANCH   1  10
ATOM     10  C   UNL     1     -11.090 -18.119  -4.931  0.00  0.00    +0.151 C 
BRANCH  10  11
ATOM     11  C   UNL     1      -9.907 -18.925  -5.394  0.00  0.00    -0.028 A 
ATOM     12  C   UNL     1      -9.424 -19.989  -4.619  0.00  0.00    +0.005 A 
ATOM     13  C   UNL     1      -9.269 -18.633  -6.609  0.00  0.00    +0.005 A 
ATOM     14  C   UNL     1      -8.344 -20.757  -5.062  0.00  0.00    +0.000 A 
ATOM     15  C   UNL     1      -8.191 -19.401  -7.048  0.00  0.00    +0.000 A 
ATOM     16  C   UNL     1      -7.730 -20.464  -6.275  0.00  0.00    +0.000 A 
ENDBRANCH  10  11
ENDBRANCH   1  10
TORSDOF 2
ENDMDL
MODEL 4
REMARK VINA RESULT:    -4.980      8.202      9.411
REMARK INTER + INTRA:          -5.736
REMARK INTER:                  -5.614
REMARK INTRA:                  -0.122
REMARK UNBOUND:                -0.174
REMARK  Name = 1550473
REMARK  2 active torsions:
REMARK  status: ('A' for Active; 'I' for Inactive)
REMARK    1  A    between atoms: N_1  and  C_4
REMARK    2  A    between atoms: C_4  and  C_5
REMARK                            x       y       z     vdW  Elec       q    Type
REMARK                         _______ _______ _______ _____ _____    ______ ____
ROOT
ATOM      1  N   UNL     1      -8.110   9.967  -0.847  0.00  0.00    -0.354 N 
ATOM      2  N   UNL     1      -5.916  10.396  -1.452  0.00  0.00    -0.372 N 
ATOM      3  N   UNL     1      -6.922   8.480  -2.214  0.00  0.00    -0.372 N 
ATOM      4  C   UNL     1      -6.997   9.609  -1.501  0.00  0.00    +0.166 C 
ATOM      5  H   UNL     1      -8.093  10.820  -0.299  0.00  0.00    +0.163 HD
ATOM      6  H   UNL     1      -5.063  10.154  -1.938  0.00  0.00    +0.159 HD
ATOM      7  H   UNL     1      -5.917  11.271  -0.941  0.00  0.00    +0.159 HD
ATOM      8  H   UNL     1      -7.701   7.840  -2.287  0.00  0.00    +0.159 HD
ATOM      9  H   UNL     1      -6.074   8.215  -2.699  0.00  0.00    +0.159 HD
ENDROOT
BRANCH   1  10
ATOM     10  C   UNL     1      -9.359   9.207  -0.880  0.00  0.00    +0.151 C 
BRANCH  10  11
ATOM     11  C   UNL     1     -10.383   9.907  -0.030  0.00  0.00    -0.028 A 
ATOM     12  C   UNL     1     -10.173  11.227   0.396  0.00  0.00    +0.005 A 
ATOM     13  C   UNL     1     -11.567   9.257   0.349  0.00  0.00    +0.005 A 
ATOM     14  C   UNL     1     -11.137  11.887   1.161  0.00  0.00    +0.000 A 
ATOM     15  C   UNL     1     -12.527   9.920   1.114  0.00  0.00    +0.000 A 
ATOM     16  C   UNL     1     -12.313  11.236   1.517  0.00  0.00    +0.000 A 
ENDBRANCH  10  11
ENDBRANCH   1  10
TORSDOF 2
ENDMDL
MODEL 5
REMARK VINA RESULT:    -4.909     25.914     27.135
REMARK INTER + INTRA:          -5.657
REMARK INTER:                  -5.485
REMARK INTRA:                  -0.172
REMARK UNBOUND:                -0.174
REMARK  Name = 1550473
REMARK  2 active torsions:
REMARK  status: ('A' for Active; 'I' for Inactive)
REMARK    1  A    between atoms: N_1  and  C_4
REMARK    2  A    between atoms: C_4  and  C_5
REMARK                            x       y       z     vdW  Elec       q    Type
REMARK                         _______ _______ _______ _____ _____    ______ ____
ROOT
ATOM      1  N   UNL     1       0.669 -19.455   4.968  0.00  0.00    -0.354 N 
ATOM      2  N   UNL     1       2.973 -19.383   4.751  0.00  0.00    -0.372 N 
ATOM      3  N   UNL     1       1.685 -19.515   2.857  0.00  0.00    -0.372 N 
ATOM      4  C   UNL     1       1.760 -19.452   4.191  0.00  0.00    +0.166 C 
ATOM      5  H   UNL     1       0.794 -19.436   5.973  0.00  0.00    +0.163 HD
ATOM      6  H   UNL     1       3.815 -19.375   4.190  0.00  0.00    +0.159 HD
ATOM      7  H   UNL     1       3.094 -19.317   5.754  0.00  0.00    +0.159 HD
ATOM      8  H   UNL     1       0.799 -19.575   2.373  0.00  0.00    +0.159 HD
ATOM      9  H   UNL     1       2.516 -19.520   2.279  0.00  0.00    +0.159 HD
ENDROOT
BRANCH   1  10
ATOM     10  C   UNL     1      -0.700 -19.474   4.455  0.00  0.00    +0.151 C 
BRANCH  10  11
ATOM     11  C   UNL     1      -1.315 -20.815   4.745  0.00  0.00    -0.028 A 
ATOM     12  C   UNL     1      -1.339 -21.815   3.761  0.00  0.00    +0.005 A 
ATOM     13  C   UNL     1      -1.870 -21.095   6.003  0.00  0.00    +0.005 A 
ATOM     14  C   UNL     1      -1.883 -23.071   4.039  0.00  0.00    +0.000 A 
ATOM     15  C   UNL     1      -2.414 -22.350   6.276  0.00  0.00    +0.000 A 
ATOM     16  C   UNL     1      -2.418 -23.339   5.295  0.00  0.00    +0.000 A 
ENDBRANCH  10  11
ENDBRANCH   1  10
TORSDOF 2
ENDMDL
MODEL 6
REMARK VINA RESULT:    -4.879      2.048      2.824
REMARK INTER + INTRA:          -5.623
REMARK INTER:                  -5.446
REMARK INTRA:                  -0.178
REMARK UNBOUND:                -0.174
REMARK  Name = 1550473
REMARK  2 active torsions:
REMARK  status: ('A' for Active; 'I' for Inactive)
REMARK    1  A    between atoms: N_1  and  C_4
REMARK    2  A    between atoms: C_4  and  C_5
REMARK                            x       y       z     vdW  Elec       q    Type
REMARK                         _______ _______ _______ _____ _____    ______ ____
ROOT
ATOM      1  N   UNL     1     -13.645   2.083   2.934  0.00  0.00    -0.354 N 
ATOM      2  N   UNL     1     -13.329  -0.196   2.673  0.00  0.00    -0.372 N 
ATOM      3  N   UNL     1     -13.290   0.694   4.788  0.00  0.00    -0.372 N 
ATOM      4  C   UNL     1     -13.423   0.876   3.469  0.00  0.00    +0.166 C 
ATOM      5  H   UNL     1     -13.706   2.159   1.925  0.00  0.00    +0.163 HD
ATOM      6  H   UNL     1     -13.165  -1.120   3.048  0.00  0.00    +0.159 HD
ATOM      7  H   UNL     1     -13.436  -0.124   1.669  0.00  0.00    +0.159 HD
ATOM      8  H   UNL     1     -13.344   1.463   5.442  0.00  0.00    +0.159 HD
ATOM      9  H   UNL     1     -13.113  -0.222   5.181  0.00  0.00    +0.159 HD
ENDROOT
BRANCH   1  10
ATOM     10  C   UNL     1     -13.817   3.306   3.717  0.00  0.00    +0.151 C 
BRANCH  10  11
ATOM     11  C   UNL     1     -12.514   4.056   3.750  0.00  0.00    -0.028 A 
ATOM     12  C   UNL     1     -12.073   4.766   2.624  0.00  0.00    +0.005 A 
ATOM     13  C   UNL     1     -11.719   4.065   4.906  0.00  0.00    +0.005 A 
ATOM     14  C   UNL     1     -10.878   5.488   2.664  0.00  0.00    +0.000 A 
ATOM     15  C   UNL     1     -10.525   4.786   4.941  0.00  0.00    +0.000 A 
ATOM     16  C   UNL     1     -10.107   5.499   3.821  0.00  0.00    +0.000 A 
ENDBRANCH  10  11
ENDBRANCH   1  10
TORSDOF 2
ENDMDL
MODEL 7
REMARK VINA RESULT:    -4.779      3.942      5.538
REMARK INTER + INTRA:          -5.512
REMARK INTER:                  -5.372
REMARK INTRA:                  -0.140
REMARK UNBOUND:                -0.174
REMARK  Name = 1550473
REMARK  2 active torsions:
REMARK  status: ('A' for Active; 'I' for Inactive)
REMARK    1  A    between atoms: N_1  and  C_4
REMARK    2  A    between atoms: C_4  and  C_5
REMARK                            x       y       z     vdW  Elec       q    Type
REMARK                         _______ _______ _______ _____ _____    ______ ____
ROOT
ATOM      1  N   UNL     1      -9.008   4.154   0.703  0.00  0.00    -0.354 N 
ATOM      2  N   UNL     1      -8.364   5.462  -1.097  0.00  0.00    -0.372 N 
ATOM      3  N   UNL     1      -6.774   4.221  -0.003  0.00  0.00    -0.372 N 
ATOM      4  C   UNL     1      -8.050   4.603  -0.120  0.00  0.00    +0.166 C 
ATOM      5  H   UNL     1      -9.951   4.505   0.581  0.00  0.00    +0.163 HD
ATOM      6  H   UNL     1      -7.664   5.815  -1.735  0.00  0.00    +0.159 HD
ATOM      7  H   UNL     1      -9.315   5.776  -1.245  0.00  0.00    +0.159 HD
ATOM      8  H   UNL     1      -6.471   3.579   0.717  0.00  0.00    +0.159 HD
ATOM      9  H   UNL     1      -6.057   4.572  -0.625  0.00  0.00    +0.159 HD
ENDROOT
BRANCH   1  10
ATOM     10  C   UNL     1      -8.781   3.176   1.765  0.00  0.00    +0.151 C 
BRANCH  10  11
ATOM     11  C   UNL     1      -9.464   3.645   3.020  0.00  0.00    -0.028 A 
ATOM     12  C   UNL     1      -9.714   5.010   3.226  0.00  0.00    +0.005 A 
ATOM     13  C   UNL     1      -9.868   2.730   4.004  0.00  0.00    +0.005 A 
ATOM     14  C   UNL     1     -10.376   5.443   4.377  0.00  0.00    +0.000 A 
ATOM     15  C   UNL     1     -10.527   3.167   5.153  0.00  0.00    +0.000 A 
ATOM     16  C   UNL     1     -10.783   4.523   5.338  0.00  0.00    +0.000 A 
ENDBRANCH  10  11
ENDBRANCH   1  10
TORSDOF 2
ENDMDL
MODEL 8
REMARK VINA RESULT:    -4.751     29.560     30.627
REMARK INTER + INTRA:          -5.480
REMARK INTER:                  -5.366
REMARK INTRA:                  -0.114
REMARK UNBOUND:                -0.174
REMARK  Name = 1550473
REMARK  2 active torsions:
REMARK  status: ('A' for Active; 'I' for Inactive)
REMARK    1  A    between atoms: N_1  and  C_4
REMARK    2  A    between atoms: C_4  and  C_5
REMARK                            x       y       z     vdW  Elec       q    Type
REMARK                         _______ _______ _______ _____ _____    ______ ____
ROOT
ATOM      1  N   UNL     1      -1.529   4.453 -23.792  0.00  0.00    -0.354 N 
ATOM      2  N   UNL     1      -2.778   6.189 -22.904  0.00  0.00    -0.372 N 
ATOM      3  N   UNL     1      -2.114   6.310 -25.097  0.00  0.00    -0.372 N 
ATOM      4  C   UNL     1      -2.131   5.640 -23.940  0.00  0.00    +0.166 C 
ATOM      5  H   UNL     1      -1.553   4.011 -22.881  0.00  0.00    +0.163 HD
ATOM      6  H   UNL     1      -3.245   7.082 -22.986  0.00  0.00    +0.159 HD
ATOM      7  H   UNL     1      -2.840   5.723 -22.007  0.00  0.00    +0.159 HD
ATOM      8  H   UNL     1      -1.638   5.953 -25.915  0.00  0.00    +0.159 HD
ATOM      9  H   UNL     1      -2.565   7.211 -25.195  0.00  0.00    +0.159 HD
ENDROOT
BRANCH   1  10
ATOM     10  C   UNL     1      -0.844   3.744 -24.872  0.00  0.00    +0.151 C 
BRANCH  10  11
ATOM     11  C   UNL     1      -1.277   2.304 -24.866  0.00  0.00    -0.028 A 
ATOM     12  C   UNL     1      -0.815   1.426 -23.875  0.00  0.00    +0.005 A 
ATOM     13  C   UNL     1      -2.152   1.813 -25.847  0.00  0.00    +0.005 A 
ATOM     14  C   UNL     1      -1.241   0.096 -23.851  0.00  0.00    +0.000 A 
ATOM     15  C   UNL     1      -2.574   0.484 -25.820  0.00  0.00    +0.000 A 
ATOM     16  C   UNL     1      -2.120  -0.374 -24.821  0.00  0.00    +0.000 A 
ENDBRANCH  10  11
ENDBRANCH   1  10
TORSDOF 2
ENDMDL
MODEL 9
REMARK VINA RESULT:    -4.699     10.441     11.201
REMARK INTER + INTRA:          -5.422
REMARK INTER:                  -5.276
REMARK INTRA:                  -0.147
REMARK UNBOUND:                -0.174
REMARK  Name = 1550473
REMARK  2 active torsions:
REMARK  status: ('A' for Active; 'I' for Inactive)
REMARK    1  A    between atoms: N_1  and  C_4
REMARK    2  A    between atoms: C_4  and  C_5
REMARK                            x       y       z     vdW  Elec       q    Type
REMARK                         _______ _______ _______ _____ _____    ______ ____
ROOT
ATOM      1  N   UNL     1     -12.423  -4.709  -1.159  0.00  0.00    -0.354 N 
ATOM      2  N   UNL     1     -13.729  -3.169  -0.026  0.00  0.00    -0.372 N 
ATOM      3  N   UNL     1     -11.446  -2.957   0.052  0.00  0.00    -0.372 N 
ATOM      4  C   UNL     1     -12.522  -3.621  -0.384  0.00  0.00    +0.166 C 
ATOM      5  H   UNL     1     -13.276  -5.185  -1.432  0.00  0.00    +0.163 HD
ATOM      6  H   UNL     1     -13.835  -2.348   0.556  0.00  0.00    +0.159 HD
ATOM      7  H   UNL     1     -14.581  -3.619  -0.337  0.00  0.00    +0.159 HD
ATOM      8  H   UNL     1     -10.506  -3.250  -0.178  0.00  0.00    +0.159 HD
ATOM      9  H   UNL     1     -11.531  -2.141   0.644  0.00  0.00    +0.159 HD
ENDROOT
BRANCH   1  10
ATOM     10  C   UNL     1     -11.157  -5.251  -1.650  0.00  0.00    +0.151 C 
BRANCH  10  11
ATOM     11  C   UNL     1     -11.192  -5.295  -3.153  0.00  0.00    -0.028 A 
ATOM     12  C   UNL     1     -10.033  -5.596  -3.883  0.00  0.00    +0.005 A 
ATOM     13  C   UNL     1     -12.381  -5.041  -3.853  0.00  0.00    +0.005 A 
ATOM     14  C   UNL     1     -10.071  -5.666  -5.278  0.00  0.00    +0.000 A 
ATOM     15  C   UNL     1     -12.415  -5.111  -5.245  0.00  0.00    +0.000 A 
ATOM     16  C   UNL     1     -11.260  -5.426  -5.957  0.00  0.00    +0.000 A 
ENDBRANCH  10  11
ENDBRANCH   1  10
TORSDOF 2
ENDMDL
