MODEL 1
REMARK VINA RESULT:    -5.247      0.000      0.000
REMARK INTER + INTRA:          -5.985
REMARK INTER:                  -5.861
REMARK INTRA:                  -0.124
REMARK UNBOUND:                -0.124
REMARK  Name = 1550473
REMARK  2 active torsions:
REMARK  status: ('A' for Active; 'I' for Inactive)
REMARK    1  A    between atoms: N_1  and  C_4
REMARK    2  A    between atoms: C_4  and  C_5
REMARK                            x       y       z     vdW  Elec       q    Type
REMARK                         _______ _______ _______ _____ _____    ______ ____
ROOT
ATOM      1  N   UNL     1      13.854   0.238   1.010  0.00  0.00    -0.354 N 
ATOM      2  N   UNL     1      13.411  -2.028   0.821  0.00  0.00    -0.372 N 
ATOM      3  N   UNL     1      12.070  -0.745   2.170  0.00  0.00    -0.372 N 
ATOM      4  C   UNL     1      13.113  -0.829   1.337  0.00  0.00    +0.166 C 
ATOM      5  H   UNL     1      14.649   0.102   0.397  0.00  0.00    +0.163 HD
ATOM      6  H   UNL     1      12.868  -2.850   1.046  0.00  0.00    +0.159 HD
ATOM      7  H   UNL     1      14.179  -2.152   0.172  0.00  0.00    +0.159 HD
ATOM      8  H   UNL     1      11.796   0.130   2.598  0.00  0.00    +0.159 HD
ATOM      9  H   UNL     1      11.521  -1.559   2.417  0.00  0.00    +0.159 HD
ENDROOT
BRANCH   1  10
ATOM     10  C   UNL     1      13.580   1.597   1.475  0.00  0.00    +0.151 C 
BRANCH  10  11
ATOM     11  C   UNL     1      14.180   2.577   0.506  0.00  0.00    -0.028 A 
ATOM     12  C   UNL     1      14.250   2.275  -0.862  0.00  0.00    +0.005 A 
ATOM     13  C   UNL     1      14.676   3.814   0.948  0.00  0.00    +0.005 A 
ATOM     14  C   UNL     1      14.781   3.198  -1.767  0.00  0.00    +0.000 A 
ATOM     15  C   UNL     1      15.205   4.732   0.042  0.00  0.00    +0.000 A 
ATOM     16  C   UNL     1      15.255   4.425  -1.316  0.00  0.00    +0.000 A 
ENDBRANCH  10  11
ENDBRANCH   1  10
TORSDOF 2
ENDMDL
MODEL 2
REMARK VINA RESULT:    -5.167     20.520     21.385
REMARK INTER + INTRA:          -5.895
REMARK INTER:                  -5.798
REMARK INTRA:                  -0.097
REMARK UNBOUND:                -0.124
REMARK  Name = 1550473
REMARK  2 active torsions:
REMARK  status: ('A' for Active; 'I' for Inactive)
REMARK    1  A    between atoms: N_1  and  C_4
REMARK    2  A    between atoms: C_4  and  C_5
REMARK                            x       y       z     vdW  Elec       q    Type
REMARK                         _______ _______ _______ _____ _____    ______ ____
ROOT
ATOM      1  N   UNL     1       2.945  18.272   0.992  0.00  0.00    -0.354 N 
ATOM      2  N   UNL     1       5.131  17.882   0.332  0.00  0.00    -0.372 N 
ATOM      3  N   UNL     1       4.548  17.501   2.519  0.00  0.00    -0.372 N 
ATOM      4  C   UNL     1       4.194  17.887   1.288  0.00  0.00    +0.166 C 
ATOM      5  H   UNL     1       2.748  18.581   0.048  0.00  0.00    +0.163 HD
ATOM      6  H   UNL     1       6.081  17.593   0.525  0.00  0.00    +0.159 HD
ATOM      7  H   UNL     1       4.920  18.148  -0.622  0.00  0.00    +0.159 HD
ATOM      8  H   UNL     1       3.890  17.488   3.286  0.00  0.00    +0.159 HD
ATOM      9  H   UNL     1       5.497  17.220   2.734  0.00  0.00    +0.159 HD
ENDROOT
BRANCH   1  10
ATOM     10  C   UNL     1       1.839  18.262   1.948  0.00  0.00    +0.151 C 
BRANCH  10  11
ATOM     11  C   UNL     1       0.581  18.697   1.247  0.00  0.00    -0.028 A 
ATOM     12  C   UNL     1       0.010  17.897   0.247  0.00  0.00    +0.005 A 
ATOM     13  C   UNL     1      -0.047  19.906   1.584  0.00  0.00    +0.005 A 
ATOM     14  C   UNL     1      -1.174  18.287  -0.383  0.00  0.00    +0.000 A 
ATOM     15  C   UNL     1      -1.230  20.292   0.952  0.00  0.00    +0.000 A 
ATOM     16  C   UNL     1      -1.794  19.481  -0.030  0.00  0.00    +0.000 A 
ENDBRANCH  10  11
ENDBRANCH   1  10
TORSDOF 2
ENDMDL
MODEL 3
REMARK VINA RESULT:    -5.025      1.300      2.083
REMARK INTER + INTRA:          -5.736
REMARK INTER:                  -5.636
REMARK INTRA:                  -0.101
REMARK UNBOUND:                -0.124
REMARK  Name = 1550473
REMARK  2 active torsions:
REMARK  status: ('A' for Active; 'I' for Inactive)
REMARK    1  A    between atoms: N_1  and  C_4
REMARK    2  A    between atoms: C_4  and  C_5
REMARK                            x       y       z     vdW  Elec       q    Type
REMARK                         _______ _______ _______ _____ _____    ______ ____
ROOT
ATOM      1  N   UNL     1      14.645   0.194   0.321  0.00  0.00    -0.354 N 
ATOM      2  N   UNL     1      15.606  -1.753   1.128  0.00  0.00    -0.372 N 
ATOM      3  N   UNL     1      13.369  -1.750   0.614  0.00  0.00    -0.372 N 
ATOM      4  C   UNL     1      14.531  -1.091   0.683  0.00  0.00    +0.166 C 
ATOM      5  H   UNL     1      15.546   0.645   0.425  0.00  0.00    +0.163 HD
ATOM      6  H   UNL     1      15.551  -2.724   1.405  0.00  0.00    +0.159 HD
ATOM      7  H   UNL     1      16.516  -1.313   1.188  0.00  0.00    +0.159 HD
ATOM      8  H   UNL     1      12.520  -1.306   0.292  0.00  0.00    +0.159 HD
ATOM      9  H   UNL     1      13.292  -2.719   0.898  0.00  0.00    +0.159 HD
ENDROOT
BRANCH   1  10
ATOM     10  C   UNL     1      13.548   0.989  -0.228  0.00  0.00    +0.151 C 
BRANCH  10  11
ATOM     11  C   UNL     1      13.769   2.436   0.119  0.00  0.00    -0.028 A 
ATOM     12  C   UNL     1      13.269   2.965   1.318  0.00  0.00    +0.005 A 
ATOM     13  C   UNL     1      14.482   3.281  -0.745  0.00  0.00    +0.005 A 
ATOM     14  C   UNL     1      13.499   4.301   1.654  0.00  0.00    +0.000 A 
ATOM     15  C   UNL     1      14.709   4.615  -0.406  0.00  0.00    +0.000 A 
ATOM     16  C   UNL     1      14.220   5.123   0.795  0.00  0.00    +0.000 A 
ENDBRANCH  10  11
ENDBRANCH   1  10
TORSDOF 2
ENDMDL
MODEL 4
REMARK VINA RESULT:    -4.902      2.091      2.870
REMARK INTER + INTRA:          -5.599
REMARK INTER:                  -5.471
REMARK INTRA:                  -0.128
REMARK UNBOUND:                -0.124
REMARK  Name = 1550473
REMARK  2 active torsions:
REMARK  status: ('A' for Active; 'I' for Inactive)
REMARK    1  A    between atoms: N_1  and  C_4
REMARK    2  A    between atoms: C_4  and  C_5
REMARK                            x       y       z     vdW  Elec       q    Type
REMARK                         _______ _______ _______ _____ _____    ______ ____
ROOT
ATOM      1  N   UNL     1      15.202   0.545   0.106  0.00  0.00    -0.354 N 
ATOM      2  N   UNL     1      17.085  -0.726  -0.347  0.00  0.00    -0.372 N 
ATOM      3  N   UNL     1      15.523  -0.430  -2.001  0.00  0.00    -0.372 N 
ATOM      4  C   UNL     1      15.923  -0.196  -0.747  0.00  0.00    +0.166 C 
ATOM      5  H   UNL     1      15.546   0.660   1.052  0.00  0.00    +0.163 HD
ATOM      6  H   UNL     1      17.652  -1.286  -0.969  0.00  0.00    +0.159 HD
ATOM      7  H   UNL     1      17.449  -0.571   0.586  0.00  0.00    +0.159 HD
ATOM      8  H   UNL     1      14.652  -0.063  -2.363  0.00  0.00    +0.159 HD
ATOM      9  H   UNL     1      16.071  -0.998  -2.635  0.00  0.00    +0.159 HD
ENDROOT
BRANCH   1  10
ATOM     10  C   UNL     1      13.950   1.211  -0.247  0.00  0.00    +0.151 C 
BRANCH  10  11
ATOM     11  C   UNL     1      13.998   2.635   0.236  0.00  0.00    -0.028 A 
ATOM     12  C   UNL     1      14.760   3.593  -0.447  0.00  0.00    +0.005 A 
ATOM     13  C   UNL     1      13.278   3.032   1.374  0.00  0.00    +0.005 A 
ATOM     14  C   UNL     1      14.781   4.922  -0.016  0.00  0.00    +0.000 A 
ATOM     15  C   UNL     1      13.303   4.360   1.801  0.00  0.00    +0.000 A 
ATOM     16  C   UNL     1      14.052   5.305   1.104  0.00  0.00    +0.000 A 
ENDBRANCH  10  11
ENDBRANCH   1  10
TORSDOF 2
ENDMDL
MODEL 5
REMARK VINA RESULT:    -4.707     20.411     21.379
REMARK INTER + INTRA:          -5.381
REMARK INTER:                  -5.230
REMARK INTRA:                  -0.152
REMARK UNBOUND:                -0.124
REMARK  Name = 1550473
REMARK  2 active torsions:
REMARK  status: ('A' for Active; 'I' for Inactive)
REMARK    1  A    between atoms: N_1  and  C_4
REMARK    2  A    between atoms: C_4  and  C_5
REMARK                            x       y       z     vdW  Elec       q    Type
REMARK                         _______ _______ _______ _____ _____    ______ ____
ROOT
ATOM      1  N   UNL     1       0.579  19.911   1.613  0.00  0.00    -0.354 N 
ATOM      2  N   UNL     1      -0.465  19.647  -0.437  0.00  0.00    -0.372 N 
ATOM      3  N   UNL     1      -0.255  17.826   0.943  0.00  0.00    -0.372 N 
ATOM      4  C   UNL     1      -0.040  19.127   0.721  0.00  0.00    +0.166 C 
ATOM      5  H   UNL     1       0.738  20.883   1.372  0.00  0.00    +0.163 HD
ATOM      6  H   UNL     1      -0.938  19.081  -1.128  0.00  0.00    +0.159 HD
ATOM      7  H   UNL     1      -0.345  20.628  -0.656  0.00  0.00    +0.159 HD
ATOM      8  H   UNL     1       0.047  17.371   1.795  0.00  0.00    +0.159 HD
ATOM      9  H   UNL     1      -0.716  17.240   0.259  0.00  0.00    +0.159 HD
ENDROOT
BRANCH   1  10
ATOM     10  C   UNL     1       1.032  19.456   2.926  0.00  0.00    +0.151 C 
BRANCH  10  11
ATOM     11  C   UNL     1       2.530  19.325   2.911  0.00  0.00    -0.028 A 
ATOM     12  C   UNL     1       3.144  18.245   2.259  0.00  0.00    +0.005 A 
ATOM     13  C   UNL     1       3.342  20.280   3.541  0.00  0.00    +0.005 A 
ATOM     14  C   UNL     1       4.536  18.139   2.219  0.00  0.00    +0.000 A 
ATOM     15  C   UNL     1       4.732  20.170   3.499  0.00  0.00    +0.000 A 
ATOM     16  C   UNL     1       5.329  19.101   2.835  0.00  0.00    +0.000 A 
ENDBRANCH  10  11
ENDBRANCH   1  10
TORSDOF 2
ENDMDL
MODEL 6
REMARK VINA RESULT:    -4.702      1.731      2.250
REMARK INTER + INTRA:          -5.376
REMARK INTER:                  -5.238
REMARK INTRA:                  -0.137
REMARK UNBOUND:                -0.124
REMARK  Name = 1550473
REMARK  2 active torsions:
REMARK  status: ('A' for Active; 'I' for Inactive)
REMARK    1  A    between atoms: N_1  and  C_4
REMARK    2  A    between atoms: C_4  and  C_5
REMARK                            x       y       z     vdW  Elec       q    Type
REMARK                         _______ _______ _______ _____ _____    ______ ____
ROOT
ATOM      1  N   UNL     1      14.035  -1.164   2.130  0.00  0.00    -0.354 N 
ATOM      2  N   UNL     1      14.362  -3.378   2.723  0.00  0.00    -0.372 N 
ATOM      3  N   UNL     1      12.248  -2.679   2.168  0.00  0.00    -0.372 N 
ATOM      4  C   UNL     1      13.543  -2.393   2.336  0.00  0.00    +0.166 C 
ATOM      5  H   UNL     1      15.021  -1.004   2.304  0.00  0.00    +0.163 HD
ATOM      6  H   UNL     1      14.020  -4.317   2.883  0.00  0.00    +0.159 HD
ATOM      7  H   UNL     1      15.355  -3.227   2.852  0.00  0.00    +0.159 HD
ATOM      8  H   UNL     1      11.577  -1.978   1.883  0.00  0.00    +0.159 HD
ATOM      9  H   UNL     1      11.885  -3.610   2.335  0.00  0.00    +0.159 HD
ENDROOT
BRANCH   1  10
ATOM     10  C   UNL     1      13.239  -0.033   1.656  0.00  0.00    +0.151 C 
BRANCH  10  11
ATOM     11  C   UNL     1      13.959   0.631   0.515  0.00  0.00    -0.028 A 
ATOM     12  C   UNL     1      14.886  -0.086  -0.256  0.00  0.00    +0.005 A 
ATOM     13  C   UNL     1      13.715   1.976   0.197  0.00  0.00    +0.005 A 
ATOM     14  C   UNL     1      15.534   0.523  -1.334  0.00  0.00    +0.000 A 
ATOM     15  C   UNL     1      14.364   2.580  -0.880  0.00  0.00    +0.000 A 
ATOM     16  C   UNL     1      15.272   1.852  -1.647  0.00  0.00    +0.000 A 
ENDBRANCH  10  11
ENDBRANCH   1  10
TORSDOF 2
ENDMDL
MODEL 7
REMARK VINA RESULT:    -4.671     28.794     29.854
REMARK INTER + INTRA:          -5.341
REMARK INTER:                  -5.218
REMARK INTRA:                  -0.123
REMARK UNBOUND:                -0.124
REMARK  Name = 1550473
REMARK  2 active torsions:
REMARK  status: ('A' for Active; 'I' for Inactive)
REMARK    1  A    between atoms: N_1  and  C_4
REMARK    2  A    between atoms: C_4  and  C_5
REMARK                            x       y       z     vdW  Elec       q    Type
REMARK                         _______ _______ _______ _____ _____    ______ ____
ROOT
ATOM      1  N   UNL     1     -13.863   0.290   7.367  0.00  0.00    -0.354 N 
ATOM      2  N   UNL     1     -13.114   2.251   8.346  0.00  0.00    -0.372 N 
ATOM      3  N   UNL     1     -15.374   1.899   8.156  0.00  0.00    -0.372 N 
ATOM      4  C   UNL     1     -14.125   1.468   7.950  0.00  0.00    +0.166 C 
ATOM      5  H   UNL     1     -12.895   0.034   7.212  0.00  0.00    +0.163 HD
ATOM      6  H   UNL     1     -13.280   3.143   8.792  0.00  0.00    +0.159 HD
ATOM      7  H   UNL     1     -12.147   1.972   8.231  0.00  0.00    +0.159 HD
ATOM      8  H   UNL     1     -16.180   1.358   7.875  0.00  0.00    +0.159 HD
ATOM      9  H   UNL     1     -15.560   2.794   8.590  0.00  0.00    +0.159 HD
ENDROOT
BRANCH   1  10
ATOM     10  C   UNL     1     -14.892  -0.661   6.948  0.00  0.00    +0.151 C 
BRANCH  10  11
ATOM     11  C   UNL     1     -15.324  -0.330   5.546  0.00  0.00    -0.028 A 
ATOM     12  C   UNL     1     -14.375  -0.007   4.565  0.00  0.00    +0.005 A 
ATOM     13  C   UNL     1     -16.682  -0.344   5.191  0.00  0.00    +0.005 A 
ATOM     14  C   UNL     1     -14.774   0.270   3.256  0.00  0.00    +0.000 A 
ATOM     15  C   UNL     1     -17.076  -0.065   3.882  0.00  0.00    +0.000 A 
ATOM     16  C   UNL     1     -16.122   0.240   2.915  0.00  0.00    +0.000 A 
ENDBRANCH  10  11
ENDBRANCH   1  10
TORSDOF 2
ENDMDL
MODEL 8
REMARK VINA RESULT:    -4.646      3.301      4.560
REMARK INTER + INTRA:          -5.314
REMARK INTER:                  -5.192
REMARK INTRA:                  -0.121
REMARK UNBOUND:                -0.124
REMARK  Name = 1550473
REMARK  2 active torsions:
REMARK  status: ('A' for Active; 'I' for Inactive)
REMARK    1  A    between atoms: N_1  and  C_4
REMARK    2  A    between atoms: C_4  and  C_5
REMARK                            x       y       z     vdW  Elec       q    Type
REMARK                         _______ _______ _______ _____ _____    ______ ____
ROOT
ATOM      1  N   UNL     1      15.905   2.485  -2.091  0.00  0.00    -0.354 N 
ATOM      2  N   UNL     1      17.028   0.749  -3.134  0.00  0.00    -0.372 N 
ATOM      3  N   UNL     1      17.492   2.906  -3.764  0.00  0.00    -0.372 N 
ATOM      4  C   UNL     1      16.802   2.060  -2.991  0.00  0.00    +0.166 C 
ATOM      5  H   UNL     1      15.393   1.791  -1.558  0.00  0.00    +0.163 HD
ATOM      6  H   UNL     1      17.702   0.399  -3.803  0.00  0.00    +0.159 HD
ATOM      7  H   UNL     1      16.549   0.060  -2.568  0.00  0.00    +0.159 HD
ATOM      8  H   UNL     1      17.363   3.908  -3.709  0.00  0.00    +0.159 HD
ATOM      9  H   UNL     1      18.161   2.575  -4.446  0.00  0.00    +0.159 HD
ENDROOT
BRANCH   1  10
ATOM     10  C   UNL     1      15.623   3.893  -1.820  0.00  0.00    +0.151 C 
BRANCH  10  11
ATOM     11  C   UNL     1      14.798   3.996  -0.566  0.00  0.00    -0.028 A 
ATOM     12  C   UNL     1      14.105   2.879  -0.076  0.00  0.00    +0.005 A 
ATOM     13  C   UNL     1      14.710   5.206   0.139  0.00  0.00    +0.005 A 
ATOM     14  C   UNL     1      13.364   2.967   1.104  0.00  0.00    +0.000 A 
ATOM     15  C   UNL     1      13.968   5.289   1.317  0.00  0.00    +0.000 A 
ATOM     16  C   UNL     1      13.297   4.169   1.801  0.00  0.00    +0.000 A 
ENDBRANCH  10  11
ENDBRANCH   1  10
TORSDOF 2
ENDMDL
MODEL 9
REMARK VINA RESULT:    -4.510     33.757     35.230
REMARK INTER + INTRA:          -5.162
REMARK INTER:                  -5.031
REMARK INTRA:                  -0.131
REMARK UNBOUND:                -0.124
REMARK  Name = 1550473
REMARK  2 active torsions:
REMARK  status: ('A' for Active; 'I' for Inactive)
REMARK    1  A    between atoms: N_1  and  C_4
REMARK    2  A    between atoms: C_4  and  C_5
REMARK                            x       y       z     vdW  Elec       q    Type
REMARK                         _______ _______ _______ _____ _____    ______ ____
ROOT
ATOM      1  N   UNL     1     -14.868 -16.764  -8.107  0.00  0.00    -0.354 N 
ATOM      2  N   UNL     1     -14.400 -16.691 -10.374  0.00  0.00    -0.372 N 
ATOM      3  N   UNL     1     -16.272 -17.811  -9.664  0.00  0.00    -0.372 N 
ATOM      4  C   UNL     1     -15.185 -17.091  -9.367  0.00  0.00    +0.166 C 
ATOM      5  H   UNL     1     -14.014 -16.242  -7.946  0.00  0.00    +0.163 HD
ATOM      6  H   UNL     1     -14.616 -16.919 -11.335  0.00  0.00    +0.159 HD
ATOM      7  H   UNL     1     -13.572 -16.130 -10.214  0.00  0.00    +0.159 HD
ATOM      8  H   UNL     1     -16.903 -18.148  -8.949  0.00  0.00    +0.159 HD
ATOM      9  H   UNL     1     -16.499 -18.059 -10.618  0.00  0.00    +0.159 HD
ENDROOT
BRANCH   1  10
ATOM     10  C   UNL     1     -15.685 -17.104  -6.943  0.00  0.00    +0.151 C 
BRANCH  10  11
ATOM     11  C   UNL     1     -15.548 -16.018  -5.912  0.00  0.00    -0.028 A 
ATOM     12  C   UNL     1     -16.318 -16.048  -4.740  0.00  0.00    +0.005 A 
ATOM     13  C   UNL     1     -14.646 -14.959  -6.099  0.00  0.00    +0.005 A 
ATOM     14  C   UNL     1     -16.169 -15.055  -3.769  0.00  0.00    +0.000 A 
ATOM     15  C   UNL     1     -14.501 -13.970  -5.127  0.00  0.00    +0.000 A 
ATOM     16  C   UNL     1     -15.261 -14.019  -3.961  0.00  0.00    +0.000 A 
ENDBRANCH  10  11
ENDBRANCH   1  10
TORSDOF 2
ENDMDL
