MODEL 1
REMARK VINA RESULT:    -4.709      0.000      0.000
REMARK INTER + INTRA:          -5.394
REMARK INTER:                  -5.259
REMARK INTRA:                  -0.135
REMARK UNBOUND:                -0.135
REMARK  Name = 1550473
REMARK  2 active torsions:
REMARK  status: ('A' for Active; 'I' for Inactive)
REMARK    1  A    between atoms: N_1  and  C_4
REMARK    2  A    between atoms: C_4  and  C_5
REMARK                            x       y       z     vdW  Elec       q    Type
REMARK                         _______ _______ _______ _____ _____    ______ ____
ROOT
ATOM      1  N   UNL     1      -3.090  -5.380 -28.653  0.00  0.00    -0.354 N 
ATOM      2  N   UNL     1      -3.556  -5.922 -26.450  0.00  0.00    -0.372 N 
ATOM      3  N   UNL     1      -4.690  -7.008 -28.123  0.00  0.00    -0.372 N 
ATOM      4  C   UNL     1      -3.778  -6.101 -27.757  0.00  0.00    +0.166 C 
ATOM      5  H   UNL     1      -2.434  -4.687 -28.310  0.00  0.00    +0.163 HD
ATOM      6  H   UNL     1      -4.058  -6.454 -25.751  0.00  0.00    +0.159 HD
ATOM      7  H   UNL     1      -2.867  -5.261 -26.112  0.00  0.00    +0.159 HD
ATOM      8  H   UNL     1      -4.908  -7.187 -29.094  0.00  0.00    +0.159 HD
ATOM      9  H   UNL     1      -5.210  -7.542 -27.438  0.00  0.00    +0.159 HD
ENDROOT
BRANCH   1  10
ATOM     10  C   UNL     1      -3.217  -5.537 -30.100  0.00  0.00    +0.151 C 
BRANCH  10  11
ATOM     11  C   UNL     1      -1.852  -5.762 -30.692  0.00  0.00    -0.028 A 
ATOM     12  C   UNL     1      -1.545  -5.285 -31.974  0.00  0.00    +0.005 A 
ATOM     13  C   UNL     1      -0.861  -6.446 -29.972  0.00  0.00    +0.005 A 
ATOM     14  C   UNL     1      -0.268  -5.467 -32.512  0.00  0.00    +0.000 A 
ATOM     15  C   UNL     1       0.412  -6.627 -30.512  0.00  0.00    +0.000 A 
ATOM     16  C   UNL     1       0.709  -6.135 -31.781  0.00  0.00    +0.000 A 
ENDBRANCH  10  11
ENDBRANCH   1  10
TORSDOF 2
ENDMDL
MODEL 2
REMARK VINA RESULT:    -4.511     16.242     17.772
REMARK INTER + INTRA:          -5.173
REMARK INTER:                  -5.045
REMARK INTRA:                  -0.128
REMARK UNBOUND:                -0.135
REMARK  Name = 1550473
REMARK  2 active torsions:
REMARK  status: ('A' for Active; 'I' for Inactive)
REMARK    1  A    between atoms: N_1  and  C_4
REMARK    2  A    between atoms: C_4  and  C_5
REMARK                            x       y       z     vdW  Elec       q    Type
REMARK                         _______ _______ _______ _____ _____    ______ ____
ROOT
ATOM      1  N   UNL     1     -10.224 -20.223 -20.840  0.00  0.00    -0.354 N 
ATOM      2  N   UNL     1      -9.513 -20.619 -18.671  0.00  0.00    -0.372 N 
ATOM      3  N   UNL     1      -9.150 -22.226 -20.269  0.00  0.00    -0.372 N 
ATOM      4  C   UNL     1      -9.633 -21.022 -19.942  0.00  0.00    +0.166 C 
ATOM      5  H   UNL     1     -10.597 -19.335 -20.522  0.00  0.00    +0.163 HD
ATOM      6  H   UNL     1      -9.069 -21.199 -17.972  0.00  0.00    +0.159 HD
ATOM      7  H   UNL     1      -9.845 -19.712 -18.367  0.00  0.00    +0.159 HD
ATOM      8  H   UNL     1      -9.214 -22.591 -21.209  0.00  0.00    +0.159 HD
ATOM      9  H   UNL     1      -8.712 -22.826 -19.581  0.00  0.00    +0.159 HD
ENDROOT
BRANCH   1  10
ATOM     10  C   UNL     1     -10.357 -20.545 -22.259  0.00  0.00    +0.151 C 
BRANCH  10  11
ATOM     11  C   UNL     1     -10.543 -19.271 -23.037  0.00  0.00    -0.028 A 
ATOM     12  C   UNL     1     -10.518 -18.029 -22.385  0.00  0.00    +0.005 A 
ATOM     13  C   UNL     1     -10.739 -19.299 -24.426  0.00  0.00    +0.005 A 
ATOM     14  C   UNL     1     -10.661 -16.844 -23.111  0.00  0.00    +0.000 A 
ATOM     15  C   UNL     1     -10.882 -18.114 -25.147  0.00  0.00    +0.000 A 
ATOM     16  C   UNL     1     -10.841 -16.887 -24.490  0.00  0.00    +0.000 A 
ENDBRANCH  10  11
ENDBRANCH   1  10
TORSDOF 2
ENDMDL
MODEL 3
REMARK VINA RESULT:    -4.368     47.156     48.661
REMARK INTER + INTRA:          -5.013
REMARK INTER:                  -4.840
REMARK INTRA:                  -0.172
REMARK UNBOUND:                -0.135
REMARK  Name = 1550473
REMARK  2 active torsions:
REMARK  status: ('A' for Active; 'I' for Inactive)
REMARK    1  A    between atoms: N_1  and  C_4
REMARK    2  A    between atoms: C_4  and  C_5
REMARK                            x       y       z     vdW  Elec       q    Type
REMARK                         _______ _______ _______ _____ _____    ______ ____
ROOT
ATOM      1  N   UNL     1      15.677  -1.618  16.657  0.00  0.00    -0.354 N 
ATOM      2  N   UNL     1      13.816  -0.802  17.769  0.00  0.00    -0.372 N 
ATOM      3  N   UNL     1      13.517  -1.988  15.827  0.00  0.00    -0.372 N 
ATOM      4  C   UNL     1      14.348  -1.476  16.741  0.00  0.00    +0.166 C 
ATOM      5  H   UNL     1      16.254  -1.180  17.366  0.00  0.00    +0.163 HD
ATOM      6  H   UNL     1      12.816  -0.682  17.861  0.00  0.00    +0.159 HD
ATOM      7  H   UNL     1      14.393  -0.405  18.501  0.00  0.00    +0.159 HD
ATOM      8  H   UNL     1      13.855  -2.501  15.024  0.00  0.00    +0.159 HD
ATOM      9  H   UNL     1      12.514  -1.867  15.895  0.00  0.00    +0.159 HD
ENDROOT
BRANCH   1  10
ATOM     10  C   UNL     1      16.353  -2.378  15.607  0.00  0.00    +0.151 C 
BRANCH  10  11
ATOM     11  C   UNL     1      16.941  -1.421  14.608  0.00  0.00    -0.028 A 
ATOM     12  C   UNL     1      16.671  -1.566  13.239  0.00  0.00    +0.005 A 
ATOM     13  C   UNL     1      17.764  -0.363  15.024  0.00  0.00    +0.005 A 
ATOM     14  C   UNL     1      17.193  -0.659  12.313  0.00  0.00    +0.000 A 
ATOM     15  C   UNL     1      18.283   0.540  14.096  0.00  0.00    +0.000 A 
ATOM     16  C   UNL     1      17.995   0.393  12.741  0.00  0.00    +0.000 A 
ENDBRANCH  10  11
ENDBRANCH   1  10
TORSDOF 2
ENDMDL
MODEL 4
REMARK VINA RESULT:    -4.360     28.270     29.450
REMARK INTER + INTRA:          -5.004
REMARK INTER:                  -4.886
REMARK INTRA:                  -0.118
REMARK UNBOUND:                -0.135
REMARK  Name = 1550473
REMARK  2 active torsions:
REMARK  status: ('A' for Active; 'I' for Inactive)
REMARK    1  A    between atoms: N_1  and  C_4
REMARK    2  A    between atoms: C_4  and  C_5
REMARK                            x       y       z     vdW  Elec       q    Type
REMARK                         _______ _______ _______ _____ _____    ______ ____
ROOT
ATOM      1  N   UNL     1     -18.522  11.702 -48.528  0.00  0.00    -0.354 N 
ATOM      2  N   UNL     1     -19.429  13.795 -48.925  0.00  0.00    -0.372 N 
ATOM      3  N   UNL     1     -17.497  13.199 -50.011  0.00  0.00    -0.372 N 
ATOM      4  C   UNL     1     -18.474  12.885 -49.154  0.00  0.00    +0.166 C 
ATOM      5  H   UNL     1     -19.272  11.537 -47.867  0.00  0.00    +0.163 HD
ATOM      6  H   UNL     1     -19.421  14.696 -49.385  0.00  0.00    +0.159 HD
ATOM      7  H   UNL     1     -20.203  13.610 -48.299  0.00  0.00    +0.159 HD
ATOM      8  H   UNL     1     -16.744  12.559 -50.222  0.00  0.00    +0.159 HD
ATOM      9  H   UNL     1     -17.466  14.100 -50.472  0.00  0.00    +0.159 HD
ENDROOT
BRANCH   1  10
ATOM     10  C   UNL     1     -17.561  10.622 -48.748  0.00  0.00    +0.151 C 
BRANCH  10  11
ATOM     11  C   UNL     1     -17.826   9.521 -47.758  0.00  0.00    -0.028 A 
ATOM     12  C   UNL     1     -17.514   8.190 -48.074  0.00  0.00    +0.005 A 
ATOM     13  C   UNL     1     -18.383   9.802 -46.501  0.00  0.00    +0.005 A 
ATOM     14  C   UNL     1     -17.732   7.171 -47.143  0.00  0.00    +0.000 A 
ATOM     15  C   UNL     1     -18.599   8.781 -45.576  0.00  0.00    +0.000 A 
ATOM     16  C   UNL     1     -18.271   7.466 -45.896  0.00  0.00    +0.000 A 
ENDBRANCH  10  11
ENDBRANCH   1  10
TORSDOF 2
ENDMDL
MODEL 5
REMARK VINA RESULT:    -4.346     54.831     56.051
REMARK INTER + INTRA:          -4.989
REMARK INTER:                  -4.873
REMARK INTRA:                  -0.116
REMARK UNBOUND:                -0.135
REMARK  Name = 1550473
REMARK  2 active torsions:
REMARK  status: ('A' for Active; 'I' for Inactive)
REMARK    1  A    between atoms: N_1  and  C_4
REMARK    2  A    between atoms: C_4  and  C_5
REMARK                            x       y       z     vdW  Elec       q    Type
REMARK                         _______ _______ _______ _____ _____    ______ ____
ROOT
ATOM      1  N   UNL     1      22.459   2.776  19.230  0.00  0.00    -0.354 N 
ATOM      2  N   UNL     1      22.638   4.772  18.069  0.00  0.00    -0.372 N 
ATOM      3  N   UNL     1      23.417   4.669  20.224  0.00  0.00    -0.372 N 
ATOM      4  C   UNL     1      22.838   4.060  19.184  0.00  0.00    +0.166 C 
ATOM      5  H   UNL     1      21.997   2.381  18.418  0.00  0.00    +0.163 HD
ATOM      6  H   UNL     1      22.917   5.742  18.003  0.00  0.00    +0.159 HD
ATOM      7  H   UNL     1      22.218   4.362  17.243  0.00  0.00    +0.159 HD
ATOM      8  H   UNL     1      23.591   4.189  21.097  0.00  0.00    +0.159 HD
ATOM      9  H   UNL     1      23.693   5.643  20.182  0.00  0.00    +0.159 HD
ENDROOT
BRANCH   1  10
ATOM     10  C   UNL     1      22.680   1.898  20.378  0.00  0.00    +0.151 C 
BRANCH  10  11
ATOM     11  C   UNL     1      21.412   1.143  20.670  0.00  0.00    -0.028 A 
ATOM     12  C   UNL     1      20.749   1.312  21.894  0.00  0.00    +0.005 A 
ATOM     13  C   UNL     1      20.867   0.262  19.724  0.00  0.00    +0.005 A 
ATOM     14  C   UNL     1      19.556   0.633  22.154  0.00  0.00    +0.000 A 
ATOM     15  C   UNL     1      19.676  -0.415  19.987  0.00  0.00    +0.000 A 
ATOM     16  C   UNL     1      19.019  -0.227  21.201  0.00  0.00    +0.000 A 
ENDBRANCH  10  11
ENDBRANCH   1  10
TORSDOF 2
ENDMDL
MODEL 6
REMARK VINA RESULT:    -4.209     12.142     15.509
REMARK INTER + INTRA:          -4.835
REMARK INTER:                  -4.728
REMARK INTRA:                  -0.108
REMARK UNBOUND:                -0.135
REMARK  Name = 1550473
REMARK  2 active torsions:
REMARK  status: ('A' for Active; 'I' for Inactive)
REMARK    1  A    between atoms: N_1  and  C_4
REMARK    2  A    between atoms: C_4  and  C_5
REMARK                            x       y       z     vdW  Elec       q    Type
REMARK                         _______ _______ _______ _____ _____    ______ ____
ROOT
ATOM      1  N   UNL     1     -10.384  -5.722 -19.537  0.00  0.00    -0.354 N 
ATOM      2  N   UNL     1      -9.479  -6.607 -21.476  0.00  0.00    -0.372 N 
ATOM      3  N   UNL     1      -9.300  -4.351 -21.098  0.00  0.00    -0.372 N 
ATOM      4  C   UNL     1      -9.727  -5.551 -20.691  0.00  0.00    +0.166 C 
ATOM      5  H   UNL     1     -10.707  -6.653 -19.300  0.00  0.00    +0.163 HD
ATOM      6  H   UNL     1      -8.982  -6.510 -22.351  0.00  0.00    +0.159 HD
ATOM      7  H   UNL     1      -9.763  -7.543 -21.215  0.00  0.00    +0.159 HD
ATOM      8  H   UNL     1      -9.461  -3.513 -20.554  0.00  0.00    +0.159 HD
ATOM      9  H   UNL     1      -8.812  -4.231 -21.976  0.00  0.00    +0.159 HD
ENDROOT
BRANCH   1  10
ATOM     10  C   UNL     1     -10.657  -4.647 -18.585  0.00  0.00    +0.151 C 
BRANCH  10  11
ATOM     11  C   UNL     1     -10.914  -5.244 -17.229  0.00  0.00    -0.028 A 
ATOM     12  C   UNL     1     -12.160  -5.085 -16.605  0.00  0.00    +0.005 A 
ATOM     13  C   UNL     1      -9.917  -5.976 -16.565  0.00  0.00    +0.005 A 
ATOM     14  C   UNL     1     -12.409  -5.666 -15.359  0.00  0.00    +0.000 A 
ATOM     15  C   UNL     1     -10.169  -6.553 -15.321  0.00  0.00    +0.000 A 
ATOM     16  C   UNL     1     -11.416  -6.400 -14.719  0.00  0.00    +0.000 A 
ENDBRANCH  10  11
ENDBRANCH   1  10
TORSDOF 2
ENDMDL
MODEL 7
REMARK VINA RESULT:    -4.111     18.019     19.261
REMARK INTER + INTRA:          -4.726
REMARK INTER:                  -4.594
REMARK INTRA:                  -0.132
REMARK UNBOUND:                -0.135
REMARK  Name = 1550473
REMARK  2 active torsions:
REMARK  status: ('A' for Active; 'I' for Inactive)
REMARK    1  A    between atoms: N_1  and  C_4
REMARK    2  A    between atoms: C_4  and  C_5
REMARK                            x       y       z     vdW  Elec       q    Type
REMARK                         _______ _______ _______ _____ _____    ______ ____
ROOT
ATOM      1  N   UNL     1       3.616 -18.390 -14.652  0.00  0.00    -0.354 N 
ATOM      2  N   UNL     1       2.889 -18.257 -12.457  0.00  0.00    -0.372 N 
ATOM      3  N   UNL     1       3.888 -16.423 -13.407  0.00  0.00    -0.372 N 
ATOM      4  C   UNL     1       3.470 -17.688 -13.520  0.00  0.00    +0.166 C 
ATOM      5  H   UNL     1       3.306 -19.355 -14.664  0.00  0.00    +0.163 HD
ATOM      6  H   UNL     1       2.762 -17.751 -11.591  0.00  0.00    +0.159 HD
ATOM      7  H   UNL     1       2.538 -19.207 -12.486  0.00  0.00    +0.159 HD
ATOM      8  H   UNL     1       4.340 -15.938 -14.171  0.00  0.00    +0.159 HD
ATOM      9  H   UNL     1       3.780 -15.904 -12.545  0.00  0.00    +0.159 HD
ENDROOT
BRANCH   1  10
ATOM     10  C   UNL     1       4.188 -17.846 -15.883  0.00  0.00    +0.151 C 
BRANCH  10  11
ATOM     11  C   UNL     1       3.368 -18.314 -17.053  0.00  0.00    -0.028 A 
ATOM     12  C   UNL     1       2.573 -19.466 -16.951  0.00  0.00    +0.005 A 
ATOM     13  C   UNL     1       3.377 -17.608 -18.266  0.00  0.00    +0.005 A 
ATOM     14  C   UNL     1       1.788 -19.884 -18.028  0.00  0.00    +0.000 A 
ATOM     15  C   UNL     1       2.592 -18.029 -19.339  0.00  0.00    +0.000 A 
ATOM     16  C   UNL     1       1.796 -19.166 -19.219  0.00  0.00    +0.000 A 
ENDBRANCH  10  11
ENDBRANCH   1  10
TORSDOF 2
ENDMDL
MODEL 8
REMARK VINA RESULT:    -4.077     34.715     36.142
REMARK INTER + INTRA:          -4.688
REMARK INTER:                  -4.530
REMARK INTRA:                  -0.158
REMARK UNBOUND:                -0.135
REMARK  Name = 1550473
REMARK  2 active torsions:
REMARK  status: ('A' for Active; 'I' for Inactive)
REMARK    1  A    between atoms: N_1  and  C_4
REMARK    2  A    between atoms: C_4  and  C_5
REMARK                            x       y       z     vdW  Elec       q    Type
REMARK                         _______ _______ _______ _____ _____    ______ ____
ROOT
ATOM      1  N   UNL     1      -1.030  -1.939   4.597  0.00  0.00    -0.354 N 
ATOM      2  N   UNL     1      -2.812  -3.286   3.984  0.00  0.00    -0.372 N 
ATOM      3  N   UNL     1      -3.042  -1.901   5.799  0.00  0.00    -0.372 N 
ATOM      4  C   UNL     1      -2.284  -2.365   4.799  0.00  0.00    +0.166 C 
ATOM      5  H   UNL     1      -0.498  -2.352   3.840  0.00  0.00    +0.163 HD
ATOM      6  H   UNL     1      -3.756  -3.624   4.110  0.00  0.00    +0.159 HD
ATOM      7  H   UNL     1      -2.293  -3.664   3.200  0.00  0.00    +0.159 HD
ATOM      8  H   UNL     1      -2.700  -1.210   6.453  0.00  0.00    +0.159 HD
ATOM      9  H   UNL     1      -3.985  -2.236   5.948  0.00  0.00    +0.159 HD
ENDROOT
BRANCH   1  10
ATOM     10  C   UNL     1      -0.381  -0.901   5.395  0.00  0.00    +0.151 C 
BRANCH  10  11
ATOM     11  C   UNL     1       0.843  -1.479   6.051  0.00  0.00    -0.028 A 
ATOM     12  C   UNL     1       2.124  -1.147   5.588  0.00  0.00    +0.005 A 
ATOM     13  C   UNL     1       0.727  -2.356   7.141  0.00  0.00    +0.005 A 
ATOM     14  C   UNL     1       3.261  -1.660   6.216  0.00  0.00    +0.000 A 
ATOM     15  C   UNL     1       1.865  -2.867   7.765  0.00  0.00    +0.000 A 
ATOM     16  C   UNL     1       3.132  -2.517   7.304  0.00  0.00    +0.000 A 
ENDBRANCH  10  11
ENDBRANCH   1  10
TORSDOF 2
ENDMDL
MODEL 9
REMARK VINA RESULT:    -3.928     53.149     54.415
REMARK INTER + INTRA:          -4.522
REMARK INTER:                  -4.388
REMARK INTRA:                  -0.134
REMARK UNBOUND:                -0.135
REMARK  Name = 1550473
REMARK  2 active torsions:
REMARK  status: ('A' for Active; 'I' for Inactive)
REMARK    1  A    between atoms: N_1  and  C_4
REMARK    2  A    between atoms: C_4  and  C_5
REMARK                            x       y       z     vdW  Elec       q    Type
REMARK                         _______ _______ _______ _____ _____    ______ ____
ROOT
ATOM      1  N   UNL     1     -11.871   8.430  22.048  0.00  0.00    -0.354 N 
ATOM      2  N   UNL     1     -10.962   7.184  23.776  0.00  0.00    -0.372 N 
ATOM      3  N   UNL     1     -10.561   6.537  21.611  0.00  0.00    -0.372 N 
ATOM      4  C   UNL     1     -11.137   7.390  22.465  0.00  0.00    +0.166 C 
ATOM      5  H   UNL     1     -12.306   9.023  22.746  0.00  0.00    +0.163 HD
ATOM      6  H   UNL     1     -10.410   6.410  24.120  0.00  0.00    +0.159 HD
ATOM      7  H   UNL     1     -11.360   7.805  24.471  0.00  0.00    +0.159 HD
ATOM      8  H   UNL     1     -10.659   6.634  20.610  0.00  0.00    +0.159 HD
ATOM      9  H   UNL     1     -10.014   5.749  21.937  0.00  0.00    +0.159 HD
ENDROOT
BRANCH   1  10
ATOM     10  C   UNL     1     -12.078   8.774  20.643  0.00  0.00    +0.151 C 
BRANCH  10  11
ATOM     11  C   UNL     1     -12.091  10.271  20.500  0.00  0.00    -0.028 A 
ATOM     12  C   UNL     1     -12.074  11.095  21.635  0.00  0.00    +0.005 A 
ATOM     13  C   UNL     1     -12.114  10.872  19.232  0.00  0.00    +0.005 A 
ATOM     14  C   UNL     1     -12.055  12.485  21.503  0.00  0.00    +0.000 A 
ATOM     15  C   UNL     1     -12.097  12.261  19.104  0.00  0.00    +0.000 A 
ATOM     16  C   UNL     1     -12.065  13.067  20.240  0.00  0.00    +0.000 A 
ENDBRANCH  10  11
ENDBRANCH   1  10
TORSDOF 2
ENDMDL
