MODEL 1
REMARK VINA RESULT:    -6.804      0.000      0.000
REMARK INTER + INTRA:          -7.720
REMARK INTER:                  -7.600
REMARK INTRA:                  -0.120
REMARK UNBOUND:                -0.120
REMARK  Name = 1550473
REMARK  2 active torsions:
REMARK  status: ('A' for Active; 'I' for Inactive)
REMARK    1  A    between atoms: N_1  and  C_4
REMARK    2  A    between atoms: C_4  and  C_5
REMARK                            x       y       z     vdW  Elec       q    Type
REMARK                         _______ _______ _______ _____ _____    ______ ____
ROOT
ATOM      1  N   UNL     1      -5.301  -5.399  -3.617  0.00  0.00    -0.354 N 
ATOM      2  N   UNL     1      -6.957  -3.788  -3.776  0.00  0.00    -0.372 N 
ATOM      3  N   UNL     1      -5.045  -3.301  -2.604  0.00  0.00    -0.372 N 
ATOM      4  C   UNL     1      -5.755  -4.171  -3.330  0.00  0.00    +0.166 C 
ATOM      5  H   UNL     1      -5.900  -6.022  -4.145  0.00  0.00    +0.163 HD
ATOM      6  H   UNL     1      -7.325  -2.867  -3.578  0.00  0.00    +0.159 HD
ATOM      7  H   UNL     1      -7.534  -4.397  -4.343  0.00  0.00    +0.159 HD
ATOM      8  H   UNL     1      -4.133  -3.531  -2.233  0.00  0.00    +0.159 HD
ATOM      9  H   UNL     1      -5.401  -2.378  -2.386  0.00  0.00    +0.159 HD
ENDROOT
BRANCH   1  10
ATOM     10  C   UNL     1      -3.983  -5.895  -3.224  0.00  0.00    +0.151 C 
BRANCH  10  11
ATOM     11  C   UNL     1      -3.084  -5.910  -4.430  0.00  0.00    -0.028 A 
ATOM     12  C   UNL     1      -2.672  -4.709  -5.026  0.00  0.00    +0.005 A 
ATOM     13  C   UNL     1      -2.638  -7.122  -4.979  0.00  0.00    +0.005 A 
ATOM     14  C   UNL     1      -1.813  -4.722  -6.127  0.00  0.00    +0.000 A 
ATOM     15  C   UNL     1      -1.781  -7.131  -6.079  0.00  0.00    +0.000 A 
ATOM     16  C   UNL     1      -1.367  -5.931  -6.652  0.00  0.00    +0.000 A 
ENDBRANCH  10  11
ENDBRANCH   1  10
TORSDOF 2
ENDMDL
MODEL 2
REMARK VINA RESULT:    -6.392      3.303      4.857
REMARK INTER + INTRA:          -7.259
REMARK INTER:                  -7.160
REMARK INTRA:                  -0.099
REMARK UNBOUND:                -0.120
REMARK  Name = 1550473
REMARK  2 active torsions:
REMARK  status: ('A' for Active; 'I' for Inactive)
REMARK    1  A    between atoms: N_1  and  C_4
REMARK    2  A    between atoms: C_4  and  C_5
REMARK                            x       y       z     vdW  Elec       q    Type
REMARK                         _______ _______ _______ _____ _____    ______ ____
ROOT
ATOM      1  N   UNL     1      -1.978  -6.187  -5.700  0.00  0.00    -0.354 N 
ATOM      2  N   UNL     1      -1.713  -3.896  -5.911  0.00  0.00    -0.372 N 
ATOM      3  N   UNL     1      -1.189  -5.243  -7.694  0.00  0.00    -0.372 N 
ATOM      4  C   UNL     1      -1.627  -5.125  -6.436  0.00  0.00    +0.166 C 
ATOM      5  H   UNL     1      -2.273  -6.033  -4.742  0.00  0.00    +0.163 HD
ATOM      6  H   UNL     1      -1.459  -3.075  -6.444  0.00  0.00    +0.159 HD
ATOM      7  H   UNL     1      -2.052  -3.742  -4.970  0.00  0.00    +0.159 HD
ATOM      8  H   UNL     1      -1.096  -6.142  -8.146  0.00  0.00    +0.159 HD
ATOM      9  H   UNL     1      -0.919  -4.434  -8.239  0.00  0.00    +0.159 HD
ENDROOT
BRANCH   1  10
ATOM     10  C   UNL     1      -1.972  -7.563  -6.194  0.00  0.00    +0.151 C 
BRANCH  10  11
ATOM     11  C   UNL     1      -2.118  -8.504  -5.031  0.00  0.00    -0.028 A 
ATOM     12  C   UNL     1      -1.127  -9.458  -4.757  0.00  0.00    +0.005 A 
ATOM     13  C   UNL     1      -3.244  -8.444  -4.195  0.00  0.00    +0.005 A 
ATOM     14  C   UNL     1      -1.248 -10.312  -3.659  0.00  0.00    +0.000 A 
ATOM     15  C   UNL     1      -3.361  -9.300  -3.099  0.00  0.00    +0.000 A 
ATOM     16  C   UNL     1      -2.362 -10.232  -2.830  0.00  0.00    +0.000 A 
ENDBRANCH  10  11
ENDBRANCH   1  10
TORSDOF 2
ENDMDL
MODEL 3
REMARK VINA RESULT:    -5.953      2.736      3.765
REMARK INTER + INTRA:          -6.769
REMARK INTER:                  -6.619
REMARK INTRA:                  -0.150
REMARK UNBOUND:                -0.120
REMARK  Name = 1550473
REMARK  2 active torsions:
REMARK  status: ('A' for Active; 'I' for Inactive)
REMARK    1  A    between atoms: N_1  and  C_4
REMARK    2  A    between atoms: C_4  and  C_5
REMARK                            x       y       z     vdW  Elec       q    Type
REMARK                         _______ _______ _______ _____ _____    ______ ____
ROOT
ATOM      1  N   UNL     1      -3.172  -7.647  -2.440  0.00  0.00    -0.354 N 
ATOM      2  N   UNL     1      -1.984  -9.238  -1.248  0.00  0.00    -0.372 N 
ATOM      3  N   UNL     1      -3.182  -9.899  -3.089  0.00  0.00    -0.372 N 
ATOM      4  C   UNL     1      -2.788  -8.919  -2.269  0.00  0.00    +0.166 C 
ATOM      5  H   UNL     1      -2.864  -6.957  -1.765  0.00  0.00    +0.163 HD
ATOM      6  H   UNL     1      -1.674 -10.189  -1.095  0.00  0.00    +0.159 HD
ATOM      7  H   UNL     1      -1.640  -8.538  -0.602  0.00  0.00    +0.159 HD
ATOM      8  H   UNL     1      -3.794  -9.726  -3.875  0.00  0.00    +0.159 HD
ATOM      9  H   UNL     1      -2.893 -10.859  -2.946  0.00  0.00    +0.159 HD
ENDROOT
BRANCH   1  10
ATOM     10  C   UNL     1      -4.004  -7.187  -3.551  0.00  0.00    +0.151 C 
BRANCH  10  11
ATOM     11  C   UNL     1      -3.128  -6.520  -4.575  0.00  0.00    -0.028 A 
ATOM     12  C   UNL     1      -3.025  -5.122  -4.622  0.00  0.00    +0.005 A 
ATOM     13  C   UNL     1      -2.395  -7.280  -5.499  0.00  0.00    +0.005 A 
ATOM     14  C   UNL     1      -2.189  -4.502  -5.554  0.00  0.00    +0.000 A 
ATOM     15  C   UNL     1      -1.562  -6.658  -6.429  0.00  0.00    +0.000 A 
ATOM     16  C   UNL     1      -1.457  -5.270  -6.454  0.00  0.00    +0.000 A 
ENDBRANCH  10  11
ENDBRANCH   1  10
TORSDOF 2
ENDMDL
MODEL 4
REMARK VINA RESULT:    -5.770      1.484      2.121
REMARK INTER + INTRA:          -6.565
REMARK INTER:                  -6.416
REMARK INTRA:                  -0.148
REMARK UNBOUND:                -0.120
REMARK  Name = 1550473
REMARK  2 active torsions:
REMARK  status: ('A' for Active; 'I' for Inactive)
REMARK    1  A    between atoms: N_1  and  C_4
REMARK    2  A    between atoms: C_4  and  C_5
REMARK                            x       y       z     vdW  Elec       q    Type
REMARK                         _______ _______ _______ _____ _____    ______ ____
ROOT
ATOM      1  N   UNL     1      -3.276  -4.943  -2.411  0.00  0.00    -0.354 N 
ATOM      2  N   UNL     1      -2.972  -2.743  -1.753  0.00  0.00    -0.372 N 
ATOM      3  N   UNL     1      -4.906  -3.316  -2.846  0.00  0.00    -0.372 N 
ATOM      4  C   UNL     1      -3.723  -3.681  -2.342  0.00  0.00    +0.166 C 
ATOM      5  H   UNL     1      -2.357  -5.149  -2.037  0.00  0.00    +0.163 HD
ATOM      6  H   UNL     1      -3.284  -1.784  -1.683  0.00  0.00    +0.159 HD
ATOM      7  H   UNL     1      -2.074  -2.961  -1.339  0.00  0.00    +0.159 HD
ATOM      8  H   UNL     1      -5.518  -3.975  -3.309  0.00  0.00    +0.159 HD
ATOM      9  H   UNL     1      -5.231  -2.358  -2.796  0.00  0.00    +0.159 HD
ENDROOT
BRANCH   1  10
ATOM     10  C   UNL     1      -4.039  -6.050  -2.984  0.00  0.00    +0.151 C 
BRANCH  10  11
ATOM     11  C   UNL     1      -3.203  -6.733  -4.030  0.00  0.00    -0.028 A 
ATOM     12  C   UNL     1      -2.658  -6.002  -5.096  0.00  0.00    +0.005 A 
ATOM     13  C   UNL     1      -2.947  -8.111  -3.959  0.00  0.00    +0.005 A 
ATOM     14  C   UNL     1      -1.856  -6.631  -6.051  0.00  0.00    +0.000 A 
ATOM     15  C   UNL     1      -2.146  -8.735  -4.915  0.00  0.00    +0.000 A 
ATOM     16  C   UNL     1      -1.599  -7.994  -5.960  0.00  0.00    +0.000 A 
ENDBRANCH  10  11
ENDBRANCH   1  10
TORSDOF 2
ENDMDL
MODEL 5
REMARK VINA RESULT:    -5.767      1.183      2.082
REMARK INTER + INTRA:          -6.561
REMARK INTER:                  -6.556
REMARK INTRA:                  -0.005
REMARK UNBOUND:                -0.120
REMARK  Name = 1550473
REMARK  2 active torsions:
REMARK  status: ('A' for Active; 'I' for Inactive)
REMARK    1  A    between atoms: N_1  and  C_4
REMARK    2  A    between atoms: C_4  and  C_5
REMARK                            x       y       z     vdW  Elec       q    Type
REMARK                         _______ _______ _______ _____ _____    ______ ____
ROOT
ATOM      1  N   UNL     1      -4.442  -4.690  -3.367  0.00  0.00    -0.354 N 
ATOM      2  N   UNL     1      -4.228  -2.657  -2.279  0.00  0.00    -0.372 N 
ATOM      3  N   UNL     1      -3.033  -4.458  -1.508  0.00  0.00    -0.372 N 
ATOM      4  C   UNL     1      -3.901  -3.950  -2.390  0.00  0.00    +0.166 C 
ATOM      5  H   UNL     1      -5.116  -4.253  -3.985  0.00  0.00    +0.163 HD
ATOM      6  H   UNL     1      -3.833  -2.072  -1.554  0.00  0.00    +0.159 HD
ATOM      7  H   UNL     1      -4.867  -2.211  -2.926  0.00  0.00    +0.159 HD
ATOM      8  H   UNL     1      -2.749  -5.428  -1.534  0.00  0.00    +0.159 HD
ATOM      9  H   UNL     1      -2.636  -3.892  -0.769  0.00  0.00    +0.159 HD
ENDROOT
BRANCH   1  10
ATOM     10  C   UNL     1      -4.111  -6.094  -3.607  0.00  0.00    +0.151 C 
BRANCH  10  11
ATOM     11  C   UNL     1      -3.084  -6.175  -4.703  0.00  0.00    -0.028 A 
ATOM     12  C   UNL     1      -2.660  -7.421  -5.190  0.00  0.00    +0.005 A 
ATOM     13  C   UNL     1      -2.537  -5.011  -5.264  0.00  0.00    +0.005 A 
ATOM     14  C   UNL     1      -1.728  -7.497  -6.228  0.00  0.00    +0.000 A 
ATOM     15  C   UNL     1      -1.606  -5.091  -6.300  0.00  0.00    +0.000 A 
ATOM     16  C   UNL     1      -1.204  -6.334  -6.783  0.00  0.00    +0.000 A 
ENDBRANCH  10  11
ENDBRANCH   1  10
TORSDOF 2
ENDMDL
MODEL 6
REMARK VINA RESULT:    -5.668      2.446      3.475
REMARK INTER + INTRA:          -6.451
REMARK INTER:                  -6.298
REMARK INTRA:                  -0.153
REMARK UNBOUND:                -0.120
REMARK  Name = 1550473
REMARK  2 active torsions:
REMARK  status: ('A' for Active; 'I' for Inactive)
REMARK    1  A    between atoms: N_1  and  C_4
REMARK    2  A    between atoms: C_4  and  C_5
REMARK                            x       y       z     vdW  Elec       q    Type
REMARK                         _______ _______ _______ _____ _____    ______ ____
ROOT
ATOM      1  N   UNL     1      -4.019  -7.563  -2.452  0.00  0.00    -0.354 N 
ATOM      2  N   UNL     1      -3.785  -7.163  -0.183  0.00  0.00    -0.372 N 
ATOM      3  N   UNL     1      -2.419  -8.712  -1.183  0.00  0.00    -0.372 N 
ATOM      4  C   UNL     1      -3.407  -7.818  -1.288  0.00  0.00    +0.166 C 
ATOM      5  H   UNL     1      -4.781  -6.895  -2.459  0.00  0.00    +0.163 HD
ATOM      6  H   UNL     1      -3.339  -7.332   0.709  0.00  0.00    +0.159 HD
ATOM      7  H   UNL     1      -4.516  -6.463  -0.202  0.00  0.00    +0.159 HD
ATOM      8  H   UNL     1      -2.092  -9.244  -1.978  0.00  0.00    +0.159 HD
ATOM      9  H   UNL     1      -1.969  -8.904  -0.296  0.00  0.00    +0.159 HD
ENDROOT
BRANCH   1  10
ATOM     10  C   UNL     1      -3.648  -8.181  -3.723  0.00  0.00    +0.151 C 
BRANCH  10  11
ATOM     11  C   UNL     1      -2.938  -7.166  -4.575  0.00  0.00    -0.028 A 
ATOM     12  C   UNL     1      -2.041  -7.575  -5.573  0.00  0.00    +0.005 A 
ATOM     13  C   UNL     1      -3.163  -5.792  -4.394  0.00  0.00    +0.005 A 
ATOM     14  C   UNL     1      -1.404  -6.633  -6.384  0.00  0.00    +0.000 A 
ATOM     15  C   UNL     1      -2.525  -4.855  -5.206  0.00  0.00    +0.000 A 
ATOM     16  C   UNL     1      -1.647  -5.275  -6.202  0.00  0.00    +0.000 A 
ENDBRANCH  10  11
ENDBRANCH   1  10
TORSDOF 2
ENDMDL
MODEL 7
REMARK VINA RESULT:    -5.275      4.909      6.496
REMARK INTER + INTRA:          -6.012
REMARK INTER:                  -5.868
REMARK INTRA:                  -0.144
REMARK UNBOUND:                -0.120
REMARK  Name = 1550473
REMARK  2 active torsions:
REMARK  status: ('A' for Active; 'I' for Inactive)
REMARK    1  A    between atoms: N_1  and  C_4
REMARK    2  A    between atoms: C_4  and  C_5
REMARK                            x       y       z     vdW  Elec       q    Type
REMARK                         _______ _______ _______ _____ _____    ______ ____
ROOT
ATOM      1  N   UNL     1      -1.397 -11.302  -3.070  0.00  0.00    -0.354 N 
ATOM      2  N   UNL     1      -2.213 -13.391  -2.491  0.00  0.00    -0.372 N 
ATOM      3  N   UNL     1      -1.577 -13.012  -4.663  0.00  0.00    -0.372 N 
ATOM      4  C   UNL     1      -1.724 -12.555  -3.414  0.00  0.00    +0.166 C 
ATOM      5  H   UNL     1      -1.560 -11.007  -2.114  0.00  0.00    +0.163 HD
ATOM      6  H   UNL     1      -2.465 -14.343  -2.720  0.00  0.00    +0.159 HD
ATOM      7  H   UNL     1      -2.332 -13.108  -1.525  0.00  0.00    +0.159 HD
ATOM      8  H   UNL     1      -1.219 -12.430  -5.408  0.00  0.00    +0.159 HD
ATOM      9  H   UNL     1      -1.835 -13.958  -4.914  0.00  0.00    +0.159 HD
ENDROOT
BRANCH   1  10
ATOM     10  C   UNL     1      -0.806 -10.329  -3.988  0.00  0.00    +0.151 C 
BRANCH  10  11
ATOM     11  C   UNL     1      -1.817  -9.255  -4.282  0.00  0.00    -0.028 A 
ATOM     12  C   UNL     1      -2.946  -9.097  -3.465  0.00  0.00    +0.005 A 
ATOM     13  C   UNL     1      -1.648  -8.388  -5.373  0.00  0.00    +0.005 A 
ATOM     14  C   UNL     1      -3.869  -8.079  -3.720  0.00  0.00    +0.000 A 
ATOM     15  C   UNL     1      -2.572  -7.375  -5.624  0.00  0.00    +0.000 A 
ATOM     16  C   UNL     1      -3.681  -7.219  -4.797  0.00  0.00    +0.000 A 
ENDBRANCH  10  11
ENDBRANCH   1  10
TORSDOF 2
ENDMDL
MODEL 8
REMARK VINA RESULT:    -5.144      4.690      6.194
REMARK INTER + INTRA:          -5.866
REMARK INTER:                  -5.719
REMARK INTRA:                  -0.147
REMARK UNBOUND:                -0.120
REMARK  Name = 1550473
REMARK  2 active torsions:
REMARK  status: ('A' for Active; 'I' for Inactive)
REMARK    1  A    between atoms: N_1  and  C_4
REMARK    2  A    between atoms: C_4  and  C_5
REMARK                            x       y       z     vdW  Elec       q    Type
REMARK                         _______ _______ _______ _____ _____    ______ ____
ROOT
ATOM      1  N   UNL     1      -0.603 -10.210  -3.335  0.00  0.00    -0.354 N 
ATOM      2  N   UNL     1       1.551 -10.953  -2.921  0.00  0.00    -0.372 N 
ATOM      3  N   UNL     1       0.437 -11.751  -4.762  0.00  0.00    -0.372 N 
ATOM      4  C   UNL     1       0.447 -10.968  -3.678  0.00  0.00    +0.166 C 
ATOM      5  H   UNL     1      -0.544  -9.661  -2.485  0.00  0.00    +0.163 HD
ATOM      6  H   UNL     1       2.360 -11.512  -3.156  0.00  0.00    +0.159 HD
ATOM      7  H   UNL     1       1.624 -10.369  -2.097  0.00  0.00    +0.159 HD
ATOM      8  H   UNL     1      -0.368 -11.812  -5.371  0.00  0.00    +0.159 HD
ATOM      9  H   UNL     1       1.233 -12.326  -5.007  0.00  0.00    +0.159 HD
ENDROOT
BRANCH   1  10
ATOM     10  C   UNL     1      -1.833 -10.113  -4.121  0.00  0.00    +0.151 C 
BRANCH  10  11
ATOM     11  C   UNL     1      -2.050  -8.680  -4.519  0.00  0.00    -0.028 A 
ATOM     12  C   UNL     1      -1.460  -8.168  -5.685  0.00  0.00    +0.005 A 
ATOM     13  C   UNL     1      -2.848  -7.829  -3.739  0.00  0.00    +0.005 A 
ATOM     14  C   UNL     1      -1.686  -6.845  -6.072  0.00  0.00    +0.000 A 
ATOM     15  C   UNL     1      -3.070  -6.508  -4.128  0.00  0.00    +0.000 A 
ATOM     16  C   UNL     1      -2.491  -6.017  -5.296  0.00  0.00    +0.000 A 
ENDBRANCH  10  11
ENDBRANCH   1  10
TORSDOF 2
ENDMDL
MODEL 9
REMARK VINA RESULT:    -4.854     17.824     18.706
REMARK INTER + INTRA:          -5.542
REMARK INTER:                  -5.402
REMARK INTRA:                  -0.139
REMARK UNBOUND:                -0.120
REMARK  Name = 1550473
REMARK  2 active torsions:
REMARK  status: ('A' for Active; 'I' for Inactive)
REMARK    1  A    between atoms: N_1  and  C_4
REMARK    2  A    between atoms: C_4  and  C_5
REMARK                            x       y       z     vdW  Elec       q    Type
REMARK                         _______ _______ _______ _____ _____    ______ ____
ROOT
ATOM      1  N   UNL     1      -8.875  -5.817 -20.937  0.00  0.00    -0.354 N 
ATOM      2  N   UNL     1      -8.488  -6.626 -18.801  0.00  0.00    -0.372 N 
ATOM      3  N   UNL     1     -10.222  -7.502 -20.022  0.00  0.00    -0.372 N 
ATOM      4  C   UNL     1      -9.200  -6.644 -19.935  0.00  0.00    +0.166 C 
ATOM      5  H   UNL     1      -8.108  -5.169 -20.797  0.00  0.00    +0.163 HD
ATOM      6  H   UNL     1      -8.708  -7.241 -18.029  0.00  0.00    +0.159 HD
ATOM      7  H   UNL     1      -7.693  -6.010 -18.681  0.00  0.00    +0.159 HD
ATOM      8  H   UNL     1     -10.803  -7.561 -20.848  0.00  0.00    +0.159 HD
ATOM      9  H   UNL     1     -10.465  -8.117 -19.256  0.00  0.00    +0.159 HD
ENDROOT
BRANCH   1  10
ATOM     10  C   UNL     1      -9.552  -5.796 -22.232  0.00  0.00    +0.151 C 
BRANCH  10  11
ATOM     11  C   UNL     1     -10.023  -4.396 -22.517  0.00  0.00    -0.028 A 
ATOM     12  C   UNL     1     -10.540  -4.062 -23.777  0.00  0.00    +0.005 A 
ATOM     13  C   UNL     1      -9.959  -3.401 -21.530  0.00  0.00    +0.005 A 
ATOM     14  C   UNL     1     -11.005  -2.769 -24.033  0.00  0.00    +0.000 A 
ATOM     15  C   UNL     1     -10.424  -2.112 -21.790  0.00  0.00    +0.000 A 
ATOM     16  C   UNL     1     -10.949  -1.797 -23.041  0.00  0.00    +0.000 A 
ENDBRANCH  10  11
ENDBRANCH   1  10
TORSDOF 2
ENDMDL
