MODEL 1
REMARK VINA RESULT:    -4.701      0.000      0.000
REMARK INTER + INTRA:          -5.407
REMARK INTER:                  -5.251
REMARK INTRA:                  -0.156
REMARK UNBOUND:                -0.156
REMARK  Name = 1550473
REMARK  2 active torsions:
REMARK  status: ('A' for Active; 'I' for Inactive)
REMARK    1  A    between atoms: N_1  and  C_4
REMARK    2  A    between atoms: C_4  and  C_5
REMARK                            x       y       z     vdW  Elec       q    Type
REMARK                         _______ _______ _______ _____ _____    ______ ____
ROOT
ATOM      1  N   UNL     1      -4.599   3.507 -12.168  0.00  0.00    -0.354 N 
ATOM      2  N   UNL     1      -3.175   4.728 -10.809  0.00  0.00    -0.372 N 
ATOM      3  N   UNL     1      -5.289   5.528 -11.202  0.00  0.00    -0.372 N 
ATOM      4  C   UNL     1      -4.366   4.582 -11.402  0.00  0.00    +0.166 C 
ATOM      5  H   UNL     1      -3.847   2.841 -12.304  0.00  0.00    +0.163 HD
ATOM      6  H   UNL     1      -2.971   5.526 -10.222  0.00  0.00    +0.159 HD
ATOM      7  H   UNL     1      -2.441   4.037 -10.909  0.00  0.00    +0.159 HD
ATOM      8  H   UNL     1      -6.206   5.480 -11.626  0.00  0.00    +0.159 HD
ATOM      9  H   UNL     1      -5.100   6.340 -10.628  0.00  0.00    +0.159 HD
ENDROOT
BRANCH   1  10
ATOM     10  C   UNL     1      -5.879   3.226 -12.815  0.00  0.00    +0.151 C 
BRANCH  10  11
ATOM     11  C   UNL     1      -6.481   1.994 -12.198  0.00  0.00    -0.028 A 
ATOM     12  C   UNL     1      -7.555   2.097 -11.302  0.00  0.00    +0.005 A 
ATOM     13  C   UNL     1      -5.985   0.718 -12.511  0.00  0.00    +0.005 A 
ATOM     14  C   UNL     1      -8.134   0.951 -10.753  0.00  0.00    +0.000 A 
ATOM     15  C   UNL     1      -6.565  -0.424 -11.959  0.00  0.00    +0.000 A 
ATOM     16  C   UNL     1      -7.641  -0.307 -11.082  0.00  0.00    +0.000 A 
ENDBRANCH  10  11
ENDBRANCH   1  10
TORSDOF 2
ENDMDL
MODEL 2
REMARK VINA RESULT:    -4.652      1.116      2.035
REMARK INTER + INTRA:          -5.352
REMARK INTER:                  -5.210
REMARK INTRA:                  -0.143
REMARK UNBOUND:                -0.156
REMARK  Name = 1550473
REMARK  2 active torsions:
REMARK  status: ('A' for Active; 'I' for Inactive)
REMARK    1  A    between atoms: N_1  and  C_4
REMARK    2  A    between atoms: C_4  and  C_5
REMARK                            x       y       z     vdW  Elec       q    Type
REMARK                         _______ _______ _______ _____ _____    ______ ____
ROOT
ATOM      1  N   UNL     1      -5.370   4.288 -11.441  0.00  0.00    -0.354 N 
ATOM      2  N   UNL     1      -5.999   6.509 -11.251  0.00  0.00    -0.372 N 
ATOM      3  N   UNL     1      -5.493   5.673 -13.327  0.00  0.00    -0.372 N 
ATOM      4  C   UNL     1      -5.616   5.476 -12.010  0.00  0.00    +0.166 C 
ATOM      5  H   UNL     1      -5.452   4.211 -10.433  0.00  0.00    +0.163 HD
ATOM      6  H   UNL     1      -6.195   7.416 -11.653  0.00  0.00    +0.159 HD
ATOM      7  H   UNL     1      -6.125   6.417 -10.250  0.00  0.00    +0.159 HD
ATOM      8  H   UNL     1      -5.202   4.936 -13.955  0.00  0.00    +0.159 HD
ATOM      9  H   UNL     1      -5.674   6.577 -13.747  0.00  0.00    +0.159 HD
ENDROOT
BRANCH   1  10
ATOM     10  C   UNL     1      -4.999   3.086 -12.185  0.00  0.00    +0.151 C 
BRANCH  10  11
ATOM     11  C   UNL     1      -5.946   1.974 -11.825  0.00  0.00    -0.028 A 
ATOM     12  C   UNL     1      -5.796   0.700 -12.391  0.00  0.00    +0.005 A 
ATOM     13  C   UNL     1      -6.993   2.188 -10.915  0.00  0.00    +0.005 A 
ATOM     14  C   UNL     1      -6.657  -0.341 -12.035  0.00  0.00    +0.000 A 
ATOM     15  C   UNL     1      -7.851   1.147 -10.562  0.00  0.00    +0.000 A 
ATOM     16  C   UNL     1      -7.682  -0.118 -11.120  0.00  0.00    +0.000 A 
ENDBRANCH  10  11
ENDBRANCH   1  10
TORSDOF 2
ENDMDL
MODEL 3
REMARK VINA RESULT:    -4.420      1.875      2.680
REMARK INTER + INTRA:          -5.093
REMARK INTER:                  -4.962
REMARK INTRA:                  -0.131
REMARK UNBOUND:                -0.156
REMARK  Name = 1550473
REMARK  2 active torsions:
REMARK  status: ('A' for Active; 'I' for Inactive)
REMARK    1  A    between atoms: N_1  and  C_4
REMARK    2  A    between atoms: C_4  and  C_5
REMARK                            x       y       z     vdW  Elec       q    Type
REMARK                         _______ _______ _______ _____ _____    ______ ____
ROOT
ATOM      1  N   UNL     1      -6.704   4.966 -10.197  0.00  0.00    -0.354 N 
ATOM      2  N   UNL     1      -6.331   7.118 -10.967  0.00  0.00    -0.372 N 
ATOM      3  N   UNL     1      -8.447   6.243 -11.105  0.00  0.00    -0.372 N 
ATOM      4  C   UNL     1      -7.166   6.095 -10.752  0.00  0.00    +0.166 C 
ATOM      5  H   UNL     1      -5.715   4.906  -9.980  0.00  0.00    +0.163 HD
ATOM      6  H   UNL     1      -6.651   7.984 -11.381  0.00  0.00    +0.159 HD
ATOM      7  H   UNL     1      -5.353   7.072 -10.708  0.00  0.00    +0.159 HD
ATOM      8  H   UNL     1      -9.127   5.505 -10.974  0.00  0.00    +0.159 HD
ATOM      9  H   UNL     1      -8.784   7.097 -11.531  0.00  0.00    +0.159 HD
ENDROOT
BRANCH   1  10
ATOM     10  C   UNL     1      -7.541   3.813  -9.871  0.00  0.00    +0.151 C 
BRANCH  10  11
ATOM     11  C   UNL     1      -7.051   2.618 -10.641  0.00  0.00    -0.028 A 
ATOM     12  C   UNL     1      -7.594   1.347 -10.403  0.00  0.00    +0.005 A 
ATOM     13  C   UNL     1      -6.049   2.750 -11.614  0.00  0.00    +0.005 A 
ATOM     14  C   UNL     1      -7.161   0.241 -11.139  0.00  0.00    +0.000 A 
ATOM     15  C   UNL     1      -5.619   1.644 -12.346  0.00  0.00    +0.000 A 
ATOM     16  C   UNL     1      -6.177   0.390 -12.109  0.00  0.00    +0.000 A 
ENDBRANCH  10  11
ENDBRANCH   1  10
TORSDOF 2
ENDMDL
MODEL 4
REMARK VINA RESULT:    -4.409      2.302      3.123
REMARK INTER + INTRA:          -5.081
REMARK INTER:                  -4.944
REMARK INTRA:                  -0.137
REMARK UNBOUND:                -0.156
REMARK  Name = 1550473
REMARK  2 active torsions:
REMARK  status: ('A' for Active; 'I' for Inactive)
REMARK    1  A    between atoms: N_1  and  C_4
REMARK    2  A    between atoms: C_4  and  C_5
REMARK                            x       y       z     vdW  Elec       q    Type
REMARK                         _______ _______ _______ _____ _____    ______ ____
ROOT
ATOM      1  N   UNL     1      -6.965   4.551  -9.553  0.00  0.00    -0.354 N 
ATOM      2  N   UNL     1      -8.440   5.750  -8.231  0.00  0.00    -0.372 N 
ATOM      3  N   UNL     1      -8.127   6.396 -10.410  0.00  0.00    -0.372 N 
ATOM      4  C   UNL     1      -7.834   5.559  -9.409  0.00  0.00    +0.166 C 
ATOM      5  H   UNL     1      -6.763   3.970  -8.747  0.00  0.00    +0.163 HD
ATOM      6  H   UNL     1      -9.103   6.501  -8.093  0.00  0.00    +0.159 HD
ATOM      7  H   UNL     1      -8.271   5.141  -7.440  0.00  0.00    +0.159 HD
ATOM      8  H   UNL     1      -7.700   6.310 -11.323  0.00  0.00    +0.159 HD
ATOM      9  H   UNL     1      -8.779   7.161 -10.289  0.00  0.00    +0.159 HD
ENDROOT
BRANCH   1  10
ATOM     10  C   UNL     1      -6.292   4.224 -10.810  0.00  0.00    +0.151 C 
BRANCH  10  11
ATOM     11  C   UNL     1      -6.497   2.765 -11.111  0.00  0.00    -0.028 A 
ATOM     12  C   UNL     1      -5.648   2.097 -12.006  0.00  0.00    +0.005 A 
ATOM     13  C   UNL     1      -7.534   2.043 -10.501  0.00  0.00    +0.005 A 
ATOM     14  C   UNL     1      -5.819   0.735 -12.264  0.00  0.00    +0.000 A 
ATOM     15  C   UNL     1      -7.703   0.683 -10.761  0.00  0.00    +0.000 A 
ATOM     16  C   UNL     1      -6.843   0.029 -11.641  0.00  0.00    +0.000 A 
ENDBRANCH  10  11
ENDBRANCH   1  10
TORSDOF 2
ENDMDL
MODEL 5
REMARK VINA RESULT:    -4.408     10.782     12.242
REMARK INTER + INTRA:          -5.079
REMARK INTER:                  -4.939
REMARK INTRA:                  -0.141
REMARK UNBOUND:                -0.156
REMARK  Name = 1550473
REMARK  2 active torsions:
REMARK  status: ('A' for Active; 'I' for Inactive)
REMARK    1  A    between atoms: N_1  and  C_4
REMARK    2  A    between atoms: C_4  and  C_5
REMARK                            x       y       z     vdW  Elec       q    Type
REMARK                         _______ _______ _______ _____ _____    ______ ____
ROOT
ATOM      1  N   UNL     1     -15.458  -2.107  -3.504  0.00  0.00    -0.354 N 
ATOM      2  N   UNL     1     -16.230  -1.234  -1.503  0.00  0.00    -0.372 N 
ATOM      3  N   UNL     1     -16.686  -0.112  -3.452  0.00  0.00    -0.372 N 
ATOM      4  C   UNL     1     -16.120  -1.155  -2.834  0.00  0.00    +0.166 C 
ATOM      5  H   UNL     1     -15.025  -2.855  -2.975  0.00  0.00    +0.163 HD
ATOM      6  H   UNL     1     -16.727  -0.532  -0.971  0.00  0.00    +0.159 HD
ATOM      7  H   UNL     1     -15.837  -2.007  -0.981  0.00  0.00    +0.159 HD
ATOM      8  H   UNL     1     -16.634   0.009  -4.454  0.00  0.00    +0.159 HD
ATOM      9  H   UNL     1     -17.178   0.607  -2.936  0.00  0.00    +0.159 HD
ENDROOT
BRANCH   1  10
ATOM     10  C   UNL     1     -15.326  -2.142  -4.960  0.00  0.00    +0.151 C 
BRANCH  10  11
ATOM     11  C   UNL     1     -13.869  -2.226  -5.320  0.00  0.00    -0.028 A 
ATOM     12  C   UNL     1     -13.272  -3.466  -5.588  0.00  0.00    +0.005 A 
ATOM     13  C   UNL     1     -13.080  -1.068  -5.400  0.00  0.00    +0.005 A 
ATOM     14  C   UNL     1     -11.925  -3.542  -5.952  0.00  0.00    +0.000 A 
ATOM     15  C   UNL     1     -11.736  -1.147  -5.762  0.00  0.00    +0.000 A 
ATOM     16  C   UNL     1     -11.159  -2.384  -6.041  0.00  0.00    +0.000 A 
ENDBRANCH  10  11
ENDBRANCH   1  10
TORSDOF 2
ENDMDL
MODEL 6
REMARK VINA RESULT:    -4.403     32.539     33.373
REMARK INTER + INTRA:          -5.074
REMARK INTER:                  -4.971
REMARK INTRA:                  -0.103
REMARK UNBOUND:                -0.156
REMARK  Name = 1550473
REMARK  2 active torsions:
REMARK  status: ('A' for Active; 'I' for Inactive)
REMARK    1  A    between atoms: N_1  and  C_4
REMARK    2  A    between atoms: C_4  and  C_5
REMARK                            x       y       z     vdW  Elec       q    Type
REMARK                         _______ _______ _______ _____ _____    ______ ____
ROOT
ATOM      1  N   UNL     1      -3.121   6.445  19.474  0.00  0.00    -0.354 N 
ATOM      2  N   UNL     1      -2.923   5.213  17.522  0.00  0.00    -0.372 N 
ATOM      3  N   UNL     1      -4.767   6.548  17.810  0.00  0.00    -0.372 N 
ATOM      4  C   UNL     1      -3.607   6.078  18.281  0.00  0.00    +0.166 C 
ATOM      5  H   UNL     1      -2.251   6.029  19.787  0.00  0.00    +0.163 HD
ATOM      6  H   UNL     1      -3.263   4.921  16.616  0.00  0.00    +0.159 HD
ATOM      7  H   UNL     1      -2.031   4.835  17.818  0.00  0.00    +0.159 HD
ATOM      8  H   UNL     1      -5.335   7.198  18.336  0.00  0.00    +0.159 HD
ATOM      9  H   UNL     1      -5.131   6.258  16.910  0.00  0.00    +0.159 HD
ENDROOT
BRANCH   1  10
ATOM     10  C   UNL     1      -3.761   7.421  20.353  0.00  0.00    +0.151 C 
BRANCH  10  11
ATOM     11  C   UNL     1      -3.277   7.206  21.761  0.00  0.00    -0.028 A 
ATOM     12  C   UNL     1      -2.426   8.138  22.371  0.00  0.00    +0.005 A 
ATOM     13  C   UNL     1      -3.672   6.074  22.492  0.00  0.00    +0.005 A 
ATOM     14  C   UNL     1      -2.000   7.954  23.689  0.00  0.00    +0.000 A 
ATOM     15  C   UNL     1      -3.244   5.894  23.807  0.00  0.00    +0.000 A 
ATOM     16  C   UNL     1      -2.410   6.835  24.406  0.00  0.00    +0.000 A 
ENDBRANCH  10  11
ENDBRANCH   1  10
TORSDOF 2
ENDMDL
MODEL 7
REMARK VINA RESULT:    -4.277     26.922     27.956
REMARK INTER + INTRA:          -4.934
REMARK INTER:                  -4.793
REMARK INTRA:                  -0.141
REMARK UNBOUND:                -0.156
REMARK  Name = 1550473
REMARK  2 active torsions:
REMARK  status: ('A' for Active; 'I' for Inactive)
REMARK    1  A    between atoms: N_1  and  C_4
REMARK    2  A    between atoms: C_4  and  C_5
REMARK                            x       y       z     vdW  Elec       q    Type
REMARK                         _______ _______ _______ _____ _____    ______ ____
ROOT
ATOM      1  N   UNL     1       3.786  -0.831  13.681  0.00  0.00    -0.354 N 
ATOM      2  N   UNL     1       3.113  -2.987  14.194  0.00  0.00    -0.372 N 
ATOM      3  N   UNL     1       1.950  -1.811  12.604  0.00  0.00    -0.372 N 
ATOM      4  C   UNL     1       2.952  -1.862  13.488  0.00  0.00    +0.166 C 
ATOM      5  H   UNL     1       4.506  -0.921  14.388  0.00  0.00    +0.163 HD
ATOM      6  H   UNL     1       2.501  -3.782  14.068  0.00  0.00    +0.159 HD
ATOM      7  H   UNL     1       3.862  -3.091  14.867  0.00  0.00    +0.159 HD
ATOM      8  H   UNL     1       1.771  -0.989  12.043  0.00  0.00    +0.159 HD
ATOM      9  H   UNL     1       1.320  -2.593  12.471  0.00  0.00    +0.159 HD
ENDROOT
BRANCH   1  10
ATOM     10  C   UNL     1       3.730   0.419  12.925  0.00  0.00    +0.151 C 
BRANCH  10  11
ATOM     11  C   UNL     1       3.855   1.575  13.878  0.00  0.00    -0.028 A 
ATOM     12  C   UNL     1       4.062   1.350  15.247  0.00  0.00    +0.005 A 
ATOM     13  C   UNL     1       3.773   2.898  13.418  0.00  0.00    +0.005 A 
ATOM     14  C   UNL     1       4.208   2.424  16.128  0.00  0.00    +0.000 A 
ATOM     15  C   UNL     1       3.919   3.968  14.301  0.00  0.00    +0.000 A 
ATOM     16  C   UNL     1       4.139   3.731  15.656  0.00  0.00    +0.000 A 
ENDBRANCH  10  11
ENDBRANCH   1  10
TORSDOF 2
ENDMDL
MODEL 8
REMARK VINA RESULT:    -4.047     14.761     16.034
REMARK INTER + INTRA:          -4.677
REMARK INTER:                  -4.529
REMARK INTRA:                  -0.148
REMARK UNBOUND:                -0.156
REMARK  Name = 1550473
REMARK  2 active torsions:
REMARK  status: ('A' for Active; 'I' for Inactive)
REMARK    1  A    between atoms: N_1  and  C_4
REMARK    2  A    between atoms: C_4  and  C_5
REMARK                            x       y       z     vdW  Elec       q    Type
REMARK                         _______ _______ _______ _____ _____    ______ ____
ROOT
ATOM      1  N   UNL     1       0.531  -6.380 -22.179  0.00  0.00    -0.354 N 
ATOM      2  N   UNL     1       0.553  -5.042 -20.288  0.00  0.00    -0.372 N 
ATOM      3  N   UNL     1       1.751  -7.000 -20.276  0.00  0.00    -0.372 N 
ATOM      4  C   UNL     1       0.946  -6.152 -20.926  0.00  0.00    +0.166 C 
ATOM      5  H   UNL     1      -0.102  -5.713 -22.605  0.00  0.00    +0.163 HD
ATOM      6  H   UNL     1       0.853  -4.842 -19.343  0.00  0.00    +0.159 HD
ATOM      7  H   UNL     1      -0.043  -4.355 -20.732  0.00  0.00    +0.159 HD
ATOM      8  H   UNL     1       2.078  -7.858 -20.700  0.00  0.00    +0.159 HD
ATOM      9  H   UNL     1       2.052  -6.822 -19.326  0.00  0.00    +0.159 HD
ENDROOT
BRANCH   1  10
ATOM     10  C   UNL     1       0.944  -7.530 -22.980  0.00  0.00    +0.151 C 
BRANCH  10  11
ATOM     11  C   UNL     1      -0.069  -8.629 -22.821  0.00  0.00    -0.028 A 
ATOM     12  C   UNL     1      -1.438  -8.332 -22.752  0.00  0.00    +0.005 A 
ATOM     13  C   UNL     1       0.333  -9.972 -22.744  0.00  0.00    +0.005 A 
ATOM     14  C   UNL     1      -2.382  -9.355 -22.633  0.00  0.00    +0.000 A 
ATOM     15  C   UNL     1      -0.613 -10.991 -22.625  0.00  0.00    +0.000 A 
ATOM     16  C   UNL     1      -1.970 -10.682 -22.572  0.00  0.00    +0.000 A 
ENDBRANCH  10  11
ENDBRANCH   1  10
TORSDOF 2
ENDMDL
MODEL 9
REMARK VINA RESULT:    -3.759     16.112     17.551
REMARK INTER + INTRA:          -4.355
REMARK INTER:                  -4.238
REMARK INTRA:                  -0.116
REMARK UNBOUND:                -0.156
REMARK  Name = 1550473
REMARK  2 active torsions:
REMARK  status: ('A' for Active; 'I' for Inactive)
REMARK    1  A    between atoms: N_1  and  C_4
REMARK    2  A    between atoms: C_4  and  C_5
REMARK                            x       y       z     vdW  Elec       q    Type
REMARK                         _______ _______ _______ _____ _____    ______ ____
ROOT
ATOM      1  N   UNL     1      -6.978  10.903   4.794  0.00  0.00    -0.354 N 
ATOM      2  N   UNL     1      -8.749  10.574   6.249  0.00  0.00    -0.372 N 
ATOM      3  N   UNL     1      -6.611  10.241   7.012  0.00  0.00    -0.372 N 
ATOM      4  C   UNL     1      -7.432  10.574   6.010  0.00  0.00    +0.166 C 
ATOM      5  H   UNL     1      -7.654  11.117   4.069  0.00  0.00    +0.163 HD
ATOM      6  H   UNL     1      -9.121  10.333   7.158  0.00  0.00    +0.159 HD
ATOM      7  H   UNL     1      -9.420  10.832   5.536  0.00  0.00    +0.159 HD
ATOM      8  H   UNL     1      -5.606  10.216   6.894  0.00  0.00    +0.159 HD
ATOM      9  H   UNL     1      -6.964   9.985   7.925  0.00  0.00    +0.159 HD
ENDROOT
BRANCH   1  10
ATOM     10  C   UNL     1      -5.561  10.986   4.445  0.00  0.00    +0.151 C 
BRANCH  10  11
ATOM     11  C   UNL     1      -5.379  10.545   3.019  0.00  0.00    -0.028 A 
ATOM     12  C   UNL     1      -6.293  10.939   2.030  0.00  0.00    +0.005 A 
ATOM     13  C   UNL     1      -4.293   9.738   2.649  0.00  0.00    +0.005 A 
ATOM     14  C   UNL     1      -6.108  10.554   0.700  0.00  0.00    +0.000 A 
ATOM     15  C   UNL     1      -4.112   9.355   1.320  0.00  0.00    +0.000 A 
ATOM     16  C   UNL     1      -5.018   9.765   0.346  0.00  0.00    +0.000 A 
ENDBRANCH  10  11
ENDBRANCH   1  10
TORSDOF 2
ENDMDL
