MODEL 1
REMARK VINA RESULT:    -5.890      0.000      0.000
REMARK INTER + INTRA:          -6.675
REMARK INTER:                  -6.579
REMARK INTRA:                  -0.096
REMARK UNBOUND:                -0.096
REMARK  Name = 1550473
REMARK  2 active torsions:
REMARK  status: ('A' for Active; 'I' for Inactive)
REMARK    1  A    between atoms: N_1  and  C_4
REMARK    2  A    between atoms: C_4  and  C_5
REMARK                            x       y       z     vdW  Elec       q    Type
REMARK                         _______ _______ _______ _____ _____    ______ ____
ROOT
ATOM      1  N   UNL     1      -5.857  -6.284   7.267  0.00  0.00    -0.354 N 
ATOM      2  N   UNL     1      -4.667  -4.674   6.101  0.00  0.00    -0.372 N 
ATOM      3  N   UNL     1      -6.896  -4.322   6.517  0.00  0.00    -0.372 N 
ATOM      4  C   UNL     1      -5.817  -5.103   6.636  0.00  0.00    +0.166 C 
ATOM      5  H   UNL     1      -5.012  -6.842   7.296  0.00  0.00    +0.163 HD
ATOM      6  H   UNL     1      -4.606  -3.786   5.622  0.00  0.00    +0.159 HD
ATOM      7  H   UNL     1      -3.813  -5.214   6.172  0.00  0.00    +0.159 HD
ATOM      8  H   UNL     1      -7.796  -4.590   6.893  0.00  0.00    +0.159 HD
ATOM      9  H   UNL     1      -6.858  -3.434   6.031  0.00  0.00    +0.159 HD
ENDROOT
BRANCH   1  10
ATOM     10  C   UNL     1      -7.046  -6.817   7.929  0.00  0.00    +0.151 C 
BRANCH  10  11
ATOM     11  C   UNL     1      -6.678  -8.082   8.655  0.00  0.00    -0.028 A 
ATOM     12  C   UNL     1      -7.099  -9.329   8.171  0.00  0.00    +0.005 A 
ATOM     13  C   UNL     1      -5.904  -8.040   9.825  0.00  0.00    +0.005 A 
ATOM     14  C   UNL     1      -6.732 -10.506   8.828  0.00  0.00    +0.000 A 
ATOM     15  C   UNL     1      -5.540  -9.217  10.479  0.00  0.00    +0.000 A 
ATOM     16  C   UNL     1      -5.952 -10.450   9.979  0.00  0.00    +0.000 A 
ENDBRANCH  10  11
ENDBRANCH   1  10
TORSDOF 2
ENDMDL
MODEL 2
REMARK VINA RESULT:    -5.551      3.638      5.576
REMARK INTER + INTRA:          -6.296
REMARK INTER:                  -6.158
REMARK INTRA:                  -0.138
REMARK UNBOUND:                -0.096
REMARK  Name = 1550473
REMARK  2 active torsions:
REMARK  status: ('A' for Active; 'I' for Inactive)
REMARK    1  A    between atoms: N_1  and  C_4
REMARK    2  A    between atoms: C_4  and  C_5
REMARK                            x       y       z     vdW  Elec       q    Type
REMARK                         _______ _______ _______ _____ _____    ______ ____
ROOT
ATOM      1  N   UNL     1      -6.071  -4.424   7.330  0.00  0.00    -0.354 N 
ATOM      2  N   UNL     1      -4.346  -4.291   5.790  0.00  0.00    -0.372 N 
ATOM      3  N   UNL     1      -5.781  -6.079   5.696  0.00  0.00    -0.372 N 
ATOM      4  C   UNL     1      -5.412  -4.935   6.281  0.00  0.00    +0.166 C 
ATOM      5  H   UNL     1      -5.722  -3.569   7.747  0.00  0.00    +0.163 HD
ATOM      6  H   UNL     1      -3.830  -4.651   4.998  0.00  0.00    +0.159 HD
ATOM      7  H   UNL     1      -4.027  -3.413   6.180  0.00  0.00    +0.159 HD
ATOM      8  H   UNL     1      -6.574  -6.615   6.022  0.00  0.00    +0.159 HD
ATOM      9  H   UNL     1      -5.271  -6.461   4.909  0.00  0.00    +0.159 HD
ENDROOT
BRANCH   1  10
ATOM     10  C   UNL     1      -7.275  -5.018   7.907  0.00  0.00    +0.151 C 
BRANCH  10  11
ATOM     11  C   UNL     1      -8.306  -3.941   8.107  0.00  0.00    -0.028 A 
ATOM     12  C   UNL     1      -8.422  -2.887   7.189  0.00  0.00    +0.005 A 
ATOM     13  C   UNL     1      -9.174  -3.973   9.209  0.00  0.00    +0.005 A 
ATOM     14  C   UNL     1      -9.400  -1.903   7.358  0.00  0.00    +0.000 A 
ATOM     15  C   UNL     1     -10.148  -2.989   9.375  0.00  0.00    +0.000 A 
ATOM     16  C   UNL     1     -10.262  -1.955   8.448  0.00  0.00    +0.000 A 
ENDBRANCH  10  11
ENDBRANCH   1  10
TORSDOF 2
ENDMDL
MODEL 3
REMARK VINA RESULT:    -5.479      3.694      5.591
REMARK INTER + INTRA:          -6.215
REMARK INTER:                  -6.072
REMARK INTRA:                  -0.143
REMARK UNBOUND:                -0.096
REMARK  Name = 1550473
REMARK  2 active torsions:
REMARK  status: ('A' for Active; 'I' for Inactive)
REMARK    1  A    between atoms: N_1  and  C_4
REMARK    2  A    between atoms: C_4  and  C_5
REMARK                            x       y       z     vdW  Elec       q    Type
REMARK                         _______ _______ _______ _____ _____    ______ ____
ROOT
ATOM      1  N   UNL     1      -6.943  -4.374   6.900  0.00  0.00    -0.354 N 
ATOM      2  N   UNL     1      -5.739  -5.654   5.391  0.00  0.00    -0.372 N 
ATOM      3  N   UNL     1      -5.874  -6.348   7.574  0.00  0.00    -0.372 N 
ATOM      4  C   UNL     1      -6.193  -5.452   6.634  0.00  0.00    +0.166 C 
ATOM      5  H   UNL     1      -7.124  -3.716   6.150  0.00  0.00    +0.163 HD
ATOM      6  H   UNL     1      -5.173  -6.459   5.160  0.00  0.00    +0.159 HD
ATOM      7  H   UNL     1      -5.959  -5.019   4.634  0.00  0.00    +0.159 HD
ATOM      8  H   UNL     1      -6.180  -6.250   8.533  0.00  0.00    +0.159 HD
ATOM      9  H   UNL     1      -5.300  -7.154   7.365  0.00  0.00    +0.159 HD
ENDROOT
BRANCH   1  10
ATOM     10  C   UNL     1      -7.531  -4.090   8.208  0.00  0.00    +0.151 C 
BRANCH  10  11
ATOM     11  C   UNL     1      -9.023  -3.974   8.061  0.00  0.00    -0.028 A 
ATOM     12  C   UNL     1      -9.871  -4.287   9.133  0.00  0.00    +0.005 A 
ATOM     13  C   UNL     1      -9.595  -3.545   6.853  0.00  0.00    +0.005 A 
ATOM     14  C   UNL     1     -11.255  -4.151   9.006  0.00  0.00    +0.000 A 
ATOM     15  C   UNL     1     -10.978  -3.411   6.730  0.00  0.00    +0.000 A 
ATOM     16  C   UNL     1     -11.808  -3.712   7.808  0.00  0.00    +0.000 A 
ENDBRANCH  10  11
ENDBRANCH   1  10
TORSDOF 2
ENDMDL
MODEL 4
REMARK VINA RESULT:    -4.920      2.039      2.743
REMARK INTER + INTRA:          -5.590
REMARK INTER:                  -5.455
REMARK INTRA:                  -0.135
REMARK UNBOUND:                -0.096
REMARK  Name = 1550473
REMARK  2 active torsions:
REMARK  status: ('A' for Active; 'I' for Inactive)
REMARK    1  A    between atoms: N_1  and  C_4
REMARK    2  A    between atoms: C_4  and  C_5
REMARK                            x       y       z     vdW  Elec       q    Type
REMARK                         _______ _______ _______ _____ _____    ______ ____
ROOT
ATOM      1  N   UNL     1      -7.680  -4.050   8.316  0.00  0.00    -0.354 N 
ATOM      2  N   UNL     1      -7.148  -2.350   6.837  0.00  0.00    -0.372 N 
ATOM      3  N   UNL     1      -8.958  -3.686   6.386  0.00  0.00    -0.372 N 
ATOM      4  C   UNL     1      -7.935  -3.374   7.188  0.00  0.00    +0.166 C 
ATOM      5  H   UNL     1      -6.871  -3.784   8.865  0.00  0.00    +0.163 HD
ATOM      6  H   UNL     1      -7.317  -1.819   5.993  0.00  0.00    +0.159 HD
ATOM      7  H   UNL     1      -6.367  -2.056   7.411  0.00  0.00    +0.159 HD
ATOM      8  H   UNL     1      -9.585  -4.452   6.591  0.00  0.00    +0.159 HD
ATOM      9  H   UNL     1      -9.137  -3.174   5.531  0.00  0.00    +0.159 HD
ENDROOT
BRANCH   1  10
ATOM     10  C   UNL     1      -8.507  -5.147   8.816  0.00  0.00    +0.151 C 
BRANCH  10  11
ATOM     11  C   UNL     1      -7.624  -6.323   9.134  0.00  0.00    -0.028 A 
ATOM     12  C   UNL     1      -7.282  -6.617  10.462  0.00  0.00    +0.005 A 
ATOM     13  C   UNL     1      -7.132  -7.149   8.112  0.00  0.00    +0.005 A 
ATOM     14  C   UNL     1      -6.486  -7.726  10.760  0.00  0.00    +0.000 A 
ATOM     15  C   UNL     1      -6.337  -8.254   8.414  0.00  0.00    +0.000 A 
ATOM     16  C   UNL     1      -6.017  -8.544   9.738  0.00  0.00    +0.000 A 
ENDBRANCH  10  11
ENDBRANCH   1  10
TORSDOF 2
ENDMDL
MODEL 5
REMARK VINA RESULT:    -4.881     22.498     25.396
REMARK INTER + INTRA:          -5.547
REMARK INTER:                  -5.379
REMARK INTRA:                  -0.168
REMARK UNBOUND:                -0.096
REMARK  Name = 1550473
REMARK  2 active torsions:
REMARK  status: ('A' for Active; 'I' for Inactive)
REMARK    1  A    between atoms: N_1  and  C_4
REMARK    2  A    between atoms: C_4  and  C_5
REMARK                            x       y       z     vdW  Elec       q    Type
REMARK                         _______ _______ _______ _____ _____    ______ ____
ROOT
ATOM      1  N   UNL     1       5.130   7.045  -6.684  0.00  0.00    -0.354 N 
ATOM      2  N   UNL     1       4.287   5.839  -4.896  0.00  0.00    -0.372 N 
ATOM      3  N   UNL     1       6.291   5.204  -5.816  0.00  0.00    -0.372 N 
ATOM      4  C   UNL     1       5.244   6.035  -5.811  0.00  0.00    +0.166 C 
ATOM      5  H   UNL     1       4.297   7.622  -6.647  0.00  0.00    +0.163 HD
ATOM      6  H   UNL     1       4.347   5.087  -4.222  0.00  0.00    +0.159 HD
ATOM      7  H   UNL     1       3.478   6.445  -4.832  0.00  0.00    +0.159 HD
ATOM      8  H   UNL     1       7.044   5.295  -6.485  0.00  0.00    +0.159 HD
ATOM      9  H   UNL     1       6.363   4.439  -5.157  0.00  0.00    +0.159 HD
ENDROOT
BRANCH   1  10
ATOM     10  C   UNL     1       6.142   7.378  -7.685  0.00  0.00    +0.151 C 
BRANCH  10  11
ATOM     11  C   UNL     1       7.088   8.395  -7.108  0.00  0.00    -0.028 A 
ATOM     12  C   UNL     1       8.411   8.045  -6.804  0.00  0.00    +0.005 A 
ATOM     13  C   UNL     1       6.668   9.713  -6.869  0.00  0.00    +0.005 A 
ATOM     14  C   UNL     1       9.298   8.997  -6.296  0.00  0.00    +0.000 A 
ATOM     15  C   UNL     1       7.557  10.660  -6.362  0.00  0.00    +0.000 A 
ATOM     16  C   UNL     1       8.872  10.303  -6.078  0.00  0.00    +0.000 A 
ENDBRANCH  10  11
ENDBRANCH   1  10
TORSDOF 2
ENDMDL
MODEL 6
REMARK VINA RESULT:    -4.591     24.877     26.840
REMARK INTER + INTRA:          -5.224
REMARK INTER:                  -5.110
REMARK INTRA:                  -0.114
REMARK UNBOUND:                -0.096
REMARK  Name = 1550473
REMARK  2 active torsions:
REMARK  status: ('A' for Active; 'I' for Inactive)
REMARK    1  A    between atoms: N_1  and  C_4
REMARK    2  A    between atoms: C_4  and  C_5
REMARK                            x       y       z     vdW  Elec       q    Type
REMARK                         _______ _______ _______ _____ _____    ______ ____
ROOT
ATOM      1  N   UNL     1      18.221  -1.013   3.410  0.00  0.00    -0.354 N 
ATOM      2  N   UNL     1      18.804  -3.082   4.273  0.00  0.00    -0.372 N 
ATOM      3  N   UNL     1      16.587  -2.620   3.901  0.00  0.00    -0.372 N 
ATOM      4  C   UNL     1      17.864  -2.225   3.856  0.00  0.00    +0.166 C 
ATOM      5  H   UNL     1      19.203  -0.763   3.429  0.00  0.00    +0.163 HD
ATOM      6  H   UNL     1      18.565  -4.004   4.612  0.00  0.00    +0.159 HD
ATOM      7  H   UNL     1      19.788  -2.846   4.248  0.00  0.00    +0.159 HD
ATOM      8  H   UNL     1      15.830  -2.018   3.606  0.00  0.00    +0.159 HD
ATOM      9  H   UNL     1      16.327  -3.535   4.248  0.00  0.00    +0.159 HD
ENDROOT
BRANCH   1  10
ATOM     10  C   UNL     1      17.280  -0.026   2.883  0.00  0.00    +0.151 C 
BRANCH  10  11
ATOM     11  C   UNL     1      18.023   0.941   2.003  0.00  0.00    -0.028 A 
ATOM     12  C   UNL     1      19.324   1.349   2.334  0.00  0.00    +0.005 A 
ATOM     13  C   UNL     1      17.435   1.448   0.834  0.00  0.00    +0.005 A 
ATOM     14  C   UNL     1      20.026   2.223   1.502  0.00  0.00    +0.000 A 
ATOM     15  C   UNL     1      18.140   2.321   0.006  0.00  0.00    +0.000 A 
ATOM     16  C   UNL     1      19.436   2.707   0.339  0.00  0.00    +0.000 A 
ENDBRANCH  10  11
ENDBRANCH   1  10
TORSDOF 2
ENDMDL
MODEL 7
REMARK VINA RESULT:    -4.515     23.987     24.786
REMARK INTER + INTRA:          -5.139
REMARK INTER:                  -4.985
REMARK INTRA:                  -0.154
REMARK UNBOUND:                -0.096
REMARK  Name = 1550473
REMARK  2 active torsions:
REMARK  status: ('A' for Active; 'I' for Inactive)
REMARK    1  A    between atoms: N_1  and  C_4
REMARK    2  A    between atoms: C_4  and  C_5
REMARK                            x       y       z     vdW  Elec       q    Type
REMARK                         _______ _______ _______ _____ _____    ______ ____
ROOT
ATOM      1  N   UNL     1      -0.504 -16.236 -15.870  0.00  0.00    -0.354 N 
ATOM      2  N   UNL     1       1.685 -16.963 -15.655  0.00  0.00    -0.372 N 
ATOM      3  N   UNL     1       1.212 -14.747 -15.298  0.00  0.00    -0.372 N 
ATOM      4  C   UNL     1       0.784 -15.974 -15.609  0.00  0.00    +0.166 C 
ATOM      5  H   UNL     1      -0.760 -17.182 -16.129  0.00  0.00    +0.163 HD
ATOM      6  H   UNL     1       2.663 -16.797 -15.459  0.00  0.00    +0.159 HD
ATOM      7  H   UNL     1       1.419 -17.917 -15.869  0.00  0.00    +0.159 HD
ATOM      8  H   UNL     1       0.584 -13.956 -15.252  0.00  0.00    +0.159 HD
ATOM      9  H   UNL     1       2.189 -14.558 -15.110  0.00  0.00    +0.159 HD
ENDROOT
BRANCH   1  10
ATOM     10  C   UNL     1      -1.572 -15.241 -15.794  0.00  0.00    +0.151 C 
BRANCH  10  11
ATOM     11  C   UNL     1      -2.463 -15.566 -14.627  0.00  0.00    -0.028 A 
ATOM     12  C   UNL     1      -2.843 -16.891 -14.368  0.00  0.00    +0.005 A 
ATOM     13  C   UNL     1      -2.927 -14.553 -13.774  0.00  0.00    +0.005 A 
ATOM     14  C   UNL     1      -3.646 -17.196 -13.266  0.00  0.00    +0.000 A 
ATOM     15  C   UNL     1      -3.730 -14.862 -12.676  0.00  0.00    +0.000 A 
ATOM     16  C   UNL     1      -4.087 -16.184 -12.421  0.00  0.00    +0.000 A 
ENDBRANCH  10  11
ENDBRANCH   1  10
TORSDOF 2
ENDMDL
MODEL 8
REMARK VINA RESULT:    -4.469      5.244      7.220
REMARK INTER + INTRA:          -5.087
REMARK INTER:                  -4.979
REMARK INTRA:                  -0.108
REMARK UNBOUND:                -0.096
REMARK  Name = 1550473
REMARK  2 active torsions:
REMARK  status: ('A' for Active; 'I' for Inactive)
REMARK    1  A    between atoms: N_1  and  C_4
REMARK    2  A    between atoms: C_4  and  C_5
REMARK                            x       y       z     vdW  Elec       q    Type
REMARK                         _______ _______ _______ _____ _____    ______ ____
ROOT
ATOM      1  N   UNL     1      -8.636  -3.866   8.694  0.00  0.00    -0.354 N 
ATOM      2  N   UNL     1      -7.021  -4.551  10.206  0.00  0.00    -0.372 N 
ATOM      3  N   UNL     1      -6.732  -5.031   7.981  0.00  0.00    -0.372 N 
ATOM      4  C   UNL     1      -7.473  -4.479   8.948  0.00  0.00    +0.166 C 
ATOM      5  H   UNL     1      -9.165  -3.495   9.475  0.00  0.00    +0.163 HD
ATOM      6  H   UNL     1      -6.145  -5.005  10.428  0.00  0.00    +0.159 HD
ATOM      7  H   UNL     1      -7.529  -4.139  10.979  0.00  0.00    +0.159 HD
ATOM      8  H   UNL     1      -7.020  -5.016   7.011  0.00  0.00    +0.159 HD
ATOM      9  H   UNL     1      -5.858  -5.499   8.184  0.00  0.00    +0.159 HD
ENDROOT
BRANCH   1  10
ATOM     10  C   UNL     1      -9.191  -3.687   7.353  0.00  0.00    +0.151 C 
BRANCH  10  11
ATOM     11  C   UNL     1     -10.595  -3.163   7.469  0.00  0.00    -0.028 A 
ATOM     12  C   UNL     1     -10.905  -2.153   8.391  0.00  0.00    +0.005 A 
ATOM     13  C   UNL     1     -11.620  -3.668   6.654  0.00  0.00    +0.005 A 
ATOM     14  C   UNL     1     -12.204  -1.645   8.478  0.00  0.00    +0.000 A 
ATOM     15  C   UNL     1     -12.916  -3.158   6.744  0.00  0.00    +0.000 A 
ATOM     16  C   UNL     1     -13.206  -2.145   7.654  0.00  0.00    +0.000 A 
ENDBRANCH  10  11
ENDBRANCH   1  10
TORSDOF 2
ENDMDL
MODEL 9
REMARK VINA RESULT:    -4.333      6.178      7.894
REMARK INTER + INTRA:          -4.935
REMARK INTER:                  -4.805
REMARK INTRA:                  -0.130
REMARK UNBOUND:                -0.096
REMARK  Name = 1550473
REMARK  2 active torsions:
REMARK  status: ('A' for Active; 'I' for Inactive)
REMARK    1  A    between atoms: N_1  and  C_4
REMARK    2  A    between atoms: C_4  and  C_5
REMARK                            x       y       z     vdW  Elec       q    Type
REMARK                         _______ _______ _______ _____ _____    ______ ____
ROOT
ATOM      1  N   UNL     1      -9.966  -3.886   7.773  0.00  0.00    -0.354 N 
ATOM      2  N   UNL     1      -7.846  -4.062   8.689  0.00  0.00    -0.372 N 
ATOM      3  N   UNL     1      -8.052  -3.645   6.442  0.00  0.00    -0.372 N 
ATOM      4  C   UNL     1      -8.634  -3.863   7.626  0.00  0.00    +0.166 C 
ATOM      5  H   UNL     1     -10.345  -4.086   8.691  0.00  0.00    +0.163 HD
ATOM      6  H   UNL     1      -6.838  -4.047   8.609  0.00  0.00    +0.159 HD
ATOM      7  H   UNL     1      -8.228  -4.217   9.614  0.00  0.00    +0.159 HD
ATOM      8  H   UNL     1      -8.591  -3.493   5.600  0.00  0.00    +0.159 HD
ATOM      9  H   UNL     1      -7.045  -3.638   6.340  0.00  0.00    +0.159 HD
ENDROOT
BRANCH   1  10
ATOM     10  C   UNL     1     -10.913  -3.627   6.690  0.00  0.00    +0.151 C 
BRANCH  10  11
ATOM     11  C   UNL     1     -12.150  -2.991   7.260  0.00  0.00    -0.028 A 
ATOM     12  C   UNL     1     -13.373  -3.077   6.580  0.00  0.00    +0.005 A 
ATOM     13  C   UNL     1     -12.107  -2.305   8.484  0.00  0.00    +0.005 A 
ATOM     14  C   UNL     1     -14.529  -2.512   7.124  0.00  0.00    +0.000 A 
ATOM     15  C   UNL     1     -13.263  -1.741   9.023  0.00  0.00    +0.000 A 
ATOM     16  C   UNL     1     -14.474  -1.847   8.344  0.00  0.00    +0.000 A 
ENDBRANCH  10  11
ENDBRANCH   1  10
TORSDOF 2
ENDMDL
