MODEL 1
REMARK VINA RESULT:    -4.856      0.000      0.000
REMARK INTER + INTRA:          -5.527
REMARK INTER:                  -5.423
REMARK INTRA:                  -0.104
REMARK UNBOUND:                -0.104
REMARK  Name = 1550473
REMARK  2 active torsions:
REMARK  status: ('A' for Active; 'I' for Inactive)
REMARK    1  A    between atoms: N_1  and  C_4
REMARK    2  A    between atoms: C_4  and  C_5
REMARK                            x       y       z     vdW  Elec       q    Type
REMARK                         _______ _______ _______ _____ _____    ______ ____
ROOT
ATOM      1  N   UNL     1      10.466   0.493  14.038  0.00  0.00    -0.354 N 
ATOM      2  N   UNL     1      10.891   2.770  14.011  0.00  0.00    -0.372 N 
ATOM      3  N   UNL     1      11.983   1.420  12.511  0.00  0.00    -0.372 N 
ATOM      4  C   UNL     1      11.112   1.545  13.518  0.00  0.00    +0.166 C 
ATOM      5  H   UNL     1       9.841   0.651  14.820  0.00  0.00    +0.163 HD
ATOM      6  H   UNL     1      11.361   3.583  13.637  0.00  0.00    +0.159 HD
ATOM      7  H   UNL     1      10.231   2.930  14.762  0.00  0.00    +0.159 HD
ATOM      8  H   UNL     1      12.199   0.522  12.099  0.00  0.00    +0.159 HD
ATOM      9  H   UNL     1      12.473   2.220  12.131  0.00  0.00    +0.159 HD
ENDROOT
BRANCH   1  10
ATOM     10  C   UNL     1      10.595  -0.875  13.538  0.00  0.00    +0.151 C 
BRANCH  10  11
ATOM     11  C   UNL     1       9.731  -1.784  14.368  0.00  0.00    -0.028 A 
ATOM     12  C   UNL     1       9.866  -1.816  15.763  0.00  0.00    +0.005 A 
ATOM     13  C   UNL     1       8.773  -2.612  13.764  0.00  0.00    +0.005 A 
ATOM     14  C   UNL     1       9.043  -2.639  16.536  0.00  0.00    +0.000 A 
ATOM     15  C   UNL     1       7.954  -3.433  14.539  0.00  0.00    +0.000 A 
ATOM     16  C   UNL     1       8.087  -3.444  15.926  0.00  0.00    +0.000 A 
ENDBRANCH  10  11
ENDBRANCH   1  10
TORSDOF 2
ENDMDL
MODEL 2
REMARK VINA RESULT:    -4.649     27.473     28.389
REMARK INTER + INTRA:          -5.296
REMARK INTER:                  -5.160
REMARK INTRA:                  -0.136
REMARK UNBOUND:                -0.104
REMARK  Name = 1550473
REMARK  2 active torsions:
REMARK  status: ('A' for Active; 'I' for Inactive)
REMARK    1  A    between atoms: N_1  and  C_4
REMARK    2  A    between atoms: C_4  and  C_5
REMARK                            x       y       z     vdW  Elec       q    Type
REMARK                         _______ _______ _______ _____ _____    ______ ____
ROOT
ATOM      1  N   UNL     1      -4.750  -0.257 -10.517  0.00  0.00    -0.354 N 
ATOM      2  N   UNL     1      -5.006  -2.322 -11.532  0.00  0.00    -0.372 N 
ATOM      3  N   UNL     1      -3.210  -1.983 -10.145  0.00  0.00    -0.372 N 
ATOM      4  C   UNL     1      -4.318  -1.508 -10.723  0.00  0.00    +0.166 C 
ATOM      5  H   UNL     1      -5.580   0.053 -11.008  0.00  0.00    +0.163 HD
ATOM      6  H   UNL     1      -4.707  -3.273 -11.704  0.00  0.00    +0.159 HD
ATOM      7  H   UNL     1      -5.861  -2.025 -11.986  0.00  0.00    +0.159 HD
ATOM      8  H   UNL     1      -2.642  -1.417  -9.529  0.00  0.00    +0.159 HD
ATOM      9  H   UNL     1      -2.887  -2.928 -10.314  0.00  0.00    +0.159 HD
ENDROOT
BRANCH   1  10
ATOM     10  C   UNL     1      -4.103   0.693  -9.613  0.00  0.00    +0.151 C 
BRANCH  10  11
ATOM     11  C   UNL     1      -5.160   1.432  -8.839  0.00  0.00    -0.028 A 
ATOM     12  C   UNL     1      -4.805   2.270  -7.771  0.00  0.00    +0.005 A 
ATOM     13  C   UNL     1      -6.517   1.304  -9.172  0.00  0.00    +0.005 A 
ATOM     14  C   UNL     1      -5.783   2.980  -7.071  0.00  0.00    +0.000 A 
ATOM     15  C   UNL     1      -7.491   2.014  -8.470  0.00  0.00    +0.000 A 
ATOM     16  C   UNL     1      -7.123   2.854  -7.422  0.00  0.00    +0.000 A 
ENDBRANCH  10  11
ENDBRANCH   1  10
TORSDOF 2
ENDMDL
MODEL 3
REMARK VINA RESULT:    -4.619     26.961     27.866
REMARK INTER + INTRA:          -5.263
REMARK INTER:                  -5.151
REMARK INTRA:                  -0.112
REMARK UNBOUND:                -0.104
REMARK  Name = 1550473
REMARK  2 active torsions:
REMARK  status: ('A' for Active; 'I' for Inactive)
REMARK    1  A    between atoms: N_1  and  C_4
REMARK    2  A    between atoms: C_4  and  C_5
REMARK                            x       y       z     vdW  Elec       q    Type
REMARK                         _______ _______ _______ _____ _____    ______ ____
ROOT
ATOM      1  N   UNL     1      -4.927   1.989  -7.865  0.00  0.00    -0.354 N 
ATOM      2  N   UNL     1      -4.758   4.209  -7.228  0.00  0.00    -0.372 N 
ATOM      3  N   UNL     1      -6.719   3.086  -6.826  0.00  0.00    -0.372 N 
ATOM      4  C   UNL     1      -5.472   3.080  -7.310  0.00  0.00    +0.166 C 
ATOM      5  H   UNL     1      -3.988   2.057  -8.240  0.00  0.00    +0.163 HD
ATOM      6  H   UNL     1      -5.141   5.047  -6.811  0.00  0.00    +0.159 HD
ATOM      7  H   UNL     1      -3.804   4.262  -7.562  0.00  0.00    +0.159 HD
ATOM      8  H   UNL     1      -7.312   2.268  -6.863  0.00  0.00    +0.159 HD
ATOM      9  H   UNL     1      -7.124   3.919  -6.416  0.00  0.00    +0.159 HD
ENDROOT
BRANCH   1  10
ATOM     10  C   UNL     1      -5.601   0.694  -7.955  0.00  0.00    +0.151 C 
BRANCH  10  11
ATOM     11  C   UNL     1      -5.022  -0.081  -9.106  0.00  0.00    -0.028 A 
ATOM     12  C   UNL     1      -3.641  -0.067  -9.351  0.00  0.00    +0.005 A 
ATOM     13  C   UNL     1      -5.849  -0.837  -9.951  0.00  0.00    +0.005 A 
ATOM     14  C   UNL     1      -3.100  -0.812 -10.402  0.00  0.00    +0.000 A 
ATOM     15  C   UNL     1      -5.305  -1.578 -11.000  0.00  0.00    +0.000 A 
ATOM     16  C   UNL     1      -3.930  -1.568 -11.224  0.00  0.00    +0.000 A 
ENDBRANCH  10  11
ENDBRANCH   1  10
TORSDOF 2
ENDMDL
MODEL 4
REMARK VINA RESULT:    -4.593     20.823     21.994
REMARK INTER + INTRA:          -5.233
REMARK INTER:                  -5.095
REMARK INTRA:                  -0.138
REMARK UNBOUND:                -0.104
REMARK  Name = 1550473
REMARK  2 active torsions:
REMARK  status: ('A' for Active; 'I' for Inactive)
REMARK    1  A    between atoms: N_1  and  C_4
REMARK    2  A    between atoms: C_4  and  C_5
REMARK                            x       y       z     vdW  Elec       q    Type
REMARK                         _______ _______ _______ _____ _____    ______ ____
ROOT
ATOM      1  N   UNL     1      -6.637  12.497  11.740  0.00  0.00    -0.354 N 
ATOM      2  N   UNL     1      -8.636  12.785  12.874  0.00  0.00    -0.372 N 
ATOM      3  N   UNL     1      -6.677  12.755  14.069  0.00  0.00    -0.372 N 
ATOM      4  C   UNL     1      -7.302  12.677  12.889  0.00  0.00    +0.166 C 
ATOM      5  H   UNL     1      -7.171  12.416  10.883  0.00  0.00    +0.163 HD
ATOM      6  H   UNL     1      -9.164  12.925  13.725  0.00  0.00    +0.159 HD
ATOM      7  H   UNL     1      -9.163  12.749  12.010  0.00  0.00    +0.159 HD
ATOM      8  H   UNL     1      -5.672  12.676  14.150  0.00  0.00    +0.159 HD
ATOM      9  H   UNL     1      -7.190  12.883  14.933  0.00  0.00    +0.159 HD
ENDROOT
BRANCH   1  10
ATOM     10  C   UNL     1      -5.180  12.421  11.642  0.00  0.00    +0.151 C 
BRANCH  10  11
ATOM     11  C   UNL     1      -4.690  13.532  10.754  0.00  0.00    -0.028 A 
ATOM     12  C   UNL     1      -5.019  13.552   9.391  0.00  0.00    +0.005 A 
ATOM     13  C   UNL     1      -3.899  14.569  11.272  0.00  0.00    +0.005 A 
ATOM     14  C   UNL     1      -4.589  14.599   8.573  0.00  0.00    +0.000 A 
ATOM     15  C   UNL     1      -3.471  15.613  10.451  0.00  0.00    +0.000 A 
ATOM     16  C   UNL     1      -3.818  15.628   9.103  0.00  0.00    +0.000 A 
ENDBRANCH  10  11
ENDBRANCH   1  10
TORSDOF 2
ENDMDL
MODEL 5
REMARK VINA RESULT:    -4.452     10.905     11.744
REMARK INTER + INTRA:          -5.076
REMARK INTER:                  -4.929
REMARK INTRA:                  -0.147
REMARK UNBOUND:                -0.104
REMARK  Name = 1550473
REMARK  2 active torsions:
REMARK  status: ('A' for Active; 'I' for Inactive)
REMARK    1  A    between atoms: N_1  and  C_4
REMARK    2  A    between atoms: C_4  and  C_5
REMARK                            x       y       z     vdW  Elec       q    Type
REMARK                         _______ _______ _______ _____ _____    ______ ____
ROOT
ATOM      1  N   UNL     1       6.282   5.972  21.815  0.00  0.00    -0.354 N 
ATOM      2  N   UNL     1       7.126   6.013  23.972  0.00  0.00    -0.372 N 
ATOM      3  N   UNL     1       6.089   4.108  23.223  0.00  0.00    -0.372 N 
ATOM      4  C   UNL     1       6.492   5.362  22.989  0.00  0.00    +0.166 C 
ATOM      5  H   UNL     1       6.586   6.933  21.711  0.00  0.00    +0.163 HD
ATOM      6  H   UNL     1       7.302   5.577  24.867  0.00  0.00    +0.159 HD
ATOM      7  H   UNL     1       7.469   6.958  23.849  0.00  0.00    +0.159 HD
ATOM      8  H   UNL     1       5.600   3.564  22.525  0.00  0.00    +0.159 HD
ATOM      9  H   UNL     1       6.245   3.659  24.116  0.00  0.00    +0.159 HD
ENDROOT
BRANCH   1  10
ATOM     10  C   UNL     1       5.650   5.332  20.663  0.00  0.00    +0.151 C 
BRANCH  10  11
ATOM     11  C   UNL     1       4.434   6.124  20.268  0.00  0.00    -0.028 A 
ATOM     12  C   UNL     1       3.178   5.821  20.814  0.00  0.00    +0.005 A 
ATOM     13  C   UNL     1       4.532   7.183  19.352  0.00  0.00    +0.005 A 
ATOM     14  C   UNL     1       2.054   6.576  20.470  0.00  0.00    +0.000 A 
ATOM     15  C   UNL     1       3.406   7.933  19.010  0.00  0.00    +0.000 A 
ATOM     16  C   UNL     1       2.168   7.631  19.572  0.00  0.00    +0.000 A 
ENDBRANCH  10  11
ENDBRANCH   1  10
TORSDOF 2
ENDMDL
MODEL 6
REMARK VINA RESULT:    -4.441     11.564     12.476
REMARK INTER + INTRA:          -5.064
REMARK INTER:                  -4.917
REMARK INTRA:                  -0.147
REMARK UNBOUND:                -0.104
REMARK  Name = 1550473
REMARK  2 active torsions:
REMARK  status: ('A' for Active; 'I' for Inactive)
REMARK    1  A    between atoms: N_1  and  C_4
REMARK    2  A    between atoms: C_4  and  C_5
REMARK                            x       y       z     vdW  Elec       q    Type
REMARK                         _______ _______ _______ _____ _____    ______ ____
ROOT
ATOM      1  N   UNL     1       0.615   5.561  20.841  0.00  0.00    -0.354 N 
ATOM      2  N   UNL     1      -1.244   5.123  19.531  0.00  0.00    -0.372 N 
ATOM      3  N   UNL     1       0.214   3.413  19.995  0.00  0.00    -0.372 N 
ATOM      4  C   UNL     1      -0.125   4.699  20.131  0.00  0.00    +0.166 C 
ATOM      5  H   UNL     1       0.321   6.530  20.880  0.00  0.00    +0.163 HD
ATOM      6  H   UNL     1      -1.824   4.495  18.991  0.00  0.00    +0.159 HD
ATOM      7  H   UNL     1      -1.560   6.082  19.610  0.00  0.00    +0.159 HD
ATOM      8  H   UNL     1       1.049   3.032  20.418  0.00  0.00    +0.159 HD
ATOM      9  H   UNL     1      -0.348   2.772  19.449  0.00  0.00    +0.159 HD
ENDROOT
BRANCH   1  10
ATOM     10  C   UNL     1       1.822   5.189  21.577  0.00  0.00    +0.151 C 
BRANCH  10  11
ATOM     11  C   UNL     1       3.019   5.791  20.894  0.00  0.00    -0.028 A 
ATOM     12  C   UNL     1       4.309   5.310  21.163  0.00  0.00    +0.005 A 
ATOM     13  C   UNL     1       2.870   6.839  19.973  0.00  0.00    +0.005 A 
ATOM     14  C   UNL     1       5.418   5.849  20.507  0.00  0.00    +0.000 A 
ATOM     15  C   UNL     1       3.980   7.375  19.321  0.00  0.00    +0.000 A 
ATOM     16  C   UNL     1       5.254   6.878  19.586  0.00  0.00    +0.000 A 
ENDBRANCH  10  11
ENDBRANCH   1  10
TORSDOF 2
ENDMDL
MODEL 7
REMARK VINA RESULT:    -4.421     28.430     29.321
REMARK INTER + INTRA:          -5.041
REMARK INTER:                  -4.943
REMARK INTRA:                  -0.099
REMARK UNBOUND:                -0.104
REMARK  Name = 1550473
REMARK  2 active torsions:
REMARK  status: ('A' for Active; 'I' for Inactive)
REMARK    1  A    between atoms: N_1  and  C_4
REMARK    2  A    between atoms: C_4  and  C_5
REMARK                            x       y       z     vdW  Elec       q    Type
REMARK                         _______ _______ _______ _____ _____    ______ ____
ROOT
ATOM      1  N   UNL     1      -9.838   1.726  -7.989  0.00  0.00    -0.354 N 
ATOM      2  N   UNL     1     -11.872   0.641  -7.767  0.00  0.00    -0.372 N 
ATOM      3  N   UNL     1     -11.798   2.920  -7.512  0.00  0.00    -0.372 N 
ATOM      4  C   UNL     1     -11.157   1.772  -7.757  0.00  0.00    +0.166 C 
ATOM      5  H   UNL     1      -9.407   0.821  -8.138  0.00  0.00    +0.163 HD
ATOM      6  H   UNL     1     -12.869   0.644  -7.599  0.00  0.00    +0.159 HD
ATOM      7  H   UNL     1     -11.446  -0.257  -7.961  0.00  0.00    +0.159 HD
ATOM      8  H   UNL     1     -11.314   3.808  -7.485  0.00  0.00    +0.159 HD
ATOM      9  H   UNL     1     -12.793   2.943  -7.330  0.00  0.00    +0.159 HD
ENDROOT
BRANCH   1  10
ATOM     10  C   UNL     1      -8.978   2.906  -8.053  0.00  0.00    +0.151 C 
BRANCH  10  11
ATOM     11  C   UNL     1      -7.540   2.465  -8.067  0.00  0.00    -0.028 A 
ATOM     12  C   UNL     1      -7.063   1.625  -9.084  0.00  0.00    +0.005 A 
ATOM     13  C   UNL     1      -6.649   2.889  -7.070  0.00  0.00    +0.005 A 
ATOM     14  C   UNL     1      -5.720   1.240  -9.114  0.00  0.00    +0.000 A 
ATOM     15  C   UNL     1      -5.309   2.501  -7.103  0.00  0.00    +0.000 A 
ATOM     16  C   UNL     1      -4.845   1.679  -8.126  0.00  0.00    +0.000 A 
ENDBRANCH  10  11
ENDBRANCH   1  10
TORSDOF 2
ENDMDL
MODEL 8
REMARK VINA RESULT:    -4.367      9.536     11.162
REMARK INTER + INTRA:          -4.982
REMARK INTER:                  -4.836
REMARK INTRA:                  -0.146
REMARK UNBOUND:                -0.104
REMARK  Name = 1550473
REMARK  2 active torsions:
REMARK  status: ('A' for Active; 'I' for Inactive)
REMARK    1  A    between atoms: N_1  and  C_4
REMARK    2  A    between atoms: C_4  and  C_5
REMARK                            x       y       z     vdW  Elec       q    Type
REMARK                         _______ _______ _______ _____ _____    ______ ____
ROOT
ATOM      1  N   UNL     1      -0.143  -6.751  14.660  0.00  0.00    -0.354 N 
ATOM      2  N   UNL     1      -1.765  -5.606  15.853  0.00  0.00    -0.372 N 
ATOM      3  N   UNL     1      -2.165  -6.124  13.654  0.00  0.00    -0.372 N 
ATOM      4  C   UNL     1      -1.348  -6.168  14.712  0.00  0.00    +0.166 C 
ATOM      5  H   UNL     1       0.441  -6.724  15.488  0.00  0.00    +0.163 HD
ATOM      6  H   UNL     1      -2.670  -5.162  15.924  0.00  0.00    +0.159 HD
ATOM      7  H   UNL     1      -1.198  -5.621  16.693  0.00  0.00    +0.159 HD
ATOM      8  H   UNL     1      -1.908  -6.524  12.762  0.00  0.00    +0.159 HD
ATOM      9  H   UNL     1      -3.071  -5.674  13.702  0.00  0.00    +0.159 HD
ENDROOT
BRANCH   1  10
ATOM     10  C   UNL     1       0.382  -7.438  13.481  0.00  0.00    +0.151 C 
BRANCH  10  11
ATOM     11  C   UNL     1       1.712  -6.838  13.115  0.00  0.00    -0.028 A 
ATOM     12  C   UNL     1       2.412  -6.043  14.035  0.00  0.00    +0.005 A 
ATOM     13  C   UNL     1       2.279  -7.065  11.852  0.00  0.00    +0.005 A 
ATOM     14  C   UNL     1       3.661  -5.511  13.706  0.00  0.00    +0.000 A 
ATOM     15  C   UNL     1       3.526  -6.530  11.527  0.00  0.00    +0.000 A 
ATOM     16  C   UNL     1       4.217  -5.755  12.455  0.00  0.00    +0.000 A 
ENDBRANCH  10  11
ENDBRANCH   1  10
TORSDOF 2
ENDMDL
MODEL 9
REMARK VINA RESULT:    -4.255     26.882     27.876
REMARK INTER + INTRA:          -4.856
REMARK INTER:                  -4.714
REMARK INTRA:                  -0.142
REMARK UNBOUND:                -0.104
REMARK  Name = 1550473
REMARK  2 active torsions:
REMARK  status: ('A' for Active; 'I' for Inactive)
REMARK    1  A    between atoms: N_1  and  C_4
REMARK    2  A    between atoms: C_4  and  C_5
REMARK                            x       y       z     vdW  Elec       q    Type
REMARK                         _______ _______ _______ _____ _____    ______ ____
ROOT
ATOM      1  N   UNL     1       4.089  -1.808 -12.444  0.00  0.00    -0.354 N 
ATOM      2  N   UNL     1       5.292  -0.875 -14.189  0.00  0.00    -0.372 N 
ATOM      3  N   UNL     1       6.091  -2.776 -13.183  0.00  0.00    -0.372 N 
ATOM      4  C   UNL     1       5.151  -1.828 -13.260  0.00  0.00    +0.166 C 
ATOM      5  H   UNL     1       3.428  -1.045 -12.533  0.00  0.00    +0.163 HD
ATOM      6  H   UNL     1       6.081  -0.866 -14.821  0.00  0.00    +0.159 HD
ATOM      7  H   UNL     1       4.606  -0.139 -14.306  0.00  0.00    +0.159 HD
ATOM      8  H   UNL     1       6.046  -3.520 -12.499  0.00  0.00    +0.159 HD
ATOM      9  H   UNL     1       6.894  -2.778 -13.799  0.00  0.00    +0.159 HD
ENDROOT
BRANCH   1  10
ATOM     10  C   UNL     1       3.814  -2.828 -11.434  0.00  0.00    +0.151 C 
BRANCH  10  11
ATOM     11  C   UNL     1       2.483  -3.463 -11.726  0.00  0.00    -0.028 A 
ATOM     12  C   UNL     1       2.222  -4.023 -12.986  0.00  0.00    +0.005 A 
ATOM     13  C   UNL     1       1.479  -3.513 -10.747  0.00  0.00    +0.005 A 
ATOM     14  C   UNL     1       0.996  -4.639 -13.248  0.00  0.00    +0.000 A 
ATOM     15  C   UNL     1       0.256  -4.128 -11.013  0.00  0.00    +0.000 A 
ATOM     16  C   UNL     1       0.016  -4.694 -12.263  0.00  0.00    +0.000 A 
ENDBRANCH  10  11
ENDBRANCH   1  10
TORSDOF 2
ENDMDL
