MODEL 1
REMARK VINA RESULT:    -5.812      0.000      0.000
REMARK INTER + INTRA:          -6.654
REMARK INTER:                  -6.491
REMARK INTRA:                  -0.163
REMARK UNBOUND:                -0.163
REMARK  Name = 1550473
REMARK  2 active torsions:
REMARK  status: ('A' for Active; 'I' for Inactive)
REMARK    1  A    between atoms: N_1  and  C_4
REMARK    2  A    between atoms: C_4  and  C_5
REMARK                            x       y       z     vdW  Elec       q    Type
REMARK                         _______ _______ _______ _____ _____    ______ ____
ROOT
ATOM      1  N   UNL     1       3.131 -10.458  -3.782  0.00  0.00    -0.354 N 
ATOM      2  N   UNL     1       2.064 -10.283  -1.734  0.00  0.00    -0.372 N 
ATOM      3  N   UNL     1       0.893 -11.107  -3.527  0.00  0.00    -0.372 N 
ATOM      4  C   UNL     1       2.034 -10.618  -3.029  0.00  0.00    +0.166 C 
ATOM      5  H   UNL     1       3.955 -10.054  -3.352  0.00  0.00    +0.163 HD
ATOM      6  H   UNL     1       1.253 -10.396  -1.140  0.00  0.00    +0.159 HD
ATOM      7  H   UNL     1       2.903  -9.923  -1.296  0.00  0.00    +0.159 HD
ATOM      8  H   UNL     1       0.804 -11.372  -4.499  0.00  0.00    +0.159 HD
ATOM      9  H   UNL     1       0.068 -11.216  -2.952  0.00  0.00    +0.159 HD
ENDROOT
BRANCH   1  10
ATOM     10  C   UNL     1       3.220 -10.841  -5.190  0.00  0.00    +0.151 C 
BRANCH  10  11
ATOM     11  C   UNL     1       3.167  -9.603  -6.041  0.00  0.00    -0.028 A 
ATOM     12  C   UNL     1       3.786  -8.419  -5.614  0.00  0.00    +0.005 A 
ATOM     13  C   UNL     1       2.503  -9.608  -7.277  0.00  0.00    +0.005 A 
ATOM     14  C   UNL     1       3.762  -7.276  -6.418  0.00  0.00    +0.000 A 
ATOM     15  C   UNL     1       2.482  -8.465  -8.076  0.00  0.00    +0.000 A 
ATOM     16  C   UNL     1       3.113  -7.300  -7.647  0.00  0.00    +0.000 A 
ENDBRANCH  10  11
ENDBRANCH   1  10
TORSDOF 2
ENDMDL
MODEL 2
REMARK VINA RESULT:    -5.529      4.766      8.094
REMARK INTER + INTRA:          -6.338
REMARK INTER:                  -6.237
REMARK INTRA:                  -0.101
REMARK UNBOUND:                -0.163
REMARK  Name = 1550473
REMARK  2 active torsions:
REMARK  status: ('A' for Active; 'I' for Inactive)
REMARK    1  A    between atoms: N_1  and  C_4
REMARK    2  A    between atoms: C_4  and  C_5
REMARK                            x       y       z     vdW  Elec       q    Type
REMARK                         _______ _______ _______ _____ _____    ______ ____
ROOT
ATOM      1  N   UNL     1       0.112 -10.816  -1.522  0.00  0.00    -0.354 N 
ATOM      2  N   UNL     1       0.911 -10.703  -3.693  0.00  0.00    -0.372 N 
ATOM      3  N   UNL     1       2.364 -10.333  -1.956  0.00  0.00    -0.372 N 
ATOM      4  C   UNL     1       1.126 -10.617  -2.375  0.00  0.00    +0.166 C 
ATOM      5  H   UNL     1      -0.809 -10.998  -1.903  0.00  0.00    +0.163 HD
ATOM      6  H   UNL     1       1.657 -10.562  -4.360  0.00  0.00    +0.159 HD
ATOM      7  H   UNL     1      -0.001 -10.931  -4.070  0.00  0.00    +0.159 HD
ATOM      8  H   UNL     1       2.591 -10.248  -0.974  0.00  0.00    +0.159 HD
ATOM      9  H   UNL     1       3.121 -10.176  -2.609  0.00  0.00    +0.159 HD
ENDROOT
BRANCH   1  10
ATOM     10  C   UNL     1       0.252 -10.798  -0.067  0.00  0.00    +0.151 C 
BRANCH  10  11
ATOM     11  C   UNL     1      -1.009 -11.333   0.555  0.00  0.00    -0.028 A 
ATOM     12  C   UNL     1      -1.385 -12.670   0.362  0.00  0.00    +0.005 A 
ATOM     13  C   UNL     1      -1.828 -10.509   1.342  0.00  0.00    +0.005 A 
ATOM     14  C   UNL     1      -2.540 -13.175   0.964  0.00  0.00    +0.000 A 
ATOM     15  C   UNL     1      -2.981 -11.017   1.940  0.00  0.00    +0.000 A 
ATOM     16  C   UNL     1      -3.335 -12.351   1.753  0.00  0.00    +0.000 A 
ENDBRANCH  10  11
ENDBRANCH   1  10
TORSDOF 2
ENDMDL
MODEL 3
REMARK VINA RESULT:    -5.288     21.252     22.249
REMARK INTER + INTRA:          -6.069
REMARK INTER:                  -5.933
REMARK INTRA:                  -0.136
REMARK UNBOUND:                -0.163
REMARK  Name = 1550473
REMARK  2 active torsions:
REMARK  status: ('A' for Active; 'I' for Inactive)
REMARK    1  A    between atoms: N_1  and  C_4
REMARK    2  A    between atoms: C_4  and  C_5
REMARK                            x       y       z     vdW  Elec       q    Type
REMARK                         _______ _______ _______ _____ _____    ______ ____
ROOT
ATOM      1  N   UNL     1       2.514  10.402 -15.091  0.00  0.00    -0.354 N 
ATOM      2  N   UNL     1       3.703  12.384 -14.944  0.00  0.00    -0.372 N 
ATOM      3  N   UNL     1       2.748  11.810 -16.950  0.00  0.00    -0.372 N 
ATOM      4  C   UNL     1       2.980  11.519 -15.665  0.00  0.00    +0.166 C 
ATOM      5  H   UNL     1       2.750  10.225 -14.121  0.00  0.00    +0.163 HD
ATOM      6  H   UNL     1       4.065  13.237 -15.349  0.00  0.00    +0.159 HD
ATOM      7  H   UNL     1       3.899  12.227 -13.963  0.00  0.00    +0.159 HD
ATOM      8  H   UNL     1       2.214  11.195 -17.550  0.00  0.00    +0.159 HD
ATOM      9  H   UNL     1       3.112  12.653 -17.376  0.00  0.00    +0.159 HD
ENDROOT
BRANCH   1  10
ATOM     10  C   UNL     1       1.671   9.422 -15.773  0.00  0.00    +0.151 C 
BRANCH  10  11
ATOM     11  C   UNL     1       0.377   9.278 -15.021  0.00  0.00    -0.028 A 
ATOM     12  C   UNL     1       0.124  10.057 -13.883  0.00  0.00    +0.005 A 
ATOM     13  C   UNL     1      -0.603   8.367 -15.445  0.00  0.00    +0.005 A 
ATOM     14  C   UNL     1      -1.090   9.946 -13.201  0.00  0.00    +0.000 A 
ATOM     15  C   UNL     1      -1.814   8.258 -14.761  0.00  0.00    +0.000 A 
ATOM     16  C   UNL     1      -2.058   9.049 -13.641  0.00  0.00    +0.000 A 
ENDBRANCH  10  11
ENDBRANCH   1  10
TORSDOF 2
ENDMDL
MODEL 4
REMARK VINA RESULT:    -5.252     20.508     22.090
REMARK INTER + INTRA:          -6.028
REMARK INTER:                  -5.906
REMARK INTRA:                  -0.122
REMARK UNBOUND:                -0.163
REMARK  Name = 1550473
REMARK  2 active torsions:
REMARK  status: ('A' for Active; 'I' for Inactive)
REMARK    1  A    between atoms: N_1  and  C_4
REMARK    2  A    between atoms: C_4  and  C_5
REMARK                            x       y       z     vdW  Elec       q    Type
REMARK                         _______ _______ _______ _____ _____    ______ ____
ROOT
ATOM      1  N   UNL     1      -0.487   9.279 -14.260  0.00  0.00    -0.354 N 
ATOM      2  N   UNL     1      -2.664   8.680 -13.744  0.00  0.00    -0.372 N 
ATOM      3  N   UNL     1      -1.293   7.131 -14.737  0.00  0.00    -0.372 N 
ATOM      4  C   UNL     1      -1.466   8.365 -14.252  0.00  0.00    +0.166 C 
ATOM      5  H   UNL     1      -0.691  10.206 -13.905  0.00  0.00    +0.163 HD
ATOM      6  H   UNL     1      -3.421   8.010 -13.722  0.00  0.00    +0.159 HD
ATOM      7  H   UNL     1      -2.851   9.593 -13.348  0.00  0.00    +0.159 HD
ATOM      8  H   UNL     1      -0.415   6.832 -15.140  0.00  0.00    +0.159 HD
ATOM      9  H   UNL     1      -2.042   6.450 -14.734  0.00  0.00    +0.159 HD
ENDROOT
BRANCH   1  10
ATOM     10  C   UNL     1       0.869   9.020 -14.741  0.00  0.00    +0.151 C 
BRANCH  10  11
ATOM     11  C   UNL     1       1.455  10.299 -15.271  0.00  0.00    -0.028 A 
ATOM     12  C   UNL     1       2.770  10.666 -14.953  0.00  0.00    +0.005 A 
ATOM     13  C   UNL     1       0.701  11.147 -16.098  0.00  0.00    +0.005 A 
ATOM     14  C   UNL     1       3.325  11.840 -15.470  0.00  0.00    +0.000 A 
ATOM     15  C   UNL     1       1.258  12.318 -16.611  0.00  0.00    +0.000 A 
ATOM     16  C   UNL     1       2.570  12.663 -16.299  0.00  0.00    +0.000 A 
ENDBRANCH  10  11
ENDBRANCH   1  10
TORSDOF 2
ENDMDL
MODEL 5
REMARK VINA RESULT:    -5.144     22.878     24.415
REMARK INTER + INTRA:          -5.908
REMARK INTER:                  -5.782
REMARK INTRA:                  -0.126
REMARK UNBOUND:                -0.163
REMARK  Name = 1550473
REMARK  2 active torsions:
REMARK  status: ('A' for Active; 'I' for Inactive)
REMARK    1  A    between atoms: N_1  and  C_4
REMARK    2  A    between atoms: C_4  and  C_5
REMARK                            x       y       z     vdW  Elec       q    Type
REMARK                         _______ _______ _______ _____ _____    ______ ____
ROOT
ATOM      1  N   UNL     1     -17.133  -5.918   6.078  0.00  0.00    -0.354 N 
ATOM      2  N   UNL     1     -15.249  -7.178   5.602  0.00  0.00    -0.372 N 
ATOM      3  N   UNL     1     -17.236  -8.258   5.990  0.00  0.00    -0.372 N 
ATOM      4  C   UNL     1     -16.553  -7.112   5.894  0.00  0.00    +0.166 C 
ATOM      5  H   UNL     1     -16.555  -5.088   6.021  0.00  0.00    +0.163 HD
ATOM      6  H   UNL     1     -14.784  -8.064   5.455  0.00  0.00    +0.159 HD
ATOM      7  H   UNL     1     -14.683  -6.344   5.501  0.00  0.00    +0.159 HD
ATOM      8  H   UNL     1     -18.222  -8.277   6.213  0.00  0.00    +0.159 HD
ATOM      9  H   UNL     1     -16.786  -9.155   5.857  0.00  0.00    +0.159 HD
ENDROOT
BRANCH   1  10
ATOM     10  C   UNL     1     -18.558  -5.734   6.346  0.00  0.00    +0.151 C 
BRANCH  10  11
ATOM     11  C   UNL     1     -18.940  -4.316   6.024  0.00  0.00    -0.028 A 
ATOM     12  C   UNL     1     -20.266  -3.884   6.170  0.00  0.00    +0.005 A 
ATOM     13  C   UNL     1     -17.978  -3.396   5.578  0.00  0.00    +0.005 A 
ATOM     14  C   UNL     1     -20.615  -2.559   5.900  0.00  0.00    +0.000 A 
ATOM     15  C   UNL     1     -18.331  -2.074   5.308  0.00  0.00    +0.000 A 
ATOM     16  C   UNL     1     -19.649  -1.655   5.472  0.00  0.00    +0.000 A 
ENDBRANCH  10  11
ENDBRANCH   1  10
TORSDOF 2
ENDMDL
MODEL 6
REMARK VINA RESULT:    -4.903     22.619     23.870
REMARK INTER + INTRA:          -5.639
REMARK INTER:                  -5.499
REMARK INTRA:                  -0.140
REMARK UNBOUND:                -0.163
REMARK  Name = 1550473
REMARK  2 active torsions:
REMARK  status: ('A' for Active; 'I' for Inactive)
REMARK    1  A    between atoms: N_1  and  C_4
REMARK    2  A    between atoms: C_4  and  C_5
REMARK                            x       y       z     vdW  Elec       q    Type
REMARK                         _______ _______ _______ _____ _____    ______ ____
ROOT
ATOM      1  N   UNL     1       1.327   4.656  13.203  0.00  0.00    -0.354 N 
ATOM      2  N   UNL     1      -0.331   4.609  11.587  0.00  0.00    -0.372 N 
ATOM      3  N   UNL     1      -0.939   4.738  13.795  0.00  0.00    -0.372 N 
ATOM      4  C   UNL     1       0.028   4.668  12.875  0.00  0.00    +0.166 C 
ATOM      5  H   UNL     1       2.010   4.571  12.460  0.00  0.00    +0.163 HD
ATOM      6  H   UNL     1      -1.303   4.620  11.308  0.00  0.00    +0.159 HD
ATOM      7  H   UNL     1       0.355   4.571  10.843  0.00  0.00    +0.159 HD
ATOM      8  H   UNL     1      -0.735   4.778  14.785  0.00  0.00    +0.159 HD
ATOM      9  H   UNL     1      -1.918   4.738  13.537  0.00  0.00    +0.159 HD
ENDROOT
BRANCH   1  10
ATOM     10  C   UNL     1       1.824   4.770  14.573  0.00  0.00    +0.151 C 
BRANCH  10  11
ATOM     11  C   UNL     1       2.892   3.734  14.795  0.00  0.00    -0.028 A 
ATOM     12  C   UNL     1       2.895   2.544  14.053  0.00  0.00    +0.005 A 
ATOM     13  C   UNL     1       3.907   3.940  15.742  0.00  0.00    +0.005 A 
ATOM     14  C   UNL     1       3.904   1.596  14.237  0.00  0.00    +0.000 A 
ATOM     15  C   UNL     1       4.912   2.990  15.924  0.00  0.00    +0.000 A 
ATOM     16  C   UNL     1       4.912   1.819  15.170  0.00  0.00    +0.000 A 
ENDBRANCH  10  11
ENDBRANCH   1  10
TORSDOF 2
ENDMDL
MODEL 7
REMARK VINA RESULT:    -4.808     29.153     30.391
REMARK INTER + INTRA:          -5.533
REMARK INTER:                  -5.406
REMARK INTRA:                  -0.127
REMARK UNBOUND:                -0.163
REMARK  Name = 1550473
REMARK  2 active torsions:
REMARK  status: ('A' for Active; 'I' for Inactive)
REMARK    1  A    between atoms: N_1  and  C_4
REMARK    2  A    between atoms: C_4  and  C_5
REMARK                            x       y       z     vdW  Elec       q    Type
REMARK                         _______ _______ _______ _____ _____    ______ ____
ROOT
ATOM      1  N   UNL     1       9.825  14.715  13.513  0.00  0.00    -0.354 N 
ATOM      2  N   UNL     1       9.545  15.557  15.653  0.00  0.00    -0.372 N 
ATOM      3  N   UNL     1       9.280  13.305  15.303  0.00  0.00    -0.372 N 
ATOM      4  C   UNL     1       9.551  14.517  14.809  0.00  0.00    +0.166 C 
ATOM      5  H   UNL     1       9.992  15.663  13.196  0.00  0.00    +0.163 HD
ATOM      6  H   UNL     1       9.345  15.438  16.637  0.00  0.00    +0.159 HD
ATOM      7  H   UNL     1       9.758  16.497  15.341  0.00  0.00    +0.159 HD
ATOM      8  H   UNL     1       9.262  12.480  14.718  0.00  0.00    +0.159 HD
ATOM      9  H   UNL     1       9.066  13.167  16.283  0.00  0.00    +0.159 HD
ENDROOT
BRANCH   1  10
ATOM     10  C   UNL     1       9.909  13.644  12.522  0.00  0.00    +0.151 C 
BRANCH  10  11
ATOM     11  C   UNL     1       9.695  14.224  11.151  0.00  0.00    -0.028 A 
ATOM     12  C   UNL     1       9.632  13.389  10.026  0.00  0.00    +0.005 A 
ATOM     13  C   UNL     1       9.550  15.609  10.972  0.00  0.00    +0.005 A 
ATOM     14  C   UNL     1       9.403  13.925   8.757  0.00  0.00    +0.000 A 
ATOM     15  C   UNL     1       9.323  16.140   9.702  0.00  0.00    +0.000 A 
ATOM     16  C   UNL     1       9.247  15.298   8.595  0.00  0.00    +0.000 A 
ENDBRANCH  10  11
ENDBRANCH   1  10
TORSDOF 2
ENDMDL
MODEL 8
REMARK VINA RESULT:    -4.553      5.263      6.353
REMARK INTER + INTRA:          -5.249
REMARK INTER:                  -5.112
REMARK INTRA:                  -0.136
REMARK UNBOUND:                -0.163
REMARK  Name = 1550473
REMARK  2 active torsions:
REMARK  status: ('A' for Active; 'I' for Inactive)
REMARK    1  A    between atoms: N_1  and  C_4
REMARK    2  A    between atoms: C_4  and  C_5
REMARK                            x       y       z     vdW  Elec       q    Type
REMARK                         _______ _______ _______ _____ _____    ______ ____
ROOT
ATOM      1  N   UNL     1       5.914  -6.708  -8.717  0.00  0.00    -0.354 N 
ATOM      2  N   UNL     1       7.308  -4.925  -9.208  0.00  0.00    -0.372 N 
ATOM      3  N   UNL     1       7.938  -7.036  -9.852  0.00  0.00    -0.372 N 
ATOM      4  C   UNL     1       7.046  -6.237  -9.257  0.00  0.00    +0.166 C 
ATOM      5  H   UNL     1       5.293  -6.054  -8.254  0.00  0.00    +0.163 HD
ATOM      6  H   UNL     1       8.153  -4.540  -9.610  0.00  0.00    +0.159 HD
ATOM      7  H   UNL     1       6.664  -4.268  -8.785  0.00  0.00    +0.159 HD
ATOM      8  H   UNL     1       7.801  -8.036  -9.917  0.00  0.00    +0.159 HD
ATOM      9  H   UNL     1       8.794  -6.671 -10.250  0.00  0.00    +0.159 HD
ENDROOT
BRANCH   1  10
ATOM     10  C   UNL     1       5.507  -8.111  -8.764  0.00  0.00    +0.151 C 
BRANCH  10  11
ATOM     11  C   UNL     1       4.051  -8.190  -9.131  0.00  0.00    -0.028 A 
ATOM     12  C   UNL     1       3.482  -9.408  -9.529  0.00  0.00    +0.005 A 
ATOM     13  C   UNL     1       3.234  -7.050  -9.077  0.00  0.00    +0.005 A 
ATOM     14  C   UNL     1       2.122  -9.487  -9.841  0.00  0.00    +0.000 A 
ATOM     15  C   UNL     1       1.878  -7.133  -9.391  0.00  0.00    +0.000 A 
ATOM     16  C   UNL     1       1.321  -8.352  -9.770  0.00  0.00    +0.000 A 
ENDBRANCH  10  11
ENDBRANCH   1  10
TORSDOF 2
ENDMDL
MODEL 9
REMARK VINA RESULT:    -4.550     31.416     32.450
REMARK INTER + INTRA:          -5.245
REMARK INTER:                  -5.105
REMARK INTRA:                  -0.140
REMARK UNBOUND:                -0.163
REMARK  Name = 1550473
REMARK  2 active torsions:
REMARK  status: ('A' for Active; 'I' for Inactive)
REMARK    1  A    between atoms: N_1  and  C_4
REMARK    2  A    between atoms: C_4  and  C_5
REMARK                            x       y       z     vdW  Elec       q    Type
REMARK                         _______ _______ _______ _____ _____    ______ ____
ROOT
ATOM      1  N   UNL     1       3.118  21.244   4.898  0.00  0.00    -0.354 N 
ATOM      2  N   UNL     1       2.338  21.781   7.012  0.00  0.00    -0.372 N 
ATOM      3  N   UNL     1       3.460  19.802   6.713  0.00  0.00    -0.372 N 
ATOM      4  C   UNL     1       2.978  20.936   6.194  0.00  0.00    +0.166 C 
ATOM      5  H   UNL     1       2.703  22.106   4.560  0.00  0.00    +0.163 HD
ATOM      6  H   UNL     1       2.220  21.577   7.995  0.00  0.00    +0.159 HD
ATOM      7  H   UNL     1       1.964  22.662   6.681  0.00  0.00    +0.159 HD
ATOM      8  H   UNL     1       3.948  19.120   6.147  0.00  0.00    +0.159 HD
ATOM      9  H   UNL     1       3.342  19.574   7.692  0.00  0.00    +0.159 HD
ENDROOT
BRANCH   1  10
ATOM     10  C   UNL     1       3.844  20.419   3.935  0.00  0.00    +0.151 C 
BRANCH  10  11
ATOM     11  C   UNL     1       4.836  21.279   3.201  0.00  0.00    -0.028 A 
ATOM     12  C   UNL     1       5.012  21.139   1.816  0.00  0.00    +0.005 A 
ATOM     13  C   UNL     1       5.598  22.239   3.883  0.00  0.00    +0.005 A 
ATOM     14  C   UNL     1       5.911  21.958   1.129  0.00  0.00    +0.000 A 
ATOM     15  C   UNL     1       6.496  23.055   3.193  0.00  0.00    +0.000 A 
ATOM     16  C   UNL     1       6.650  22.915   1.816  0.00  0.00    +0.000 A 
ENDBRANCH  10  11
ENDBRANCH   1  10
TORSDOF 2
ENDMDL
