MODEL 1
REMARK VINA RESULT:    -5.493      0.000      0.000
REMARK INTER + INTRA:          -6.319
REMARK INTER:                  -6.136
REMARK INTRA:                  -0.183
REMARK UNBOUND:                -0.183
REMARK  Name = 1550473
REMARK  2 active torsions:
REMARK  status: ('A' for Active; 'I' for Inactive)
REMARK    1  A    between atoms: N_1  and  C_4
REMARK    2  A    between atoms: C_4  and  C_5
REMARK                            x       y       z     vdW  Elec       q    Type
REMARK                         _______ _______ _______ _____ _____    ______ ____
ROOT
ATOM      1  N   UNL     1       7.687 -20.054   2.163  0.00  0.00    -0.354 N 
ATOM      2  N   UNL     1       8.948 -19.668   0.259  0.00  0.00    -0.372 N 
ATOM      3  N   UNL     1       6.687 -19.288   0.187  0.00  0.00    -0.372 N 
ATOM      4  C   UNL     1       7.763 -19.672   0.881  0.00  0.00    +0.166 C 
ATOM      5  H   UNL     1       8.535 -20.363   2.624  0.00  0.00    +0.163 HD
ATOM      6  H   UNL     1       9.037 -19.381  -0.707  0.00  0.00    +0.159 HD
ATOM      7  H   UNL     1       9.801 -19.933   0.736  0.00  0.00    +0.159 HD
ATOM      8  H   UNL     1       5.762 -19.274   0.597  0.00  0.00    +0.159 HD
ATOM      9  H   UNL     1       6.754 -19.008  -0.784  0.00  0.00    +0.159 HD
ENDROOT
BRANCH   1  10
ATOM     10  C   UNL     1       6.454 -20.044   2.947  0.00  0.00    +0.151 C 
BRANCH  10  11
ATOM     11  C   UNL     1       6.415 -18.796   3.784  0.00  0.00    -0.028 A 
ATOM     12  C   UNL     1       5.572 -17.730   3.435  0.00  0.00    +0.005 A 
ATOM     13  C   UNL     1       7.214 -18.674   4.932  0.00  0.00    +0.005 A 
ATOM     14  C   UNL     1       5.513 -16.582   4.230  0.00  0.00    +0.000 A 
ATOM     15  C   UNL     1       7.153 -17.526   5.721  0.00  0.00    +0.000 A 
ATOM     16  C   UNL     1       6.301 -16.482   5.371  0.00  0.00    +0.000 A 
ENDBRANCH  10  11
ENDBRANCH   1  10
TORSDOF 2
ENDMDL
MODEL 2
REMARK VINA RESULT:    -5.410     12.956     14.040
REMARK INTER + INTRA:          -6.226
REMARK INTER:                  -6.085
REMARK INTRA:                  -0.140
REMARK UNBOUND:                -0.183
REMARK  Name = 1550473
REMARK  2 active torsions:
REMARK  status: ('A' for Active; 'I' for Inactive)
REMARK    1  A    between atoms: N_1  and  C_4
REMARK    2  A    between atoms: C_4  and  C_5
REMARK                            x       y       z     vdW  Elec       q    Type
REMARK                         _______ _______ _______ _____ _____    ______ ____
ROOT
ATOM      1  N   UNL     1       2.125  -6.927  -1.407  0.00  0.00    -0.354 N 
ATOM      2  N   UNL     1       0.402  -6.759  -2.946  0.00  0.00    -0.372 N 
ATOM      3  N   UNL     1      -0.045  -7.633  -0.872  0.00  0.00    -0.372 N 
ATOM      4  C   UNL     1       0.837  -7.109  -1.729  0.00  0.00    +0.166 C 
ATOM      5  H   UNL     1       2.750  -6.553  -2.112  0.00  0.00    +0.163 HD
ATOM      6  H   UNL     1      -0.564  -6.881  -3.216  0.00  0.00    +0.159 HD
ATOM      7  H   UNL     1       1.019  -6.343  -3.633  0.00  0.00    +0.159 HD
ATOM      8  H   UNL     1       0.222  -7.923   0.060  0.00  0.00    +0.159 HD
ATOM      9  H   UNL     1      -1.014  -7.773  -1.128  0.00  0.00    +0.159 HD
ENDROOT
BRANCH   1  10
ATOM     10  C   UNL     1       2.688  -7.224  -0.091  0.00  0.00    +0.151 C 
BRANCH  10  11
ATOM     11  C   UNL     1       3.127  -5.940   0.557  0.00  0.00    -0.028 A 
ATOM     12  C   UNL     1       3.173  -4.749  -0.182  0.00  0.00    +0.005 A 
ATOM     13  C   UNL     1       3.491  -5.907   1.912  0.00  0.00    +0.005 A 
ATOM     14  C   UNL     1       3.551  -3.550   0.427  0.00  0.00    +0.000 A 
ATOM     15  C   UNL     1       3.869  -4.708   2.516  0.00  0.00    +0.000 A 
ATOM     16  C   UNL     1       3.897  -3.530   1.775  0.00  0.00    +0.000 A 
ENDBRANCH  10  11
ENDBRANCH   1  10
TORSDOF 2
ENDMDL
MODEL 3
REMARK VINA RESULT:    -5.317      4.623      6.099
REMARK INTER + INTRA:          -6.122
REMARK INTER:                  -5.988
REMARK INTRA:                  -0.134
REMARK UNBOUND:                -0.183
REMARK  Name = 1550473
REMARK  2 active torsions:
REMARK  status: ('A' for Active; 'I' for Inactive)
REMARK    1  A    between atoms: N_1  and  C_4
REMARK    2  A    between atoms: C_4  and  C_5
REMARK                            x       y       z     vdW  Elec       q    Type
REMARK                         _______ _______ _______ _____ _____    ______ ____
ROOT
ATOM      1  N   UNL     1       4.953 -15.726   3.680  0.00  0.00    -0.354 N 
ATOM      2  N   UNL     1       5.474 -17.203   5.386  0.00  0.00    -0.372 N 
ATOM      3  N   UNL     1       3.497 -17.471   4.253  0.00  0.00    -0.372 N 
ATOM      4  C   UNL     1       4.635 -16.791   4.428  0.00  0.00    +0.166 C 
ATOM      5  H   UNL     1       5.816 -15.236   3.883  0.00  0.00    +0.163 HD
ATOM      6  H   UNL     1       5.264 -18.006   5.963  0.00  0.00    +0.159 HD
ATOM      7  H   UNL     1       6.358 -16.739   5.556  0.00  0.00    +0.159 HD
ATOM      8  H   UNL     1       2.819 -17.207   3.551  0.00  0.00    +0.159 HD
ATOM      9  H   UNL     1       3.263 -18.270   4.829  0.00  0.00    +0.159 HD
ENDROOT
BRANCH   1  10
ATOM     10  C   UNL     1       4.134 -15.228   2.576  0.00  0.00    +0.151 C 
BRANCH  10  11
ATOM     11  C   UNL     1       4.106 -13.725   2.624  0.00  0.00    -0.028 A 
ATOM     12  C   UNL     1       5.048 -13.020   3.387  0.00  0.00    +0.005 A 
ATOM     13  C   UNL     1       3.145 -13.001   1.903  0.00  0.00    +0.005 A 
ATOM     14  C   UNL     1       5.042 -11.623   3.407  0.00  0.00    +0.000 A 
ATOM     15  C   UNL     1       3.141 -11.606   1.926  0.00  0.00    +0.000 A 
ATOM     16  C   UNL     1       4.091 -10.918   2.676  0.00  0.00    +0.000 A 
ENDBRANCH  10  11
ENDBRANCH   1  10
TORSDOF 2
ENDMDL
MODEL 4
REMARK VINA RESULT:    -5.040      2.601      4.509
REMARK INTER + INTRA:          -5.812
REMARK INTER:                  -5.644
REMARK INTRA:                  -0.169
REMARK UNBOUND:                -0.183
REMARK  Name = 1550473
REMARK  2 active torsions:
REMARK  status: ('A' for Active; 'I' for Inactive)
REMARK    1  A    between atoms: N_1  and  C_4
REMARK    2  A    between atoms: C_4  and  C_5
REMARK                            x       y       z     vdW  Elec       q    Type
REMARK                         _______ _______ _______ _____ _____    ______ ____
ROOT
ATOM      1  N   UNL     1       7.138 -18.486   4.890  0.00  0.00    -0.354 N 
ATOM      2  N   UNL     1       7.351 -16.551   6.143  0.00  0.00    -0.372 N 
ATOM      3  N   UNL     1       5.281 -17.130   5.341  0.00  0.00    -0.372 N 
ATOM      4  C   UNL     1       6.586 -17.402   5.449  0.00  0.00    +0.166 C 
ATOM      5  H   UNL     1       8.139 -18.620   4.982  0.00  0.00    +0.163 HD
ATOM      6  H   UNL     1       6.962 -15.725   6.579  0.00  0.00    +0.159 HD
ATOM      7  H   UNL     1       8.343 -16.710   6.273  0.00  0.00    +0.159 HD
ATOM      8  H   UNL     1       4.651 -17.730   4.826  0.00  0.00    +0.159 HD
ATOM      9  H   UNL     1       4.875 -16.303   5.761  0.00  0.00    +0.159 HD
ENDROOT
BRANCH   1  10
ATOM     10  C   UNL     1       6.384 -19.503   4.159  0.00  0.00    +0.151 C 
BRANCH  10  11
ATOM     11  C   UNL     1       6.772 -19.454   2.707  0.00  0.00    -0.028 A 
ATOM     12  C   UNL     1       6.040 -18.672   1.801  0.00  0.00    +0.005 A 
ATOM     13  C   UNL     1       7.873 -20.182   2.232  0.00  0.00    +0.005 A 
ATOM     14  C   UNL     1       6.418 -18.603   0.458  0.00  0.00    +0.000 A 
ATOM     15  C   UNL     1       8.247 -20.110   0.890  0.00  0.00    +0.000 A 
ATOM     16  C   UNL     1       7.521 -19.319   0.004  0.00  0.00    +0.000 A 
ENDBRANCH  10  11
ENDBRANCH   1  10
TORSDOF 2
ENDMDL
MODEL 5
REMARK VINA RESULT:    -4.982      9.761     11.121
REMARK INTER + INTRA:          -5.748
REMARK INTER:                  -5.625
REMARK INTRA:                  -0.122
REMARK UNBOUND:                -0.183
REMARK  Name = 1550473
REMARK  2 active torsions:
REMARK  status: ('A' for Active; 'I' for Inactive)
REMARK    1  A    between atoms: N_1  and  C_4
REMARK    2  A    between atoms: C_4  and  C_5
REMARK                            x       y       z     vdW  Elec       q    Type
REMARK                         _______ _______ _______ _____ _____    ______ ____
ROOT
ATOM      1  N   UNL     1       3.940  -9.794   2.652  0.00  0.00    -0.354 N 
ATOM      2  N   UNL     1       4.649 -11.925   3.220  0.00  0.00    -0.372 N 
ATOM      3  N   UNL     1       3.043 -11.686   1.599  0.00  0.00    -0.372 N 
ATOM      4  C   UNL     1       3.871 -11.122   2.485  0.00  0.00    +0.166 C 
ATOM      5  H   UNL     1       4.566  -9.431   3.361  0.00  0.00    +0.163 HD
ATOM      6  H   UNL     1       4.621 -12.930   3.114  0.00  0.00    +0.159 HD
ATOM      7  H   UNL     1       5.307 -11.556   3.896  0.00  0.00    +0.159 HD
ATOM      8  H   UNL     1       2.425 -11.136   1.018  0.00  0.00    +0.159 HD
ATOM      9  H   UNL     1       2.992 -12.691   1.486  0.00  0.00    +0.159 HD
ENDROOT
BRANCH   1  10
ATOM     10  C   UNL     1       3.175  -8.830   1.864  0.00  0.00    +0.151 C 
BRANCH  10  11
ATOM     11  C   UNL     1       3.622  -7.439   2.220  0.00  0.00    -0.028 A 
ATOM     12  C   UNL     1       3.164  -6.334   1.488  0.00  0.00    +0.005 A 
ATOM     13  C   UNL     1       4.500  -7.219   3.293  0.00  0.00    +0.005 A 
ATOM     14  C   UNL     1       3.555  -5.040   1.838  0.00  0.00    +0.000 A 
ATOM     15  C   UNL     1       4.889  -5.925   3.638  0.00  0.00    +0.000 A 
ATOM     16  C   UNL     1       4.414  -4.835   2.912  0.00  0.00    +0.000 A 
ENDBRANCH  10  11
ENDBRANCH   1  10
TORSDOF 2
ENDMDL
MODEL 6
REMARK VINA RESULT:    -4.972     32.501     33.330
REMARK INTER + INTRA:          -5.736
REMARK INTER:                  -5.555
REMARK INTRA:                  -0.181
REMARK UNBOUND:                -0.183
REMARK  Name = 1550473
REMARK  2 active torsions:
REMARK  status: ('A' for Active; 'I' for Inactive)
REMARK    1  A    between atoms: N_1  and  C_4
REMARK    2  A    between atoms: C_4  and  C_5
REMARK                            x       y       z     vdW  Elec       q    Type
REMARK                         _______ _______ _______ _____ _____    ______ ____
ROOT
ATOM      1  N   UNL     1       4.222  14.899   6.726  0.00  0.00    -0.354 N 
ATOM      2  N   UNL     1       5.189  13.813   4.923  0.00  0.00    -0.372 N 
ATOM      3  N   UNL     1       6.537  14.544   6.630  0.00  0.00    -0.372 N 
ATOM      4  C   UNL     1       5.312  14.426   6.106  0.00  0.00    +0.166 C 
ATOM      5  H   UNL     1       3.326  14.804   6.262  0.00  0.00    +0.163 HD
ATOM      6  H   UNL     1       5.992  13.443   4.433  0.00  0.00    +0.159 HD
ATOM      7  H   UNL     1       4.286  13.679   4.484  0.00  0.00    +0.159 HD
ATOM      8  H   UNL     1       6.698  15.002   7.517  0.00  0.00    +0.159 HD
ATOM      9  H   UNL     1       7.355  14.191   6.149  0.00  0.00    +0.159 HD
ENDROOT
BRANCH   1  10
ATOM     10  C   UNL     1       4.241  15.535   8.042  0.00  0.00    +0.151 C 
BRANCH  10  11
ATOM     11  C   UNL     1       3.787  14.540   9.075  0.00  0.00    -0.028 A 
ATOM     12  C   UNL     1       4.724  13.814   9.824  0.00  0.00    +0.005 A 
ATOM     13  C   UNL     1       2.421  14.325   9.313  0.00  0.00    +0.005 A 
ATOM     14  C   UNL     1       4.303  12.912  10.805  0.00  0.00    +0.000 A 
ATOM     15  C   UNL     1       2.004  13.423  10.292  0.00  0.00    +0.000 A 
ATOM     16  C   UNL     1       2.946  12.719  11.039  0.00  0.00    +0.000 A 
ENDBRANCH  10  11
ENDBRANCH   1  10
TORSDOF 2
ENDMDL
MODEL 7
REMARK VINA RESULT:    -4.854      7.174      8.529
REMARK INTER + INTRA:          -5.604
REMARK INTER:                  -5.434
REMARK INTRA:                  -0.170
REMARK UNBOUND:                -0.183
REMARK  Name = 1550473
REMARK  2 active torsions:
REMARK  status: ('A' for Active; 'I' for Inactive)
REMARK    1  A    between atoms: N_1  and  C_4
REMARK    2  A    between atoms: C_4  and  C_5
REMARK                            x       y       z     vdW  Elec       q    Type
REMARK                         _______ _______ _______ _____ _____    ______ ____
ROOT
ATOM      1  N   UNL     1       5.156 -11.828   0.517  0.00  0.00    -0.354 N 
ATOM      2  N   UNL     1       5.765 -12.483  -1.619  0.00  0.00    -0.372 N 
ATOM      3  N   UNL     1       4.437 -13.875  -0.369  0.00  0.00    -0.372 N 
ATOM      4  C   UNL     1       5.114 -12.727  -0.476  0.00  0.00    +0.166 C 
ATOM      5  H   UNL     1       5.711 -10.991   0.385  0.00  0.00    +0.163 HD
ATOM      6  H   UNL     1       5.749 -13.141  -2.387  0.00  0.00    +0.159 HD
ATOM      7  H   UNL     1       6.282 -11.624  -1.766  0.00  0.00    +0.159 HD
ATOM      8  H   UNL     1       3.929 -14.122   0.470  0.00  0.00    +0.159 HD
ATOM      9  H   UNL     1       4.419 -14.551  -1.122  0.00  0.00    +0.159 HD
ENDROOT
BRANCH   1  10
ATOM     10  C   UNL     1       4.437 -11.973   1.782  0.00  0.00    +0.151 C 
BRANCH  10  11
ATOM     11  C   UNL     1       3.207 -11.109   1.750  0.00  0.00    -0.028 A 
ATOM     12  C   UNL     1       2.005 -11.600   1.219  0.00  0.00    +0.005 A 
ATOM     13  C   UNL     1       3.234  -9.799   2.254  0.00  0.00    +0.005 A 
ATOM     14  C   UNL     1       0.854 -10.809   1.216  0.00  0.00    +0.000 A 
ATOM     15  C   UNL     1       2.083  -9.012   2.248  0.00  0.00    +0.000 A 
ATOM     16  C   UNL     1       0.893  -9.518   1.732  0.00  0.00    +0.000 A 
ENDBRANCH  10  11
ENDBRANCH   1  10
TORSDOF 2
ENDMDL
MODEL 8
REMARK VINA RESULT:    -4.849      2.724      5.202
REMARK INTER + INTRA:          -5.599
REMARK INTER:                  -5.508
REMARK INTRA:                  -0.091
REMARK UNBOUND:                -0.183
REMARK  Name = 1550473
REMARK  2 active torsions:
REMARK  status: ('A' for Active; 'I' for Inactive)
REMARK    1  A    between atoms: N_1  and  C_4
REMARK    2  A    between atoms: C_4  and  C_5
REMARK                            x       y       z     vdW  Elec       q    Type
REMARK                         _______ _______ _______ _____ _____    ______ ____
ROOT
ATOM      1  N   UNL     1       5.912 -18.936   3.698  0.00  0.00    -0.354 N 
ATOM      2  N   UNL     1       5.181 -17.353   5.221  0.00  0.00    -0.372 N 
ATOM      3  N   UNL     1       7.316 -18.172   5.412  0.00  0.00    -0.372 N 
ATOM      4  C   UNL     1       6.144 -18.165   4.768  0.00  0.00    +0.166 C 
ATOM      5  H   UNL     1       4.993 -18.906   3.273  0.00  0.00    +0.163 HD
ATOM      6  H   UNL     1       5.328 -16.756   6.025  0.00  0.00    +0.159 HD
ATOM      7  H   UNL     1       4.279 -17.291   4.767  0.00  0.00    +0.159 HD
ATOM      8  H   UNL     1       8.081 -18.767   5.123  0.00  0.00    +0.159 HD
ATOM      9  H   UNL     1       7.478 -17.591   6.225  0.00  0.00    +0.159 HD
ENDROOT
BRANCH   1  10
ATOM     10  C   UNL     1       6.911 -19.816   3.092  0.00  0.00    +0.151 C 
BRANCH  10  11
ATOM     11  C   UNL     1       6.343 -20.411   1.833  0.00  0.00    -0.028 A 
ATOM     12  C   UNL     1       5.607 -21.604   1.879  0.00  0.00    +0.005 A 
ATOM     13  C   UNL     1       6.532 -19.783   0.592  0.00  0.00    +0.005 A 
ATOM     14  C   UNL     1       5.053 -22.141   0.714  0.00  0.00    +0.000 A 
ATOM     15  C   UNL     1       5.979 -20.323  -0.568  0.00  0.00    +0.000 A 
ATOM     16  C   UNL     1       5.237 -21.501  -0.507  0.00  0.00    +0.000 A 
ENDBRANCH  10  11
ENDBRANCH   1  10
TORSDOF 2
ENDMDL
MODEL 9
REMARK VINA RESULT:    -4.661      3.118      4.378
REMARK INTER + INTRA:          -5.390
REMARK INTER:                  -5.296
REMARK INTRA:                  -0.094
REMARK UNBOUND:                -0.183
REMARK  Name = 1550473
REMARK  2 active torsions:
REMARK  status: ('A' for Active; 'I' for Inactive)
REMARK    1  A    between atoms: N_1  and  C_4
REMARK    2  A    between atoms: C_4  and  C_5
REMARK                            x       y       z     vdW  Elec       q    Type
REMARK                         _______ _______ _______ _____ _____    ______ ____
ROOT
ATOM      1  N   UNL     1       3.818 -16.649   2.515  0.00  0.00    -0.354 N 
ATOM      2  N   UNL     1       1.720 -17.514   2.053  0.00  0.00    -0.372 N 
ATOM      3  N   UNL     1       2.222 -16.912   4.210  0.00  0.00    -0.372 N 
ATOM      4  C   UNL     1       2.600 -17.019   2.932  0.00  0.00    +0.166 C 
ATOM      5  H   UNL     1       4.054 -16.784   1.538  0.00  0.00    +0.163 HD
ATOM      6  H   UNL     1       0.792 -17.798   2.337  0.00  0.00    +0.159 HD
ATOM      7  H   UNL     1       1.943 -17.605   1.069  0.00  0.00    +0.159 HD
ATOM      8  H   UNL     1       2.841 -16.553   4.923  0.00  0.00    +0.159 HD
ATOM      9  H   UNL     1       1.301 -17.203   4.516  0.00  0.00    +0.159 HD
ENDROOT
BRANCH   1  10
ATOM     10  C   UNL     1       4.832 -16.050   3.381  0.00  0.00    +0.151 C 
BRANCH  10  11
ATOM     11  C   UNL     1       5.730 -17.134   3.910  0.00  0.00    -0.028 A 
ATOM     12  C   UNL     1       5.878 -18.340   3.210  0.00  0.00    +0.005 A 
ATOM     13  C   UNL     1       6.439 -16.958   5.108  0.00  0.00    +0.005 A 
ATOM     14  C   UNL     1       6.736 -19.335   3.686  0.00  0.00    +0.000 A 
ATOM     15  C   UNL     1       7.294 -17.955   5.580  0.00  0.00    +0.000 A 
ATOM     16  C   UNL     1       7.443 -19.142   4.867  0.00  0.00    +0.000 A 
ENDBRANCH  10  11
ENDBRANCH   1  10
TORSDOF 2
ENDMDL
