MODEL 1
REMARK VINA RESULT:    -6.256      0.000      0.000
REMARK INTER + INTRA:          -7.112
REMARK INTER:                  -6.988
REMARK INTRA:                  -0.124
REMARK UNBOUND:                -0.124
REMARK  Name = 1550473
REMARK  2 active torsions:
REMARK  status: ('A' for Active; 'I' for Inactive)
REMARK    1  A    between atoms: N_1  and  C_4
REMARK    2  A    between atoms: C_4  and  C_5
REMARK                            x       y       z     vdW  Elec       q    Type
REMARK                         _______ _______ _______ _____ _____    ______ ____
ROOT
ATOM      1  N   UNL     1       0.838   5.633   2.716  0.00  0.00    -0.354 N 
ATOM      2  N   UNL     1      -0.794   4.122   3.363  0.00  0.00    -0.372 N 
ATOM      3  N   UNL     1      -0.283   5.868   4.761  0.00  0.00    -0.372 N 
ATOM      4  C   UNL     1      -0.069   5.219   3.611  0.00  0.00    +0.166 C 
ATOM      5  H   UNL     1       0.974   5.080   1.878  0.00  0.00    +0.163 HD
ATOM      6  H   UNL     1      -1.488   3.788   4.018  0.00  0.00    +0.159 HD
ATOM      7  H   UNL     1      -0.688   3.597   2.503  0.00  0.00    +0.159 HD
ATOM      8  H   UNL     1       0.236   6.700   5.011  0.00  0.00    +0.159 HD
ATOM      9  H   UNL     1      -0.965   5.543   5.434  0.00  0.00    +0.159 HD
ENDROOT
BRANCH   1  10
ATOM     10  C   UNL     1       1.641   6.845   2.866  0.00  0.00    +0.151 C 
BRANCH  10  11
ATOM     11  C   UNL     1       3.054   6.459   3.208  0.00  0.00    -0.028 A 
ATOM     12  C   UNL     1       3.975   7.429   3.628  0.00  0.00    +0.005 A 
ATOM     13  C   UNL     1       3.476   5.124   3.118  0.00  0.00    +0.005 A 
ATOM     14  C   UNL     1       5.279   7.067   3.974  0.00  0.00    +0.000 A 
ATOM     15  C   UNL     1       4.779   4.766   3.463  0.00  0.00    +0.000 A 
ATOM     16  C   UNL     1       5.680   5.737   3.894  0.00  0.00    +0.000 A 
ENDBRANCH  10  11
ENDBRANCH   1  10
TORSDOF 2
ENDMDL
MODEL 2
REMARK VINA RESULT:    -6.047      1.713      2.242
REMARK INTER + INTRA:          -6.878
REMARK INTER:                  -6.743
REMARK INTRA:                  -0.135
REMARK UNBOUND:                -0.124
REMARK  Name = 1550473
REMARK  2 active torsions:
REMARK  status: ('A' for Active; 'I' for Inactive)
REMARK    1  A    between atoms: N_1  and  C_4
REMARK    2  A    between atoms: C_4  and  C_5
REMARK                            x       y       z     vdW  Elec       q    Type
REMARK                         _______ _______ _______ _____ _____    ______ ____
ROOT
ATOM      1  N   UNL     1       1.010   5.596   1.347  0.00  0.00    -0.354 N 
ATOM      2  N   UNL     1      -0.868   4.317   0.899  0.00  0.00    -0.372 N 
ATOM      3  N   UNL     1      -1.122   6.566   1.274  0.00  0.00    -0.372 N 
ATOM      4  C   UNL     1      -0.316   5.504   1.177  0.00  0.00    +0.166 C 
ATOM      5  H   UNL     1       1.562   4.748   1.290  0.00  0.00    +0.163 HD
ATOM      6  H   UNL     1      -1.865   4.217   0.762  0.00  0.00    +0.159 HD
ATOM      7  H   UNL     1      -0.308   3.479   0.797  0.00  0.00    +0.159 HD
ATOM      8  H   UNL     1      -0.768   7.489   1.488  0.00  0.00    +0.159 HD
ATOM      9  H   UNL     1      -2.124   6.484   1.152  0.00  0.00    +0.159 HD
ENDROOT
BRANCH   1  10
ATOM     10  C   UNL     1       1.717   6.850   1.600  0.00  0.00    +0.151 C 
BRANCH  10  11
ATOM     11  C   UNL     1       2.821   6.600   2.590  0.00  0.00    -0.028 A 
ATOM     12  C   UNL     1       3.141   5.293   2.985  0.00  0.00    +0.005 A 
ATOM     13  C   UNL     1       3.554   7.667   3.132  0.00  0.00    +0.005 A 
ATOM     14  C   UNL     1       4.186   5.059   3.882  0.00  0.00    +0.000 A 
ATOM     15  C   UNL     1       4.597   7.429   4.028  0.00  0.00    +0.000 A 
ATOM     16  C   UNL     1       4.914   6.125   4.401  0.00  0.00    +0.000 A 
ENDBRANCH  10  11
ENDBRANCH   1  10
TORSDOF 2
ENDMDL
MODEL 3
REMARK VINA RESULT:    -5.808      1.899      2.359
REMARK INTER + INTRA:          -6.611
REMARK INTER:                  -6.497
REMARK INTRA:                  -0.114
REMARK UNBOUND:                -0.124
REMARK  Name = 1550473
REMARK  2 active torsions:
REMARK  status: ('A' for Active; 'I' for Inactive)
REMARK    1  A    between atoms: N_1  and  C_4
REMARK    2  A    between atoms: C_4  and  C_5
REMARK                            x       y       z     vdW  Elec       q    Type
REMARK                         _______ _______ _______ _____ _____    ______ ____
ROOT
ATOM      1  N   UNL     1       1.191   7.237   2.915  0.00  0.00    -0.354 N 
ATOM      2  N   UNL     1       0.337   7.132   0.765  0.00  0.00    -0.372 N 
ATOM      3  N   UNL     1       1.992   8.652   1.228  0.00  0.00    -0.372 N 
ATOM      4  C   UNL     1       1.181   7.677   1.650  0.00  0.00    +0.166 C 
ATOM      5  H   UNL     1       0.530   6.516   3.180  0.00  0.00    +0.163 HD
ATOM      6  H   UNL     1       0.309   7.440  -0.197  0.00  0.00    +0.159 HD
ATOM      7  H   UNL     1      -0.290   6.379   1.021  0.00  0.00    +0.159 HD
ATOM      8  H   UNL     1       2.648   9.109   1.847  0.00  0.00    +0.159 HD
ATOM      9  H   UNL     1       1.971   8.983   0.271  0.00  0.00    +0.159 HD
ENDROOT
BRANCH   1  10
ATOM     10  C   UNL     1       2.108   7.727   3.943  0.00  0.00    +0.151 C 
BRANCH  10  11
ATOM     11  C   UNL     1       3.403   6.968   3.848  0.00  0.00    -0.028 A 
ATOM     12  C   UNL     1       4.631   7.639   3.944  0.00  0.00    +0.005 A 
ATOM     13  C   UNL     1       3.409   5.576   3.667  0.00  0.00    +0.005 A 
ATOM     14  C   UNL     1       5.833   6.931   3.885  0.00  0.00    +0.000 A 
ATOM     15  C   UNL     1       4.612   4.872   3.609  0.00  0.00    +0.000 A 
ATOM     16  C   UNL     1       5.824   5.550   3.720  0.00  0.00    +0.000 A 
ENDBRANCH  10  11
ENDBRANCH   1  10
TORSDOF 2
ENDMDL
MODEL 4
REMARK VINA RESULT:    -5.644      2.532      3.059
REMARK INTER + INTRA:          -6.428
REMARK INTER:                  -6.301
REMARK INTRA:                  -0.127
REMARK UNBOUND:                -0.124
REMARK  Name = 1550473
REMARK  2 active torsions:
REMARK  status: ('A' for Active; 'I' for Inactive)
REMARK    1  A    between atoms: N_1  and  C_4
REMARK    2  A    between atoms: C_4  and  C_5
REMARK                            x       y       z     vdW  Elec       q    Type
REMARK                         _______ _______ _______ _____ _____    ______ ____
ROOT
ATOM      1  N   UNL     1       2.297   5.952   6.742  0.00  0.00    -0.354 N 
ATOM      2  N   UNL     1       1.436   6.475   8.828  0.00  0.00    -0.372 N 
ATOM      3  N   UNL     1       0.201   6.977   6.960  0.00  0.00    -0.372 N 
ATOM      4  C   UNL     1       1.315   6.466   7.495  0.00  0.00    +0.166 C 
ATOM      5  H   UNL     1       3.129   5.608   7.206  0.00  0.00    +0.163 HD
ATOM      6  H   UNL     1       0.710   6.852   9.422  0.00  0.00    +0.159 HD
ATOM      7  H   UNL     1       2.249   6.088   9.291  0.00  0.00    +0.159 HD
ATOM      8  H   UNL     1       0.050   7.006   5.961  0.00  0.00    +0.159 HD
ATOM      9  H   UNL     1      -0.532   7.370   7.538  0.00  0.00    +0.159 HD
ENDROOT
BRANCH   1  10
ATOM     10  C   UNL     1       2.240   5.846   5.285  0.00  0.00    +0.151 C 
BRANCH  10  11
ATOM     11  C   UNL     1       3.540   6.331   4.706  0.00  0.00    -0.028 A 
ATOM     12  C   UNL     1       3.788   7.704   4.562  0.00  0.00    +0.005 A 
ATOM     13  C   UNL     1       4.532   5.422   4.305  0.00  0.00    +0.005 A 
ATOM     14  C   UNL     1       5.007   8.155   4.052  0.00  0.00    +0.000 A 
ATOM     15  C   UNL     1       5.748   5.877   3.795  0.00  0.00    +0.000 A 
ATOM     16  C   UNL     1       5.986   7.243   3.671  0.00  0.00    +0.000 A 
ENDBRANCH  10  11
ENDBRANCH   1  10
TORSDOF 2
ENDMDL
MODEL 5
REMARK VINA RESULT:    -5.623     12.226     13.634
REMARK INTER + INTRA:          -6.404
REMARK INTER:                  -6.276
REMARK INTRA:                  -0.128
REMARK UNBOUND:                -0.124
REMARK  Name = 1550473
REMARK  2 active torsions:
REMARK  status: ('A' for Active; 'I' for Inactive)
REMARK    1  A    between atoms: N_1  and  C_4
REMARK    2  A    between atoms: C_4  and  C_5
REMARK                            x       y       z     vdW  Elec       q    Type
REMARK                         _______ _______ _______ _____ _____    ______ ____
ROOT
ATOM      1  N   UNL     1      -5.177  -3.208   0.367  0.00  0.00    -0.354 N 
ATOM      2  N   UNL     1      -5.198  -2.101   2.402  0.00  0.00    -0.372 N 
ATOM      3  N   UNL     1      -6.305  -4.103   2.216  0.00  0.00    -0.372 N 
ATOM      4  C   UNL     1      -5.561  -3.147   1.649  0.00  0.00    +0.166 C 
ATOM      5  H   UNL     1      -4.639  -2.436  -0.011  0.00  0.00    +0.163 HD
ATOM      6  H   UNL     1      -5.471  -2.030   3.373  0.00  0.00    +0.159 HD
ATOM      7  H   UNL     1      -4.623  -1.354   2.034  0.00  0.00    +0.159 HD
ATOM      8  H   UNL     1      -6.617  -4.915   1.700  0.00  0.00    +0.159 HD
ATOM      9  H   UNL     1      -6.597  -4.044   3.183  0.00  0.00    +0.159 HD
ENDROOT
BRANCH   1  10
ATOM     10  C   UNL     1      -5.473  -4.328  -0.523  0.00  0.00    +0.151 C 
BRANCH  10  11
ATOM     11  C   UNL     1      -5.424  -3.850  -1.948  0.00  0.00    -0.028 A 
ATOM     12  C   UNL     1      -5.387  -4.769  -3.007  0.00  0.00    +0.005 A 
ATOM     13  C   UNL     1      -5.419  -2.478  -2.246  0.00  0.00    +0.005 A 
ATOM     14  C   UNL     1      -5.371  -4.325  -4.332  0.00  0.00    +0.000 A 
ATOM     15  C   UNL     1      -5.402  -2.040  -3.570  0.00  0.00    +0.000 A 
ATOM     16  C   UNL     1      -5.381  -2.963  -4.612  0.00  0.00    +0.000 A 
ENDBRANCH  10  11
ENDBRANCH   1  10
TORSDOF 2
ENDMDL
MODEL 6
REMARK VINA RESULT:    -5.571      3.194      5.058
REMARK INTER + INTRA:          -6.347
REMARK INTER:                  -6.242
REMARK INTRA:                  -0.105
REMARK UNBOUND:                -0.124
REMARK  Name = 1550473
REMARK  2 active torsions:
REMARK  status: ('A' for Active; 'I' for Inactive)
REMARK    1  A    between atoms: N_1  and  C_4
REMARK    2  A    between atoms: C_4  and  C_5
REMARK                            x       y       z     vdW  Elec       q    Type
REMARK                         _______ _______ _______ _____ _____    ______ ____
ROOT
ATOM      1  N   UNL     1       3.778   8.413   4.103  0.00  0.00    -0.354 N 
ATOM      2  N   UNL     1       5.758   9.543   3.697  0.00  0.00    -0.372 N 
ATOM      3  N   UNL     1       5.797   7.253   3.837  0.00  0.00    -0.372 N 
ATOM      4  C   UNL     1       5.099   8.393   3.882  0.00  0.00    +0.166 C 
ATOM      5  H   UNL     1       3.312   9.312   4.155  0.00  0.00    +0.163 HD
ATOM      6  H   UNL     1       6.754   9.559   3.525  0.00  0.00    +0.159 HD
ATOM      7  H   UNL     1       5.282  10.437   3.704  0.00  0.00    +0.159 HD
ATOM      8  H   UNL     1       5.359   6.352   3.975  0.00  0.00    +0.159 HD
ATOM      9  H   UNL     1       6.796   7.249   3.678  0.00  0.00    +0.159 HD
ENDROOT
BRANCH   1  10
ATOM     10  C   UNL     1       2.957   7.214   4.263  0.00  0.00    +0.151 C 
BRANCH  10  11
ATOM     11  C   UNL     1       1.966   7.142   3.134  0.00  0.00    -0.028 A 
ATOM     12  C   UNL     1       2.159   7.898   1.969  0.00  0.00    +0.005 A 
ATOM     13  C   UNL     1       0.835   6.316   3.222  0.00  0.00    +0.005 A 
ATOM     14  C   UNL     1       1.254   7.809   0.908  0.00  0.00    +0.000 A 
ATOM     15  C   UNL     1      -0.066   6.230   2.161  0.00  0.00    +0.000 A 
ATOM     16  C   UNL     1       0.145   6.975   1.003  0.00  0.00    +0.000 A 
ENDBRANCH  10  11
ENDBRANCH   1  10
TORSDOF 2
ENDMDL
MODEL 7
REMARK VINA RESULT:    -5.374      9.122     11.688
REMARK INTER + INTRA:          -6.126
REMARK INTER:                  -6.033
REMARK INTRA:                  -0.093
REMARK UNBOUND:                -0.124
REMARK  Name = 1550473
REMARK  2 active torsions:
REMARK  status: ('A' for Active; 'I' for Inactive)
REMARK    1  A    between atoms: N_1  and  C_4
REMARK    2  A    between atoms: C_4  and  C_5
REMARK                            x       y       z     vdW  Elec       q    Type
REMARK                         _______ _______ _______ _____ _____    ______ ____
ROOT
ATOM      1  N   UNL     1      -3.394  -2.071   3.170  0.00  0.00    -0.354 N 
ATOM      2  N   UNL     1      -1.660  -1.852   4.689  0.00  0.00    -0.372 N 
ATOM      3  N   UNL     1      -3.189  -0.152   4.500  0.00  0.00    -0.372 N 
ATOM      4  C   UNL     1      -2.760  -1.357   4.110  0.00  0.00    +0.166 C 
ATOM      5  H   UNL     1      -3.002  -2.965   2.898  0.00  0.00    +0.163 HD
ATOM      6  H   UNL     1      -1.162  -1.338   5.404  0.00  0.00    +0.159 HD
ATOM      7  H   UNL     1      -1.295  -2.766   4.448  0.00  0.00    +0.159 HD
ATOM      8  H   UNL     1      -4.010   0.280   4.098  0.00  0.00    +0.159 HD
ATOM      9  H   UNL     1      -2.697   0.383   5.205  0.00  0.00    +0.159 HD
ENDROOT
BRANCH   1  10
ATOM     10  C   UNL     1      -4.631  -1.646   2.517  0.00  0.00    +0.151 C 
BRANCH  10  11
ATOM     11  C   UNL     1      -4.928  -2.578   1.375  0.00  0.00    -0.028 A 
ATOM     12  C   UNL     1      -4.322  -2.389   0.125  0.00  0.00    +0.005 A 
ATOM     13  C   UNL     1      -5.811  -3.657   1.539  0.00  0.00    +0.005 A 
ATOM     14  C   UNL     1      -4.575  -3.272  -0.928  0.00  0.00    +0.000 A 
ATOM     15  C   UNL     1      -6.062  -4.536   0.485  0.00  0.00    +0.000 A 
ATOM     16  C   UNL     1      -5.441  -4.345  -0.747  0.00  0.00    +0.000 A 
ENDBRANCH  10  11
ENDBRANCH   1  10
TORSDOF 2
ENDMDL
MODEL 8
REMARK VINA RESULT:    -5.179     10.305     11.627
REMARK INTER + INTRA:          -5.908
REMARK INTER:                  -5.771
REMARK INTRA:                  -0.137
REMARK UNBOUND:                -0.124
REMARK  Name = 1550473
REMARK  2 active torsions:
REMARK  status: ('A' for Active; 'I' for Inactive)
REMARK    1  A    between atoms: N_1  and  C_4
REMARK    2  A    between atoms: C_4  and  C_5
REMARK                            x       y       z     vdW  Elec       q    Type
REMARK                         _______ _______ _______ _____ _____    ______ ____
ROOT
ATOM      1  N   UNL     1      11.599   1.169  -2.925  0.00  0.00    -0.354 N 
ATOM      2  N   UNL     1      12.095   2.388  -4.831  0.00  0.00    -0.372 N 
ATOM      3  N   UNL     1      13.064   2.997  -2.843  0.00  0.00    -0.372 N 
ATOM      4  C   UNL     1      12.251   2.178  -3.519  0.00  0.00    +0.166 C 
ATOM      5  H   UNL     1      10.974   0.603  -3.487  0.00  0.00    +0.163 HD
ATOM      6  H   UNL     1      12.576   3.139  -5.307  0.00  0.00    +0.159 HD
ATOM      7  H   UNL     1      11.505   1.792  -5.400  0.00  0.00    +0.159 HD
ATOM      8  H   UNL     1      13.220   2.895  -1.849  0.00  0.00    +0.159 HD
ATOM      9  H   UNL     1      13.545   3.761  -3.299  0.00  0.00    +0.159 HD
ENDROOT
BRANCH   1  10
ATOM     10  C   UNL     1      11.742   0.822  -1.512  0.00  0.00    +0.151 C 
BRANCH  10  11
ATOM     11  C   UNL     1      10.383   0.528  -0.939  0.00  0.00    -0.028 A 
ATOM     12  C   UNL     1       9.275   0.364  -1.783  0.00  0.00    +0.005 A 
ATOM     13  C   UNL     1      10.199   0.407   0.447  0.00  0.00    +0.005 A 
ATOM     14  C   UNL     1       8.018   0.061  -1.252  0.00  0.00    +0.000 A 
ATOM     15  C   UNL     1       8.942   0.106   0.972  0.00  0.00    +0.000 A 
ATOM     16  C   UNL     1       7.853  -0.069   0.122  0.00  0.00    +0.000 A 
ENDBRANCH  10  11
ENDBRANCH   1  10
TORSDOF 2
ENDMDL
MODEL 9
REMARK VINA RESULT:    -5.154     10.977     12.523
REMARK INTER + INTRA:          -5.880
REMARK INTER:                  -5.742
REMARK INTRA:                  -0.138
REMARK UNBOUND:                -0.124
REMARK  Name = 1550473
REMARK  2 active torsions:
REMARK  status: ('A' for Active; 'I' for Inactive)
REMARK    1  A    between atoms: N_1  and  C_4
REMARK    2  A    between atoms: C_4  and  C_5
REMARK                            x       y       z     vdW  Elec       q    Type
REMARK                         _______ _______ _______ _____ _____    ______ ____
ROOT
ATOM      1  N   UNL     1      12.193   0.097  -3.365  0.00  0.00    -0.354 N 
ATOM      2  N   UNL     1      13.696  -1.420  -4.263  0.00  0.00    -0.372 N 
ATOM      3  N   UNL     1      11.780  -0.935  -5.428  0.00  0.00    -0.372 N 
ATOM      4  C   UNL     1      12.544  -0.743  -4.348  0.00  0.00    +0.166 C 
ATOM      5  H   UNL     1      12.802   0.176  -2.559  0.00  0.00    +0.163 HD
ATOM      6  H   UNL     1      13.989  -2.058  -4.990  0.00  0.00    +0.159 HD
ATOM      7  H   UNL     1      14.325  -1.305  -3.477  0.00  0.00    +0.159 HD
ATOM      8  H   UNL     1      10.896  -0.459  -5.550  0.00  0.00    +0.159 HD
ATOM      9  H   UNL     1      12.050  -1.579  -6.162  0.00  0.00    +0.159 HD
ENDROOT
BRANCH   1  10
ATOM     10  C   UNL     1      10.987   0.922  -3.387  0.00  0.00    +0.151 C 
BRANCH  10  11
ATOM     11  C   UNL     1      10.133   0.574  -2.199  0.00  0.00    -0.028 A 
ATOM     12  C   UNL     1       8.775   0.263  -2.364  0.00  0.00    +0.005 A 
ATOM     13  C   UNL     1      10.677   0.548  -0.905  0.00  0.00    +0.005 A 
ATOM     14  C   UNL     1       7.989  -0.089  -1.265  0.00  0.00    +0.000 A 
ATOM     15  C   UNL     1       9.888   0.196   0.190  0.00  0.00    +0.000 A 
ATOM     16  C   UNL     1       8.545  -0.125   0.010  0.00  0.00    +0.000 A 
ENDBRANCH  10  11
ENDBRANCH   1  10
TORSDOF 2
ENDMDL
