MODEL 1
REMARK VINA RESULT:    -5.222      0.000      0.000
REMARK INTER + INTRA:          -5.992
REMARK INTER:                  -5.833
REMARK INTRA:                  -0.160
REMARK UNBOUND:                -0.160
REMARK  Name = 1550473
REMARK  2 active torsions:
REMARK  status: ('A' for Active; 'I' for Inactive)
REMARK    1  A    between atoms: N_1  and  C_4
REMARK    2  A    between atoms: C_4  and  C_5
REMARK                            x       y       z     vdW  Elec       q    Type
REMARK                         _______ _______ _______ _____ _____    ______ ____
ROOT
ATOM      1  N   UNL     1      15.189  12.239  19.273  0.00  0.00    -0.354 N 
ATOM      2  N   UNL     1      16.517  12.575  21.141  0.00  0.00    -0.372 N 
ATOM      3  N   UNL     1      14.529  11.455  21.381  0.00  0.00    -0.372 N 
ATOM      4  C   UNL     1      15.401  12.086  20.587  0.00  0.00    +0.166 C 
ATOM      5  H   UNL     1      15.875  12.753  18.732  0.00  0.00    +0.163 HD
ATOM      6  H   UNL     1      16.706  12.472  22.129  0.00  0.00    +0.159 HD
ATOM      7  H   UNL     1      17.222  13.048  20.589  0.00  0.00    +0.159 HD
ATOM      8  H   UNL     1      13.664  11.069  21.026  0.00  0.00    +0.159 HD
ATOM      9  H   UNL     1      14.694  11.353  22.374  0.00  0.00    +0.159 HD
ENDROOT
BRANCH   1  10
ATOM     10  C   UNL     1      14.032  11.698  18.563  0.00  0.00    +0.151 C 
BRANCH  10  11
ATOM     11  C   UNL     1      14.451  10.467  17.807  0.00  0.00    -0.028 A 
ATOM     12  C   UNL     1      15.754  10.351  17.303  0.00  0.00    +0.005 A 
ATOM     13  C   UNL     1      13.550   9.412  17.597  0.00  0.00    +0.005 A 
ATOM     14  C   UNL     1      16.152   9.195  16.626  0.00  0.00    +0.000 A 
ATOM     15  C   UNL     1      13.951   8.260  16.920  0.00  0.00    +0.000 A 
ATOM     16  C   UNL     1      15.253   8.151  16.438  0.00  0.00    +0.000 A 
ENDBRANCH  10  11
ENDBRANCH   1  10
TORSDOF 2
ENDMDL
MODEL 2
REMARK VINA RESULT:    -5.116     13.015     13.746
REMARK INTER + INTRA:          -5.874
REMARK INTER:                  -5.724
REMARK INTRA:                  -0.150
REMARK UNBOUND:                -0.160
REMARK  Name = 1550473
REMARK  2 active torsions:
REMARK  status: ('A' for Active; 'I' for Inactive)
REMARK    1  A    between atoms: N_1  and  C_4
REMARK    2  A    between atoms: C_4  and  C_5
REMARK                            x       y       z     vdW  Elec       q    Type
REMARK                         _______ _______ _______ _____ _____    ______ ____
ROOT
ATOM      1  N   UNL     1      10.316  21.870  11.668  0.00  0.00    -0.354 N 
ATOM      2  N   UNL     1      10.170  24.134  11.205  0.00  0.00    -0.372 N 
ATOM      3  N   UNL     1       9.379  23.361  13.215  0.00  0.00    -0.372 N 
ATOM      4  C   UNL     1       9.955  23.107  12.035  0.00  0.00    +0.166 C 
ATOM      5  H   UNL     1      10.720  21.739  10.748  0.00  0.00    +0.163 HD
ATOM      6  H   UNL     1       9.912  25.079  11.455  0.00  0.00    +0.159 HD
ATOM      7  H   UNL     1      10.617  24.007  10.305  0.00  0.00    +0.159 HD
ATOM      8  H   UNL     1       9.183  22.628  13.884  0.00  0.00    +0.159 HD
ATOM      9  H   UNL     1       9.102  24.298  13.479  0.00  0.00    +0.159 HD
ENDROOT
BRANCH   1  10
ATOM     10  C   UNL     1      10.174  20.690  12.520  0.00  0.00    +0.151 C 
BRANCH  10  11
ATOM     11  C   UNL     1       9.174  19.754  11.900  0.00  0.00    -0.028 A 
ATOM     12  C   UNL     1       8.221  19.101  12.696  0.00  0.00    +0.005 A 
ATOM     13  C   UNL     1       9.170  19.520  10.516  0.00  0.00    +0.005 A 
ATOM     14  C   UNL     1       7.273  18.254  12.116  0.00  0.00    +0.000 A 
ATOM     15  C   UNL     1       8.222  18.673   9.942  0.00  0.00    +0.000 A 
ATOM     16  C   UNL     1       7.272  18.042  10.742  0.00  0.00    +0.000 A 
ENDBRANCH  10  11
ENDBRANCH   1  10
TORSDOF 2
ENDMDL
MODEL 3
REMARK VINA RESULT:    -5.016     27.239     28.540
REMARK INTER + INTRA:          -5.762
REMARK INTER:                  -5.618
REMARK INTRA:                  -0.144
REMARK UNBOUND:                -0.160
REMARK  Name = 1550473
REMARK  2 active torsions:
REMARK  status: ('A' for Active; 'I' for Inactive)
REMARK    1  A    between atoms: N_1  and  C_4
REMARK    2  A    between atoms: C_4  and  C_5
REMARK                            x       y       z     vdW  Elec       q    Type
REMARK                         _______ _______ _______ _____ _____    ______ ____
ROOT
ATOM      1  N   UNL     1      -6.078  -0.745   3.481  0.00  0.00    -0.354 N 
ATOM      2  N   UNL     1      -4.754   0.963   2.646  0.00  0.00    -0.372 N 
ATOM      3  N   UNL     1      -7.021   1.047   2.301  0.00  0.00    -0.372 N 
ATOM      4  C   UNL     1      -5.962   0.411   2.814  0.00  0.00    +0.166 C 
ATOM      5  H   UNL     1      -5.233  -1.192   3.819  0.00  0.00    +0.163 HD
ATOM      6  H   UNL     1      -4.637   1.836   2.150  0.00  0.00    +0.159 HD
ATOM      7  H   UNL     1      -3.917   0.537   3.024  0.00  0.00    +0.159 HD
ATOM      8  H   UNL     1      -7.960   0.680   2.388  0.00  0.00    +0.159 HD
ATOM      9  H   UNL     1      -6.922   1.916   1.791  0.00  0.00    +0.159 HD
ENDROOT
BRANCH   1  10
ATOM     10  C   UNL     1      -7.353  -1.401   3.765  0.00  0.00    +0.151 C 
BRANCH  10  11
ATOM     11  C   UNL     1      -7.718  -1.162   5.204  0.00  0.00    -0.028 A 
ATOM     12  C   UNL     1      -6.728  -0.851   6.148  0.00  0.00    +0.005 A 
ATOM     13  C   UNL     1      -9.053  -1.240   5.630  0.00  0.00    +0.005 A 
ATOM     14  C   UNL     1      -7.070  -0.599   7.479  0.00  0.00    +0.000 A 
ATOM     15  C   UNL     1      -9.391  -0.989   6.959  0.00  0.00    +0.000 A 
ATOM     16  C   UNL     1      -8.399  -0.666   7.883  0.00  0.00    +0.000 A 
ENDBRANCH  10  11
ENDBRANCH   1  10
TORSDOF 2
ENDMDL
MODEL 4
REMARK VINA RESULT:    -4.970     38.480     40.069
REMARK INTER + INTRA:          -5.710
REMARK INTER:                  -5.581
REMARK INTRA:                  -0.129
REMARK UNBOUND:                -0.160
REMARK  Name = 1550473
REMARK  2 active torsions:
REMARK  status: ('A' for Active; 'I' for Inactive)
REMARK    1  A    between atoms: N_1  and  C_4
REMARK    2  A    between atoms: C_4  and  C_5
REMARK                            x       y       z     vdW  Elec       q    Type
REMARK                         _______ _______ _______ _____ _____    ______ ____
ROOT
ATOM      1  N   UNL     1       4.982  -6.741 -17.346  0.00  0.00    -0.354 N 
ATOM      2  N   UNL     1       4.025  -7.963 -19.066  0.00  0.00    -0.372 N 
ATOM      3  N   UNL     1       5.409  -6.209 -19.588  0.00  0.00    -0.372 N 
ATOM      4  C   UNL     1       4.813  -6.961 -18.657  0.00  0.00    +0.166 C 
ATOM      5  H   UNL     1       4.478  -7.328 -16.691  0.00  0.00    +0.163 HD
ATOM      6  H   UNL     1       3.881  -8.155 -20.048  0.00  0.00    +0.159 HD
ATOM      7  H   UNL     1       3.559  -8.577 -18.408  0.00  0.00    +0.159 HD
ATOM      8  H   UNL     1       6.012  -5.434 -19.346  0.00  0.00    +0.159 HD
ATOM      9  H   UNL     1       5.268  -6.378 -20.577  0.00  0.00    +0.159 HD
ENDROOT
BRANCH   1  10
ATOM     10  C   UNL     1       5.861  -5.711 -16.797  0.00  0.00    +0.151 C 
BRANCH  10  11
ATOM     11  C   UNL     1       5.068  -4.832 -15.870  0.00  0.00    -0.028 A 
ATOM     12  C   UNL     1       4.872  -3.476 -16.168  0.00  0.00    +0.005 A 
ATOM     13  C   UNL     1       4.505  -5.351 -14.694  0.00  0.00    +0.005 A 
ATOM     14  C   UNL     1       4.110  -2.666 -15.322  0.00  0.00    +0.000 A 
ATOM     15  C   UNL     1       3.746  -4.539 -13.851  0.00  0.00    +0.000 A 
ATOM     16  C   UNL     1       3.546  -3.197 -14.167  0.00  0.00    +0.000 A 
ENDBRANCH  10  11
ENDBRANCH   1  10
TORSDOF 2
ENDMDL
MODEL 5
REMARK VINA RESULT:    -4.967     35.222     36.725
REMARK INTER + INTRA:          -5.708
REMARK INTER:                  -5.581
REMARK INTRA:                  -0.127
REMARK UNBOUND:                -0.160
REMARK  Name = 1550473
REMARK  2 active torsions:
REMARK  status: ('A' for Active; 'I' for Inactive)
REMARK    1  A    between atoms: N_1  and  C_4
REMARK    2  A    between atoms: C_4  and  C_5
REMARK                            x       y       z     vdW  Elec       q    Type
REMARK                         _______ _______ _______ _____ _____    ______ ____
ROOT
ATOM      1  N   UNL     1       4.256  -1.790 -15.378  0.00  0.00    -0.354 N 
ATOM      2  N   UNL     1       5.344  -3.830 -15.519  0.00  0.00    -0.372 N 
ATOM      3  N   UNL     1       3.050  -3.791 -15.558  0.00  0.00    -0.372 N 
ATOM      4  C   UNL     1       4.207  -3.125 -15.484  0.00  0.00    +0.166 C 
ATOM      5  H   UNL     1       5.164  -1.347 -15.295  0.00  0.00    +0.163 HD
ATOM      6  H   UNL     1       5.338  -4.838 -15.602  0.00  0.00    +0.159 HD
ATOM      7  H   UNL     1       6.251  -3.381 -15.482  0.00  0.00    +0.159 HD
ATOM      8  H   UNL     1       2.157  -3.318 -15.531  0.00  0.00    +0.159 HD
ATOM      9  H   UNL     1       3.023  -4.801 -15.629  0.00  0.00    +0.159 HD
ENDROOT
BRANCH   1  10
ATOM     10  C   UNL     1       3.078  -0.925 -15.385  0.00  0.00    +0.151 C 
BRANCH  10  11
ATOM     11  C   UNL     1       3.168   0.037 -14.233  0.00  0.00    -0.028 A 
ATOM     12  C   UNL     1       2.658  -0.310 -12.973  0.00  0.00    +0.005 A 
ATOM     13  C   UNL     1       3.767   1.296 -14.393  0.00  0.00    +0.005 A 
ATOM     14  C   UNL     1       2.768   0.572 -11.895  0.00  0.00    +0.000 A 
ATOM     15  C   UNL     1       3.875   2.174 -13.314  0.00  0.00    +0.000 A 
ATOM     16  C   UNL     1       3.377   1.811 -12.065  0.00  0.00    +0.000 A 
ENDBRANCH  10  11
ENDBRANCH   1  10
TORSDOF 2
ENDMDL
MODEL 6
REMARK VINA RESULT:    -4.864     18.556     20.187
REMARK INTER + INTRA:          -5.593
REMARK INTER:                  -5.475
REMARK INTRA:                  -0.117
REMARK UNBOUND:                -0.160
REMARK  Name = 1550473
REMARK  2 active torsions:
REMARK  status: ('A' for Active; 'I' for Inactive)
REMARK    1  A    between atoms: N_1  and  C_4
REMARK    2  A    between atoms: C_4  and  C_5
REMARK                            x       y       z     vdW  Elec       q    Type
REMARK                         _______ _______ _______ _____ _____    ______ ____
ROOT
ATOM      1  N   UNL     1       4.966  -5.009  18.520  0.00  0.00    -0.354 N 
ATOM      2  N   UNL     1       6.479  -3.474  19.367  0.00  0.00    -0.372 N 
ATOM      3  N   UNL     1       7.265  -5.461  18.532  0.00  0.00    -0.372 N 
ATOM      4  C   UNL     1       6.228  -4.660  18.800  0.00  0.00    +0.166 C 
ATOM      5  H   UNL     1       4.222  -4.370  18.775  0.00  0.00    +0.163 HD
ATOM      6  H   UNL     1       7.421  -3.182  19.587  0.00  0.00    +0.159 HD
ATOM      7  H   UNL     1       5.737  -2.818  19.580  0.00  0.00    +0.159 HD
ATOM      8  H   UNL     1       7.143  -6.372  18.111  0.00  0.00    +0.159 HD
ATOM      9  H   UNL     1       8.215  -5.192  18.756  0.00  0.00    +0.159 HD
ENDROOT
BRANCH   1  10
ATOM     10  C   UNL     1       4.590  -6.255  17.854  0.00  0.00    +0.151 C 
BRANCH  10  11
ATOM     11  C   UNL     1       3.101  -6.438  17.957  0.00  0.00    -0.028 A 
ATOM     12  C   UNL     1       2.387  -7.059  16.923  0.00  0.00    +0.005 A 
ATOM     13  C   UNL     1       2.400  -5.997  19.090  0.00  0.00    +0.005 A 
ATOM     14  C   UNL     1       1.008  -7.256  17.031  0.00  0.00    +0.000 A 
ATOM     15  C   UNL     1       1.023  -6.195  19.194  0.00  0.00    +0.000 A 
ATOM     16  C   UNL     1       0.328  -6.827  18.166  0.00  0.00    +0.000 A 
ENDBRANCH  10  11
ENDBRANCH   1  10
TORSDOF 2
ENDMDL
MODEL 7
REMARK VINA RESULT:    -4.843      2.919      4.345
REMARK INTER + INTRA:          -5.569
REMARK INTER:                  -5.434
REMARK INTRA:                  -0.135
REMARK UNBOUND:                -0.160
REMARK  Name = 1550473
REMARK  2 active torsions:
REMARK  status: ('A' for Active; 'I' for Inactive)
REMARK    1  A    between atoms: N_1  and  C_4
REMARK    2  A    between atoms: C_4  and  C_5
REMARK                            x       y       z     vdW  Elec       q    Type
REMARK                         _______ _______ _______ _____ _____    ______ ____
ROOT
ATOM      1  N   UNL     1      14.746   8.772  18.889  0.00  0.00    -0.354 N 
ATOM      2  N   UNL     1      16.121   6.909  18.854  0.00  0.00    -0.372 N 
ATOM      3  N   UNL     1      14.358   7.014  17.389  0.00  0.00    -0.372 N 
ATOM      4  C   UNL     1      15.064   7.576  18.376  0.00  0.00    +0.166 C 
ATOM      5  H   UNL     1      15.303   9.130  19.656  0.00  0.00    +0.163 HD
ATOM      6  H   UNL     1      16.387   6.006  18.484  0.00  0.00    +0.159 HD
ATOM      7  H   UNL     1      16.703   7.290  19.589  0.00  0.00    +0.159 HD
ATOM      8  H   UNL     1      13.545   7.464  16.988  0.00  0.00    +0.159 HD
ATOM      9  H   UNL     1      14.601   6.106  17.013  0.00  0.00    +0.159 HD
ENDROOT
BRANCH   1  10
ATOM     10  C   UNL     1      13.647   9.605  18.403  0.00  0.00    +0.151 C 
BRANCH  10  11
ATOM     11  C   UNL     1      14.068  11.048  18.447  0.00  0.00    -0.028 A 
ATOM     12  C   UNL     1      15.427  11.393  18.460  0.00  0.00    +0.005 A 
ATOM     13  C   UNL     1      13.112  12.075  18.469  0.00  0.00    +0.005 A 
ATOM     14  C   UNL     1      15.818  12.734  18.470  0.00  0.00    +0.000 A 
ATOM     15  C   UNL     1      13.506  13.413  18.480  0.00  0.00    +0.000 A 
ATOM     16  C   UNL     1      14.860  13.742  18.478  0.00  0.00    +0.000 A 
ENDBRANCH  10  11
ENDBRANCH   1  10
TORSDOF 2
ENDMDL
MODEL 8
REMARK VINA RESULT:    -4.736     32.022     33.163
REMARK INTER + INTRA:          -5.449
REMARK INTER:                  -5.319
REMARK INTRA:                  -0.130
REMARK UNBOUND:                -0.160
REMARK  Name = 1550473
REMARK  2 active torsions:
REMARK  status: ('A' for Active; 'I' for Inactive)
REMARK    1  A    between atoms: N_1  and  C_4
REMARK    2  A    between atoms: C_4  and  C_5
REMARK                            x       y       z     vdW  Elec       q    Type
REMARK                         _______ _______ _______ _____ _____    ______ ____
ROOT
ATOM      1  N   UNL     1      -7.009 -14.498  13.917  0.00  0.00    -0.354 N 
ATOM      2  N   UNL     1      -7.492 -14.367  16.178  0.00  0.00    -0.372 N 
ATOM      3  N   UNL     1      -6.616 -12.527  15.123  0.00  0.00    -0.372 N 
ATOM      4  C   UNL     1      -7.034 -13.796  15.058  0.00  0.00    +0.166 C 
ATOM      5  H   UNL     1      -7.312 -15.465  13.940  0.00  0.00    +0.163 HD
ATOM      6  H   UNL     1      -7.527 -13.861  17.053  0.00  0.00    +0.159 HD
ATOM      7  H   UNL     1      -7.837 -15.319  16.188  0.00  0.00    +0.159 HD
ATOM      8  H   UNL     1      -6.254 -12.040  14.314  0.00  0.00    +0.159 HD
ATOM      9  H   UNL     1      -6.632 -12.008  15.992  0.00  0.00    +0.159 HD
ENDROOT
BRANCH   1  10
ATOM     10  C   UNL     1      -6.579 -13.952  12.630  0.00  0.00    +0.151 C 
BRANCH  10  11
ATOM     11  C   UNL     1      -5.482 -14.815  12.072  0.00  0.00    -0.028 A 
ATOM     12  C   UNL     1      -4.225 -14.266  11.777  0.00  0.00    +0.005 A 
ATOM     13  C   UNL     1      -5.690 -16.183  11.841  0.00  0.00    +0.005 A 
ATOM     14  C   UNL     1      -3.196 -15.074  11.287  0.00  0.00    +0.000 A 
ATOM     15  C   UNL     1      -4.660 -16.986  11.351  0.00  0.00    +0.000 A 
ATOM     16  C   UNL     1      -3.413 -16.431  11.076  0.00  0.00    +0.000 A 
ENDBRANCH  10  11
ENDBRANCH   1  10
TORSDOF 2
ENDMDL
MODEL 9
REMARK VINA RESULT:    -4.651      1.697      2.233
REMARK INTER + INTRA:          -5.354
REMARK INTER:                  -5.231
REMARK INTRA:                  -0.123
REMARK UNBOUND:                -0.160
REMARK  Name = 1550473
REMARK  2 active torsions:
REMARK  status: ('A' for Active; 'I' for Inactive)
REMARK    1  A    between atoms: N_1  and  C_4
REMARK    2  A    between atoms: C_4  and  C_5
REMARK                            x       y       z     vdW  Elec       q    Type
REMARK                         _______ _______ _______ _____ _____    ______ ____
ROOT
ATOM      1  N   UNL     1      14.056  12.345  18.689  0.00  0.00    -0.354 N 
ATOM      2  N   UNL     1      12.764  14.205  19.177  0.00  0.00    -0.372 N 
ATOM      3  N   UNL     1      14.928  14.510  18.478  0.00  0.00    -0.372 N 
ATOM      4  C   UNL     1      13.927  13.676  18.778  0.00  0.00    +0.166 C 
ATOM      5  H   UNL     1      13.269  11.766  18.959  0.00  0.00    +0.163 HD
ATOM      6  H   UNL     1      12.635  15.205  19.250  0.00  0.00    +0.159 HD
ATOM      7  H   UNL     1      11.964  13.625  19.402  0.00  0.00    +0.159 HD
ATOM      8  H   UNL     1      15.833  14.174  18.177  0.00  0.00    +0.159 HD
ATOM      9  H   UNL     1      14.823  15.514  18.557  0.00  0.00    +0.159 HD
ENDROOT
BRANCH   1  10
ATOM     10  C   UNL     1      15.262  11.671  18.214  0.00  0.00    +0.151 C 
BRANCH  10  11
ATOM     11  C   UNL     1      14.899  10.291  17.740  0.00  0.00    -0.028 A 
ATOM     12  C   UNL     1      15.783   9.559  16.934  0.00  0.00    +0.005 A 
ATOM     13  C   UNL     1      13.674   9.707  18.098  0.00  0.00    +0.005 A 
ATOM     14  C   UNL     1      15.459   8.265  16.518  0.00  0.00    +0.000 A 
ATOM     15  C   UNL     1      13.354   8.415  17.680  0.00  0.00    +0.000 A 
ATOM     16  C   UNL     1      14.248   7.694  16.892  0.00  0.00    +0.000 A 
ENDBRANCH  10  11
ENDBRANCH   1  10
TORSDOF 2
ENDMDL
