MODEL 1
REMARK VINA RESULT:    -5.412      0.000      0.000
REMARK INTER + INTRA:          -6.167
REMARK INTER:                  -6.045
REMARK INTRA:                  -0.122
REMARK UNBOUND:                -0.122
REMARK  Name = 1550473
REMARK  2 active torsions:
REMARK  status: ('A' for Active; 'I' for Inactive)
REMARK    1  A    between atoms: N_1  and  C_4
REMARK    2  A    between atoms: C_4  and  C_5
REMARK                            x       y       z     vdW  Elec       q    Type
REMARK                         _______ _______ _______ _____ _____    ______ ____
ROOT
ATOM      1  N   UNL     1      -6.906  13.158  11.733  0.00  0.00    -0.354 N 
ATOM      2  N   UNL     1      -5.478  14.972  11.922  0.00  0.00    -0.372 N 
ATOM      3  N   UNL     1      -6.167  13.899  13.830  0.00  0.00    -0.372 N 
ATOM      4  C   UNL     1      -6.194  13.997  12.497  0.00  0.00    +0.166 C 
ATOM      5  H   UNL     1      -6.908  13.304  10.730  0.00  0.00    +0.163 HD
ATOM      6  H   UNL     1      -4.928  15.618  12.472  0.00  0.00    +0.159 HD
ATOM      7  H   UNL     1      -5.446  15.088  10.917  0.00  0.00    +0.159 HD
ATOM      8  H   UNL     1      -6.690  13.189  14.325  0.00  0.00    +0.159 HD
ATOM      9  H   UNL     1      -5.632  14.544  14.398  0.00  0.00    +0.159 HD
ENDROOT
BRANCH   1  10
ATOM     10  C   UNL     1      -7.675  12.030  12.255  0.00  0.00    +0.151 C 
BRANCH  10  11
ATOM     11  C   UNL     1      -9.124  12.215  11.895  0.00  0.00    -0.028 A 
ATOM     12  C   UNL     1      -9.969  11.105  11.753  0.00  0.00    +0.005 A 
ATOM     13  C   UNL     1      -9.658  13.498  11.699  0.00  0.00    +0.005 A 
ATOM     14  C   UNL     1     -11.321  11.277  11.448  0.00  0.00    +0.000 A 
ATOM     15  C   UNL     1     -11.008  13.666  11.393  0.00  0.00    +0.000 A 
ATOM     16  C   UNL     1     -11.840  12.556  11.270  0.00  0.00    +0.000 A 
ENDBRANCH  10  11
ENDBRANCH   1  10
TORSDOF 2
ENDMDL
MODEL 2
REMARK VINA RESULT:    -5.222     15.134     15.832
REMARK INTER + INTRA:          -5.954
REMARK INTER:                  -5.826
REMARK INTRA:                  -0.128
REMARK UNBOUND:                -0.122
REMARK  Name = 1550473
REMARK  2 active torsions:
REMARK  status: ('A' for Active; 'I' for Inactive)
REMARK    1  A    between atoms: N_1  and  C_4
REMARK    2  A    between atoms: C_4  and  C_5
REMARK                            x       y       z     vdW  Elec       q    Type
REMARK                         _______ _______ _______ _____ _____    ______ ____
ROOT
ATOM      1  N   UNL     1      -2.512   5.411  -0.705  0.00  0.00    -0.354 N 
ATOM      2  N   UNL     1      -2.558   3.185  -1.342  0.00  0.00    -0.372 N 
ATOM      3  N   UNL     1      -3.551   3.794   0.636  0.00  0.00    -0.372 N 
ATOM      4  C   UNL     1      -2.875   4.145  -0.464  0.00  0.00    +0.166 C 
ATOM      5  H   UNL     1      -1.975   5.607  -1.542  0.00  0.00    +0.163 HD
ATOM      6  H   UNL     1      -2.821   2.221  -1.188  0.00  0.00    +0.159 HD
ATOM      7  H   UNL     1      -2.061   3.391  -2.200  0.00  0.00    +0.159 HD
ATOM      8  H   UNL     1      -3.815   4.470   1.340  0.00  0.00    +0.159 HD
ATOM      9  H   UNL     1      -3.813   2.832   0.813  0.00  0.00    +0.159 HD
ENDROOT
BRANCH   1  10
ATOM     10  C   UNL     1      -2.854   6.539   0.160  0.00  0.00    +0.151 C 
BRANCH  10  11
ATOM     11  C   UNL     1      -2.917   7.793  -0.668  0.00  0.00    -0.028 A 
ATOM     12  C   UNL     1      -2.497   7.783  -2.006  0.00  0.00    +0.005 A 
ATOM     13  C   UNL     1      -3.400   8.991  -0.122  0.00  0.00    +0.005 A 
ATOM     14  C   UNL     1      -2.583   8.940  -2.785  0.00  0.00    +0.000 A 
ATOM     15  C   UNL     1      -3.484  10.145  -0.902  0.00  0.00    +0.000 A 
ATOM     16  C   UNL     1      -3.078  10.118  -2.234  0.00  0.00    +0.000 A 
ENDBRANCH  10  11
ENDBRANCH   1  10
TORSDOF 2
ENDMDL
MODEL 3
REMARK VINA RESULT:    -5.020     14.947     15.670
REMARK INTER + INTRA:          -5.729
REMARK INTER:                  -5.603
REMARK INTRA:                  -0.126
REMARK UNBOUND:                -0.122
REMARK  Name = 1550473
REMARK  2 active torsions:
REMARK  status: ('A' for Active; 'I' for Inactive)
REMARK    1  A    between atoms: N_1  and  C_4
REMARK    2  A    between atoms: C_4  and  C_5
REMARK                            x       y       z     vdW  Elec       q    Type
REMARK                         _______ _______ _______ _____ _____    ______ ____
ROOT
ATOM      1  N   UNL     1      -2.827   5.357  -0.273  0.00  0.00    -0.354 N 
ATOM      2  N   UNL     1      -3.151   3.354   0.844  0.00  0.00    -0.372 N 
ATOM      3  N   UNL     1      -2.690   3.309  -1.404  0.00  0.00    -0.372 N 
ATOM      4  C   UNL     1      -2.887   4.019  -0.288  0.00  0.00    +0.166 C 
ATOM      5  H   UNL     1      -3.016   5.838   0.599  0.00  0.00    +0.163 HD
ATOM      6  H   UNL     1      -3.199   2.344   0.864  0.00  0.00    +0.159 HD
ATOM      7  H   UNL     1      -3.294   3.835   1.723  0.00  0.00    +0.159 HD
ATOM      8  H   UNL     1      -2.492   3.750  -2.292  0.00  0.00    +0.159 HD
ATOM      9  H   UNL     1      -2.745   2.298  -1.405  0.00  0.00    +0.159 HD
ENDROOT
BRANCH   1  10
ATOM     10  C   UNL     1      -2.493   6.173  -1.439  0.00  0.00    +0.151 C 
BRANCH  10  11
ATOM     11  C   UNL     1      -2.887   7.599  -1.170  0.00  0.00    -0.028 A 
ATOM     12  C   UNL     1      -3.473   7.957   0.053  0.00  0.00    +0.005 A 
ATOM     13  C   UNL     1      -2.671   8.599  -2.131  0.00  0.00    +0.005 A 
ATOM     14  C   UNL     1      -3.811   9.287   0.316  0.00  0.00    +0.000 A 
ATOM     15  C   UNL     1      -3.011   9.925  -1.865  0.00  0.00    +0.000 A 
ATOM     16  C   UNL     1      -3.578  10.269  -0.641  0.00  0.00    +0.000 A 
ENDBRANCH  10  11
ENDBRANCH   1  10
TORSDOF 2
ENDMDL
MODEL 4
REMARK VINA RESULT:    -4.981      2.634      6.044
REMARK INTER + INTRA:          -5.685
REMARK INTER:                  -5.563
REMARK INTRA:                  -0.122
REMARK UNBOUND:                -0.122
REMARK  Name = 1550473
REMARK  2 active torsions:
REMARK  status: ('A' for Active; 'I' for Inactive)
REMARK    1  A    between atoms: N_1  and  C_4
REMARK    2  A    between atoms: C_4  and  C_5
REMARK                            x       y       z     vdW  Elec       q    Type
REMARK                         _______ _______ _______ _____ _____    ______ ____
ROOT
ATOM      1  N   UNL     1      -6.545  12.881  12.107  0.00  0.00    -0.354 N 
ATOM      2  N   UNL     1      -7.513  10.911  11.368  0.00  0.00    -0.372 N 
ATOM      3  N   UNL     1      -8.628  12.180  12.922  0.00  0.00    -0.372 N 
ATOM      4  C   UNL     1      -7.557  12.004  12.139  0.00  0.00    +0.166 C 
ATOM      5  H   UNL     1      -5.748  12.675  11.516  0.00  0.00    +0.163 HD
ATOM      6  H   UNL     1      -8.264  10.234  11.369  0.00  0.00    +0.159 HD
ATOM      7  H   UNL     1      -6.737  10.731  10.743  0.00  0.00    +0.159 HD
ATOM      8  H   UNL     1      -8.720  12.981  13.531  0.00  0.00    +0.159 HD
ATOM      9  H   UNL     1      -9.384  11.507  12.944  0.00  0.00    +0.159 HD
ENDROOT
BRANCH   1  10
ATOM     10  C   UNL     1      -6.520  14.130  12.867  0.00  0.00    +0.151 C 
BRANCH  10  11
ATOM     11  C   UNL     1      -5.097  14.460  13.223  0.00  0.00    -0.028 A 
ATOM     12  C   UNL     1      -4.041  14.037  12.403  0.00  0.00    +0.005 A 
ATOM     13  C   UNL     1      -4.798  15.200  14.377  0.00  0.00    +0.005 A 
ATOM     14  C   UNL     1      -2.721  14.369  12.717  0.00  0.00    +0.000 A 
ATOM     15  C   UNL     1      -3.479  15.529  14.688  0.00  0.00    +0.000 A 
ATOM     16  C   UNL     1      -2.441  15.116  13.857  0.00  0.00    +0.000 A 
ENDBRANCH  10  11
ENDBRANCH   1  10
TORSDOF 2
ENDMDL
MODEL 5
REMARK VINA RESULT:    -4.648     21.329     22.705
REMARK INTER + INTRA:          -5.313
REMARK INTER:                  -5.213
REMARK INTRA:                  -0.100
REMARK UNBOUND:                -0.122
REMARK  Name = 1550473
REMARK  2 active torsions:
REMARK  status: ('A' for Active; 'I' for Inactive)
REMARK    1  A    between atoms: N_1  and  C_4
REMARK    2  A    between atoms: C_4  and  C_5
REMARK                            x       y       z     vdW  Elec       q    Type
REMARK                         _______ _______ _______ _____ _____    ______ ____
ROOT
ATOM      1  N   UNL     1     -10.056  -4.125  -0.463  0.00  0.00    -0.354 N 
ATOM      2  N   UNL     1     -11.444  -2.629   0.632  0.00  0.00    -0.372 N 
ATOM      3  N   UNL     1     -12.119  -3.498  -1.382  0.00  0.00    -0.372 N 
ATOM      4  C   UNL     1     -11.198  -3.427  -0.414  0.00  0.00    +0.166 C 
ATOM      5  H   UNL     1      -9.385  -4.004   0.288  0.00  0.00    +0.163 HD
ATOM      6  H   UNL     1     -12.299  -2.093   0.699  0.00  0.00    +0.159 HD
ATOM      7  H   UNL     1     -10.793  -2.546   1.403  0.00  0.00    +0.159 HD
ATOM      8  H   UNL     1     -11.991  -4.077  -2.201  0.00  0.00    +0.159 HD
ATOM      9  H   UNL     1     -12.975  -2.960  -1.339  0.00  0.00    +0.159 HD
ENDROOT
BRANCH   1  10
ATOM     10  C   UNL     1      -9.716  -5.063  -1.532  0.00  0.00    +0.151 C 
BRANCH  10  11
ATOM     11  C   UNL     1      -8.588  -5.944  -1.071  0.00  0.00    -0.028 A 
ATOM     12  C   UNL     1      -7.366  -5.385  -0.668  0.00  0.00    +0.005 A 
ATOM     13  C   UNL     1      -8.736  -7.339  -1.029  0.00  0.00    +0.005 A 
ATOM     14  C   UNL     1      -6.328  -6.201  -0.212  0.00  0.00    +0.000 A 
ATOM     15  C   UNL     1      -7.697  -8.151  -0.574  0.00  0.00    +0.000 A 
ATOM     16  C   UNL     1      -6.495  -7.581  -0.163  0.00  0.00    +0.000 A 
ENDBRANCH  10  11
ENDBRANCH   1  10
TORSDOF 2
ENDMDL
MODEL 6
REMARK VINA RESULT:    -4.570      3.877      7.302
REMARK INTER + INTRA:          -5.226
REMARK INTER:                  -5.131
REMARK INTRA:                  -0.095
REMARK UNBOUND:                -0.122
REMARK  Name = 1550473
REMARK  2 active torsions:
REMARK  status: ('A' for Active; 'I' for Inactive)
REMARK    1  A    between atoms: N_1  and  C_4
REMARK    2  A    between atoms: C_4  and  C_5
REMARK                            x       y       z     vdW  Elec       q    Type
REMARK                         _______ _______ _______ _____ _____    ______ ____
ROOT
ATOM      1  N   UNL     1      -4.937  15.049  12.249  0.00  0.00    -0.354 N 
ATOM      2  N   UNL     1      -6.692  14.053  11.113  0.00  0.00    -0.372 N 
ATOM      3  N   UNL     1      -6.429  13.616  13.351  0.00  0.00    -0.372 N 
ATOM      4  C   UNL     1      -6.008  14.244  12.248  0.00  0.00    +0.166 C 
ATOM      5  H   UNL     1      -4.651  15.472  11.374  0.00  0.00    +0.163 HD
ATOM      6  H   UNL     1      -7.507  13.454  11.082  0.00  0.00    +0.159 HD
ATOM      7  H   UNL     1      -6.432  14.513  10.250  0.00  0.00    +0.159 HD
ATOM      8  H   UNL     1      -5.953  13.714  14.237  0.00  0.00    +0.159 HD
ATOM      9  H   UNL     1      -7.235  13.004  13.337  0.00  0.00    +0.159 HD
ENDROOT
BRANCH   1  10
ATOM     10  C   UNL     1      -4.155  15.366  13.443  0.00  0.00    +0.151 C 
BRANCH  10  11
ATOM     11  C   UNL     1      -2.817  14.687  13.349  0.00  0.00    -0.028 A 
ATOM     12  C   UNL     1      -1.832  14.916  14.321  0.00  0.00    +0.005 A 
ATOM     13  C   UNL     1      -2.529  13.809  12.293  0.00  0.00    +0.005 A 
ATOM     14  C   UNL     1      -0.600  14.261  14.250  0.00  0.00    +0.000 A 
ATOM     15  C   UNL     1      -1.297  13.158  12.225  0.00  0.00    +0.000 A 
ATOM     16  C   UNL     1      -0.334  13.383  13.205  0.00  0.00    +0.000 A 
ENDBRANCH  10  11
ENDBRANCH   1  10
TORSDOF 2
ENDMDL
MODEL 7
REMARK VINA RESULT:    -4.564     23.695     24.965
REMARK INTER + INTRA:          -5.220
REMARK INTER:                  -5.089
REMARK INTRA:                  -0.131
REMARK UNBOUND:                -0.122
REMARK  Name = 1550473
REMARK  2 active torsions:
REMARK  status: ('A' for Active; 'I' for Inactive)
REMARK    1  A    between atoms: N_1  and  C_4
REMARK    2  A    between atoms: C_4  and  C_5
REMARK                            x       y       z     vdW  Elec       q    Type
REMARK                         _______ _______ _______ _____ _____    ______ ____
ROOT
ATOM      1  N   UNL     1     -10.595  -6.434  -4.399  0.00  0.00    -0.354 N 
ATOM      2  N   UNL     1     -10.962  -7.077  -6.594  0.00  0.00    -0.372 N 
ATOM      3  N   UNL     1     -10.603  -4.858  -6.134  0.00  0.00    -0.372 N 
ATOM      4  C   UNL     1     -10.718  -6.116  -5.695  0.00  0.00    +0.166 C 
ATOM      5  H   UNL     1     -10.723  -7.402  -4.127  0.00  0.00    +0.163 HD
ATOM      6  H   UNL     1     -11.057  -6.868  -7.579  0.00  0.00    +0.159 HD
ATOM      7  H   UNL     1     -11.044  -8.050  -6.325  0.00  0.00    +0.159 HD
ATOM      8  H   UNL     1     -10.425  -4.086  -5.505  0.00  0.00    +0.159 HD
ATOM      9  H   UNL     1     -10.706  -4.627  -7.114  0.00  0.00    +0.159 HD
ENDROOT
BRANCH   1  10
ATOM     10  C   UNL     1     -10.276  -5.470  -3.348  0.00  0.00    +0.151 C 
BRANCH  10  11
ATOM     11  C   UNL     1      -9.320  -6.104  -2.375  0.00  0.00    -0.028 A 
ATOM     12  C   UNL     1      -9.217  -7.500  -2.284  0.00  0.00    +0.005 A 
ATOM     13  C   UNL     1      -8.510  -5.314  -1.544  0.00  0.00    +0.005 A 
ATOM     14  C   UNL     1      -8.308  -8.089  -1.402  0.00  0.00    +0.000 A 
ATOM     15  C   UNL     1      -7.604  -5.906  -0.664  0.00  0.00    +0.000 A 
ATOM     16  C   UNL     1      -7.502  -7.293  -0.595  0.00  0.00    +0.000 A 
ENDBRANCH  10  11
ENDBRANCH   1  10
TORSDOF 2
ENDMDL
MODEL 8
REMARK VINA RESULT:    -4.338     13.028     14.042
REMARK INTER + INTRA:          -4.967
REMARK INTER:                  -4.828
REMARK INTRA:                  -0.140
REMARK UNBOUND:                -0.122
REMARK  Name = 1550473
REMARK  2 active torsions:
REMARK  status: ('A' for Active; 'I' for Inactive)
REMARK    1  A    between atoms: N_1  and  C_4
REMARK    2  A    between atoms: C_4  and  C_5
REMARK                            x       y       z     vdW  Elec       q    Type
REMARK                         _______ _______ _______ _____ _____    ______ ____
ROOT
ATOM      1  N   UNL     1     -10.607  18.663   0.681  0.00  0.00    -0.354 N 
ATOM      2  N   UNL     1     -11.467  16.651  -0.079  0.00  0.00    -0.372 N 
ATOM      3  N   UNL     1     -10.351  16.693   1.925  0.00  0.00    -0.372 N 
ATOM      4  C   UNL     1     -10.801  17.348   0.850  0.00  0.00    +0.166 C 
ATOM      5  H   UNL     1     -10.947  19.094  -0.170  0.00  0.00    +0.163 HD
ATOM      6  H   UNL     1     -11.632  15.659   0.022  0.00  0.00    +0.159 HD
ATOM      7  H   UNL     1     -11.846  17.094  -0.907  0.00  0.00    +0.159 HD
ATOM      8  H   UNL     1      -9.836  17.160   2.660  0.00  0.00    +0.159 HD
ATOM      9  H   UNL     1     -10.496  15.698   2.039  0.00  0.00    +0.159 HD
ENDROOT
BRANCH   1  10
ATOM     10  C   UNL     1      -9.942  19.523   1.658  0.00  0.00    +0.151 C 
BRANCH  10  11
ATOM     11  C   UNL     1      -8.986  20.435   0.940  0.00  0.00    -0.028 A 
ATOM     12  C   UNL     1      -8.520  21.606   1.555  0.00  0.00    +0.005 A 
ATOM     13  C   UNL     1      -8.537  20.130  -0.355  0.00  0.00    +0.005 A 
ATOM     14  C   UNL     1      -7.609  22.438   0.900  0.00  0.00    +0.000 A 
ATOM     15  C   UNL     1      -7.628  20.964  -1.006  0.00  0.00    +0.000 A 
ATOM     16  C   UNL     1      -7.163  22.116  -0.378  0.00  0.00    +0.000 A 
ENDBRANCH  10  11
ENDBRANCH   1  10
TORSDOF 2
ENDMDL
MODEL 9
REMARK VINA RESULT:    -4.279     18.027     19.048
REMARK INTER + INTRA:          -4.901
REMARK INTER:                  -4.763
REMARK INTRA:                  -0.138
REMARK UNBOUND:                -0.122
REMARK  Name = 1550473
REMARK  2 active torsions:
REMARK  status: ('A' for Active; 'I' for Inactive)
REMARK    1  A    between atoms: N_1  and  C_4
REMARK    2  A    between atoms: C_4  and  C_5
REMARK                            x       y       z     vdW  Elec       q    Type
REMARK                         _______ _______ _______ _____ _____    ______ ____
ROOT
ATOM      1  N   UNL     1       4.959   0.529  14.752  0.00  0.00    -0.354 N 
ATOM      2  N   UNL     1       6.268   0.695  16.656  0.00  0.00    -0.372 N 
ATOM      3  N   UNL     1       7.115   1.444  14.660  0.00  0.00    -0.372 N 
ATOM      4  C   UNL     1       6.107   0.889  15.342  0.00  0.00    +0.166 C 
ATOM      5  H   UNL     1       4.246   0.085  15.319  0.00  0.00    +0.163 HD
ATOM      6  H   UNL     1       7.121   0.960  17.129  0.00  0.00    +0.159 HD
ATOM      7  H   UNL     1       5.535   0.294  17.229  0.00  0.00    +0.159 HD
ATOM      8  H   UNL     1       7.059   1.612  13.664  0.00  0.00    +0.159 HD
ATOM      9  H   UNL     1       7.982   1.705  15.113  0.00  0.00    +0.159 HD
ENDROOT
BRANCH   1  10
ATOM     10  C   UNL     1       4.664   0.746  13.337  0.00  0.00    +0.151 C 
BRANCH  10  11
ATOM     11  C   UNL     1       4.055  -0.505  12.765  0.00  0.00    -0.028 A 
ATOM     12  C   UNL     1       4.618  -1.760  13.039  0.00  0.00    +0.005 A 
ATOM     13  C   UNL     1       2.912  -0.442  11.954  0.00  0.00    +0.005 A 
ATOM     14  C   UNL     1       4.035  -2.924  12.533  0.00  0.00    +0.000 A 
ATOM     15  C   UNL     1       2.334  -1.606  11.449  0.00  0.00    +0.000 A 
ATOM     16  C   UNL     1       2.894  -2.848  11.741  0.00  0.00    +0.000 A 
ENDBRANCH  10  11
ENDBRANCH   1  10
TORSDOF 2
ENDMDL
