MODEL 1
REMARK VINA RESULT:    -4.739      0.000      0.000
REMARK INTER + INTRA:          -5.419
REMARK INTER:                  -5.293
REMARK INTRA:                  -0.126
REMARK UNBOUND:                -0.126
REMARK  Name = 1550473
REMARK  2 active torsions:
REMARK  status: ('A' for Active; 'I' for Inactive)
REMARK    1  A    between atoms: N_1  and  C_4
REMARK    2  A    between atoms: C_4  and  C_5
REMARK                            x       y       z     vdW  Elec       q    Type
REMARK                         _______ _______ _______ _____ _____    ______ ____
ROOT
ATOM      1  N   UNL     1     -12.752  -8.820 -26.445  0.00  0.00    -0.354 N 
ATOM      2  N   UNL     1     -14.092 -10.605 -25.826  0.00  0.00    -0.372 N 
ATOM      3  N   UNL     1     -14.796  -8.474 -25.351  0.00  0.00    -0.372 N 
ATOM      4  C   UNL     1     -13.873  -9.286 -25.877  0.00  0.00    +0.166 C 
ATOM      5  H   UNL     1     -12.077  -9.489 -26.798  0.00  0.00    +0.163 HD
ATOM      6  H   UNL     1     -14.929 -10.986 -25.408  0.00  0.00    +0.159 HD
ATOM      7  H   UNL     1     -13.437 -11.270 -26.221  0.00  0.00    +0.159 HD
ATOM      8  H   UNL     1     -14.688  -7.468 -25.352  0.00  0.00    +0.159 HD
ATOM      9  H   UNL     1     -15.635  -8.836 -24.917  0.00  0.00    +0.159 HD
ENDROOT
BRANCH   1  10
ATOM     10  C   UNL     1     -12.443  -7.399 -26.599  0.00  0.00    +0.151 C 
BRANCH  10  11
ATOM     11  C   UNL     1     -11.147  -7.100 -25.897  0.00  0.00    -0.028 A 
ATOM     12  C   UNL     1     -10.634  -7.987 -24.940  0.00  0.00    +0.005 A 
ATOM     13  C   UNL     1     -10.425  -5.932 -26.190  0.00  0.00    +0.005 A 
ATOM     14  C   UNL     1      -9.415  -7.724 -24.310  0.00  0.00    +0.000 A 
ATOM     15  C   UNL     1      -9.209  -5.673 -25.558  0.00  0.00    +0.000 A 
ATOM     16  C   UNL     1      -8.703  -6.570 -24.620  0.00  0.00    +0.000 A 
ENDBRANCH  10  11
ENDBRANCH   1  10
TORSDOF 2
ENDMDL
MODEL 2
REMARK VINA RESULT:    -4.726     44.904     46.091
REMARK INTER + INTRA:          -5.405
REMARK INTER:                  -5.274
REMARK INTRA:                  -0.131
REMARK UNBOUND:                -0.126
REMARK  Name = 1550473
REMARK  2 active torsions:
REMARK  status: ('A' for Active; 'I' for Inactive)
REMARK    1  A    between atoms: N_1  and  C_4
REMARK    2  A    between atoms: C_4  and  C_5
REMARK                            x       y       z     vdW  Elec       q    Type
REMARK                         _______ _______ _______ _____ _____    ______ ____
ROOT
ATOM      1  N   UNL     1       4.159 -11.149  18.291  0.00  0.00    -0.354 N 
ATOM      2  N   UNL     1       2.800 -12.466  19.626  0.00  0.00    -0.372 N 
ATOM      3  N   UNL     1       4.637 -11.460  20.564  0.00  0.00    -0.372 N 
ATOM      4  C   UNL     1       3.877 -11.682  19.487  0.00  0.00    +0.166 C 
ATOM      5  H   UNL     1       3.560 -11.381  17.507  0.00  0.00    +0.163 HD
ATOM      6  H   UNL     1       2.560 -12.879  20.517  0.00  0.00    +0.159 HD
ATOM      7  H   UNL     1       2.178 -12.658  18.851  0.00  0.00    +0.159 HD
ATOM      8  H   UNL     1       5.467 -10.882  20.524  0.00  0.00    +0.159 HD
ATOM      9  H   UNL     1       4.420 -11.874  21.461  0.00  0.00    +0.159 HD
ENDROOT
BRANCH   1  10
ATOM     10  C   UNL     1       5.277 -10.240  18.044  0.00  0.00    +0.151 C 
BRANCH  10  11
ATOM     11  C   UNL     1       5.761 -10.427  16.633  0.00  0.00    -0.028 A 
ATOM     12  C   UNL     1       5.087 -11.291  15.758  0.00  0.00    +0.005 A 
ATOM     13  C   UNL     1       6.890  -9.738  16.163  0.00  0.00    +0.005 A 
ATOM     14  C   UNL     1       5.518 -11.442  14.438  0.00  0.00    +0.000 A 
ATOM     15  C   UNL     1       7.318  -9.893  14.844  0.00  0.00    +0.000 A 
ATOM     16  C   UNL     1       6.630 -10.743  13.981  0.00  0.00    +0.000 A 
ENDBRANCH  10  11
ENDBRANCH   1  10
TORSDOF 2
ENDMDL
MODEL 3
REMARK VINA RESULT:    -4.538     49.676     50.956
REMARK INTER + INTRA:          -5.195
REMARK INTER:                  -5.057
REMARK INTRA:                  -0.138
REMARK UNBOUND:                -0.126
REMARK  Name = 1550473
REMARK  2 active torsions:
REMARK  status: ('A' for Active; 'I' for Inactive)
REMARK    1  A    between atoms: N_1  and  C_4
REMARK    2  A    between atoms: C_4  and  C_5
REMARK                            x       y       z     vdW  Elec       q    Type
REMARK                         _______ _______ _______ _____ _____    ______ ____
ROOT
ATOM      1  N   UNL     1       0.754  19.915  17.188  0.00  0.00    -0.354 N 
ATOM      2  N   UNL     1       2.581  21.321  17.406  0.00  0.00    -0.372 N 
ATOM      3  N   UNL     1       0.668  22.132  16.432  0.00  0.00    -0.372 N 
ATOM      4  C   UNL     1       1.321  21.115  17.006  0.00  0.00    +0.166 C 
ATOM      5  H   UNL     1       1.312  19.176  17.601  0.00  0.00    +0.163 HD
ATOM      6  H   UNL     1       3.034  22.216  17.285  0.00  0.00    +0.159 HD
ATOM      7  H   UNL     1       3.121  20.594  17.860  0.00  0.00    +0.159 HD
ATOM      8  H   UNL     1      -0.283  22.040  16.103  0.00  0.00    +0.159 HD
ATOM      9  H   UNL     1       1.109  23.032  16.292  0.00  0.00    +0.159 HD
ENDROOT
BRANCH   1  10
ATOM     10  C   UNL     1      -0.631  19.603  16.836  0.00  0.00    +0.151 C 
BRANCH  10  11
ATOM     11  C   UNL     1      -0.651  18.389  15.949  0.00  0.00    -0.028 A 
ATOM     12  C   UNL     1      -0.514  18.521  14.559  0.00  0.00    +0.005 A 
ATOM     13  C   UNL     1      -0.801  17.104  16.492  0.00  0.00    +0.005 A 
ATOM     14  C   UNL     1      -0.503  17.392  13.737  0.00  0.00    +0.000 A 
ATOM     15  C   UNL     1      -0.789  15.979  15.667  0.00  0.00    +0.000 A 
ATOM     16  C   UNL     1      -0.638  16.123  14.290  0.00  0.00    +0.000 A 
ENDBRANCH  10  11
ENDBRANCH   1  10
TORSDOF 2
ENDMDL
MODEL 4
REMARK VINA RESULT:    -4.281     11.309     11.702
REMARK INTER + INTRA:          -4.908
REMARK INTER:                  -4.778
REMARK INTRA:                  -0.130
REMARK UNBOUND:                -0.126
REMARK  Name = 1550473
REMARK  2 active torsions:
REMARK  status: ('A' for Active; 'I' for Inactive)
REMARK    1  A    between atoms: N_1  and  C_4
REMARK    2  A    between atoms: C_4  and  C_5
REMARK                            x       y       z     vdW  Elec       q    Type
REMARK                         _______ _______ _______ _____ _____    ______ ____
ROOT
ATOM      1  N   UNL     1     -21.309 -12.674 -25.597  0.00  0.00    -0.354 N 
ATOM      2  N   UNL     1     -21.811 -12.076 -23.417  0.00  0.00    -0.372 N 
ATOM      3  N   UNL     1     -22.739 -13.987 -24.285  0.00  0.00    -0.372 N 
ATOM      4  C   UNL     1     -21.951 -12.918 -24.448  0.00  0.00    +0.166 C 
ATOM      5  H   UNL     1     -20.751 -11.831 -25.667  0.00  0.00    +0.163 HD
ATOM      6  H   UNL     1     -22.280 -12.236 -22.536  0.00  0.00    +0.159 HD
ATOM      7  H   UNL     1     -21.215 -11.259 -23.474  0.00  0.00    +0.159 HD
ATOM      8  H   UNL     1     -22.892 -14.657 -25.026  0.00  0.00    +0.159 HD
ATOM      9  H   UNL     1     -23.227 -14.158 -23.414  0.00  0.00    +0.159 HD
ENDROOT
BRANCH   1  10
ATOM     10  C   UNL     1     -21.352 -13.556 -26.762  0.00  0.00    +0.151 C 
BRANCH  10  11
ATOM     11  C   UNL     1     -21.344 -12.721 -28.012  0.00  0.00    -0.028 A 
ATOM     12  C   UNL     1     -20.619 -13.133 -29.140  0.00  0.00    +0.005 A 
ATOM     13  C   UNL     1     -22.065 -11.518 -28.078  0.00  0.00    +0.005 A 
ATOM     14  C   UNL     1     -20.636 -12.372 -30.311  0.00  0.00    +0.000 A 
ATOM     15  C   UNL     1     -22.079 -10.761 -29.249  0.00  0.00    +0.000 A 
ATOM     16  C   UNL     1     -21.366 -11.190 -30.366  0.00  0.00    +0.000 A 
ENDBRANCH  10  11
ENDBRANCH   1  10
TORSDOF 2
ENDMDL
MODEL 5
REMARK VINA RESULT:    -4.263     29.201     29.970
REMARK INTER + INTRA:          -4.888
REMARK INTER:                  -4.764
REMARK INTRA:                  -0.124
REMARK UNBOUND:                -0.126
REMARK  Name = 1550473
REMARK  2 active torsions:
REMARK  status: ('A' for Active; 'I' for Inactive)
REMARK    1  A    between atoms: N_1  and  C_4
REMARK    2  A    between atoms: C_4  and  C_5
REMARK                            x       y       z     vdW  Elec       q    Type
REMARK                         _______ _______ _______ _____ _____    ______ ____
ROOT
ATOM      1  N   UNL     1      -3.999  -4.973   3.309  0.00  0.00    -0.354 N 
ATOM      2  N   UNL     1      -2.844  -4.566   5.275  0.00  0.00    -0.372 N 
ATOM      3  N   UNL     1      -2.539  -6.573   4.205  0.00  0.00    -0.372 N 
ATOM      4  C   UNL     1      -3.134  -5.376   4.250  0.00  0.00    +0.166 C 
ATOM      5  H   UNL     1      -4.439  -4.067   3.416  0.00  0.00    +0.163 HD
ATOM      6  H   UNL     1      -2.193  -4.841   5.998  0.00  0.00    +0.159 HD
ATOM      7  H   UNL     1      -3.251  -3.641   5.355  0.00  0.00    +0.159 HD
ATOM      8  H   UNL     1      -2.720  -7.233   3.461  0.00  0.00    +0.159 HD
ATOM      9  H   UNL     1      -1.894  -6.871   4.926  0.00  0.00    +0.159 HD
ENDROOT
BRANCH   1  10
ATOM     10  C   UNL     1      -4.342  -5.758   2.124  0.00  0.00    +0.151 C 
BRANCH  10  11
ATOM     11  C   UNL     1      -5.483  -6.678   2.458  0.00  0.00    -0.028 A 
ATOM     12  C   UNL     1      -5.311  -8.070   2.418  0.00  0.00    +0.005 A 
ATOM     13  C   UNL     1      -6.738  -6.165   2.820  0.00  0.00    +0.005 A 
ATOM     14  C   UNL     1      -6.363  -8.925   2.757  0.00  0.00    +0.000 A 
ATOM     15  C   UNL     1      -7.786  -7.022   3.157  0.00  0.00    +0.000 A 
ATOM     16  C   UNL     1      -7.597  -8.402   3.128  0.00  0.00    +0.000 A 
ENDBRANCH  10  11
ENDBRANCH   1  10
TORSDOF 2
ENDMDL
MODEL 6
REMARK VINA RESULT:    -4.119     36.334     37.249
REMARK INTER + INTRA:          -4.727
REMARK INTER:                  -4.619
REMARK INTRA:                  -0.108
REMARK UNBOUND:                -0.126
REMARK  Name = 1550473
REMARK  2 active torsions:
REMARK  status: ('A' for Active; 'I' for Inactive)
REMARK    1  A    between atoms: N_1  and  C_4
REMARK    2  A    between atoms: C_4  and  C_5
REMARK                            x       y       z     vdW  Elec       q    Type
REMARK                         _______ _______ _______ _____ _____    ______ ____
ROOT
ATOM      1  N   UNL     1     -12.961   7.567   6.446  0.00  0.00    -0.354 N 
ATOM      2  N   UNL     1     -13.181   8.707   4.442  0.00  0.00    -0.372 N 
ATOM      3  N   UNL     1     -11.251   7.532   4.843  0.00  0.00    -0.372 N 
ATOM      4  C   UNL     1     -12.460   7.927   5.257  0.00  0.00    +0.166 C 
ATOM      5  H   UNL     1     -13.871   7.924   6.714  0.00  0.00    +0.163 HD
ATOM      6  H   UNL     1     -12.831   8.992   3.537  0.00  0.00    +0.159 HD
ATOM      7  H   UNL     1     -14.110   9.025   4.693  0.00  0.00    +0.159 HD
ATOM      8  H   UNL     1     -10.655   6.948   5.413  0.00  0.00    +0.159 HD
ATOM      9  H   UNL     1     -10.879   7.817   3.946  0.00  0.00    +0.159 HD
ENDROOT
BRANCH   1  10
ATOM     10  C   UNL     1     -12.279   6.676   7.384  0.00  0.00    +0.151 C 
BRANCH  10  11
ATOM     11  C   UNL     1     -12.463   7.202   8.781  0.00  0.00    -0.028 A 
ATOM     12  C   UNL     1     -13.729   7.193   9.384  0.00  0.00    +0.005 A 
ATOM     13  C   UNL     1     -11.373   7.704   9.510  0.00  0.00    +0.005 A 
ATOM     14  C   UNL     1     -13.895   7.653  10.693  0.00  0.00    +0.000 A 
ATOM     15  C   UNL     1     -11.543   8.163  10.816  0.00  0.00    +0.000 A 
ATOM     16  C   UNL     1     -12.803   8.135  11.408  0.00  0.00    +0.000 A 
ENDBRANCH  10  11
ENDBRANCH   1  10
TORSDOF 2
ENDMDL
MODEL 7
REMARK VINA RESULT:    -3.951     28.548     29.653
REMARK INTER + INTRA:          -4.539
REMARK INTER:                  -4.393
REMARK INTRA:                  -0.146
REMARK UNBOUND:                -0.126
REMARK  Name = 1550473
REMARK  2 active torsions:
REMARK  status: ('A' for Active; 'I' for Inactive)
REMARK    1  A    between atoms: N_1  and  C_4
REMARK    2  A    between atoms: C_4  and  C_5
REMARK                            x       y       z     vdW  Elec       q    Type
REMARK                         _______ _______ _______ _____ _____    ______ ____
ROOT
ATOM      1  N   UNL     1      -4.787  -6.219   3.212  0.00  0.00    -0.354 N 
ATOM      2  N   UNL     1      -6.032  -7.897   2.212  0.00  0.00    -0.372 N 
ATOM      3  N   UNL     1      -4.009  -8.429   3.156  0.00  0.00    -0.372 N 
ATOM      4  C   UNL     1      -4.932  -7.505   2.867  0.00  0.00    +0.166 C 
ATOM      5  H   UNL     1      -5.509  -5.563   2.937  0.00  0.00    +0.163 HD
ATOM      6  H   UNL     1      -6.170  -8.861   1.942  0.00  0.00    +0.159 HD
ATOM      7  H   UNL     1      -6.773  -7.247   1.980  0.00  0.00    +0.159 HD
ATOM      8  H   UNL     1      -3.153  -8.197   3.643  0.00  0.00    +0.159 HD
ATOM      9  H   UNL     1      -4.124  -9.397   2.883  0.00  0.00    +0.159 HD
ENDROOT
BRANCH   1  10
ATOM     10  C   UNL     1      -3.653  -5.699   3.974  0.00  0.00    +0.151 C 
BRANCH  10  11
ATOM     11  C   UNL     1      -2.958  -4.642   3.160  0.00  0.00    -0.028 A 
ATOM     12  C   UNL     1      -1.738  -4.100   3.591  0.00  0.00    +0.005 A 
ATOM     13  C   UNL     1      -3.512  -4.182   1.956  0.00  0.00    +0.005 A 
ATOM     14  C   UNL     1      -1.077  -3.140   2.821  0.00  0.00    +0.000 A 
ATOM     15  C   UNL     1      -2.849  -3.223   1.190  0.00  0.00    +0.000 A 
ATOM     16  C   UNL     1      -1.631  -2.704   1.622  0.00  0.00    +0.000 A 
ENDBRANCH  10  11
ENDBRANCH   1  10
TORSDOF 2
ENDMDL
MODEL 8
REMARK VINA RESULT:    -3.950     22.059     23.288
REMARK INTER + INTRA:          -4.538
REMARK INTER:                  -4.412
REMARK INTRA:                  -0.126
REMARK UNBOUND:                -0.126
REMARK  Name = 1550473
REMARK  2 active torsions:
REMARK  status: ('A' for Active; 'I' for Inactive)
REMARK    1  A    between atoms: N_1  and  C_4
REMARK    2  A    between atoms: C_4  and  C_5
REMARK                            x       y       z     vdW  Elec       q    Type
REMARK                         _______ _______ _______ _____ _____    ______ ____
ROOT
ATOM      1  N   UNL     1      -1.825  -9.893  -5.270  0.00  0.00    -0.354 N 
ATOM      2  N   UNL     1       0.354  -9.376  -4.677  0.00  0.00    -0.372 N 
ATOM      3  N   UNL     1      -0.645 -11.216  -3.737  0.00  0.00    -0.372 N 
ATOM      4  C   UNL     1      -0.720 -10.167  -4.563  0.00  0.00    +0.166 C 
ATOM      5  H   UNL     1      -1.828  -9.066  -5.856  0.00  0.00    +0.163 HD
ATOM      6  H   UNL     1       1.203  -9.560  -4.160  0.00  0.00    +0.159 HD
ATOM      7  H   UNL     1       0.363  -8.577  -5.299  0.00  0.00    +0.159 HD
ATOM      8  H   UNL     1      -1.423 -11.848  -3.601  0.00  0.00    +0.159 HD
ATOM      9  H   UNL     1       0.192 -11.409  -3.201  0.00  0.00    +0.159 HD
ENDROOT
BRANCH   1  10
ATOM     10  C   UNL     1      -3.029 -10.721  -5.259  0.00  0.00    +0.151 C 
BRANCH  10  11
ATOM     11  C   UNL     1      -4.158  -9.938  -4.648  0.00  0.00    -0.028 A 
ATOM     12  C   UNL     1      -3.994  -9.300  -3.410  0.00  0.00    +0.005 A 
ATOM     13  C   UNL     1      -5.393  -9.825  -5.305  0.00  0.00    +0.005 A 
ATOM     14  C   UNL     1      -5.033  -8.547  -2.856  0.00  0.00    +0.000 A 
ATOM     15  C   UNL     1      -6.428  -9.074  -4.749  0.00  0.00    +0.000 A 
ATOM     16  C   UNL     1      -6.247  -8.433  -3.525  0.00  0.00    +0.000 A 
ENDBRANCH  10  11
ENDBRANCH   1  10
TORSDOF 2
ENDMDL
MODEL 9
REMARK VINA RESULT:    -3.760     11.841     12.374
REMARK INTER + INTRA:          -4.326
REMARK INTER:                  -4.216
REMARK INTRA:                  -0.110
REMARK UNBOUND:                -0.126
REMARK  Name = 1550473
REMARK  2 active torsions:
REMARK  status: ('A' for Active; 'I' for Inactive)
REMARK    1  A    between atoms: N_1  and  C_4
REMARK    2  A    between atoms: C_4  and  C_5
REMARK                            x       y       z     vdW  Elec       q    Type
REMARK                         _______ _______ _______ _____ _____    ______ ____
ROOT
ATOM      1  N   UNL     1     -24.039 -11.772 -27.081  0.00  0.00    -0.354 N 
ATOM      2  N   UNL     1     -25.799 -12.585 -25.813  0.00  0.00    -0.372 N 
ATOM      3  N   UNL     1     -24.948 -10.510 -25.328  0.00  0.00    -0.372 N 
ATOM      4  C   UNL     1     -24.917 -11.615 -26.081  0.00  0.00    +0.166 C 
ATOM      5  H   UNL     1     -24.047 -12.646 -27.595  0.00  0.00    +0.163 HD
ATOM      6  H   UNL     1     -26.475 -12.493 -25.067  0.00  0.00    +0.159 HD
ATOM      7  H   UNL     1     -25.834 -13.438 -26.358  0.00  0.00    +0.159 HD
ATOM      8  H   UNL     1     -24.305  -9.743 -25.475  0.00  0.00    +0.159 HD
ATOM      9  H   UNL     1     -25.610 -10.405 -24.569  0.00  0.00    +0.159 HD
ENDROOT
BRANCH   1  10
ATOM     10  C   UNL     1     -23.073 -10.754 -27.489  0.00  0.00    +0.151 C 
BRANCH  10  11
ATOM     11  C   UNL     1     -22.143 -11.342 -28.514  0.00  0.00    -0.028 A 
ATOM     12  C   UNL     1     -21.537 -12.588 -28.294  0.00  0.00    +0.005 A 
ATOM     13  C   UNL     1     -21.868 -10.661 -29.710  0.00  0.00    +0.005 A 
ATOM     14  C   UNL     1     -20.696 -13.148 -29.259  0.00  0.00    +0.000 A 
ATOM     15  C   UNL     1     -21.028 -11.224 -30.671  0.00  0.00    +0.000 A 
ATOM     16  C   UNL     1     -20.444 -12.468 -30.446  0.00  0.00    +0.000 A 
ENDBRANCH  10  11
ENDBRANCH   1  10
TORSDOF 2
ENDMDL
