MODEL 1
REMARK VINA RESULT:    -5.884      0.000      0.000
REMARK INTER + INTRA:          -6.669
REMARK INTER:                  -6.572
REMARK INTRA:                  -0.097
REMARK UNBOUND:                -0.097
REMARK  Name = 1550473
REMARK  2 active torsions:
REMARK  status: ('A' for Active; 'I' for Inactive)
REMARK    1  A    between atoms: N_1  and  C_4
REMARK    2  A    between atoms: C_4  and  C_5
REMARK                            x       y       z     vdW  Elec       q    Type
REMARK                         _______ _______ _______ _____ _____    ______ ____
ROOT
ATOM      1  N   UNL     1       6.031  -2.979   2.535  0.00  0.00    -0.354 N 
ATOM      2  N   UNL     1       7.185  -3.593   4.447  0.00  0.00    -0.372 N 
ATOM      3  N   UNL     1       4.895  -3.735   4.440  0.00  0.00    -0.372 N 
ATOM      4  C   UNL     1       6.026  -3.432   3.796  0.00  0.00    +0.166 C 
ATOM      5  H   UNL     1       6.920  -2.738   2.113  0.00  0.00    +0.163 HD
ATOM      6  H   UNL     1       7.213  -3.936   5.397  0.00  0.00    +0.159 HD
ATOM      7  H   UNL     1       8.075  -3.395   4.006  0.00  0.00    +0.159 HD
ATOM      8  H   UNL     1       3.987  -3.629   4.007  0.00  0.00    +0.159 HD
ATOM      9  H   UNL     1       4.902  -4.068   5.396  0.00  0.00    +0.159 HD
ENDROOT
BRANCH   1  10
ATOM     10  C   UNL     1       4.828  -2.819   1.720  0.00  0.00    +0.151 C 
BRANCH  10  11
ATOM     11  C   UNL     1       5.215  -2.265   0.376  0.00  0.00    -0.028 A 
ATOM     12  C   UNL     1       5.705  -0.956   0.260  0.00  0.00    +0.005 A 
ATOM     13  C   UNL     1       5.100  -3.046  -0.784  0.00  0.00    +0.005 A 
ATOM     14  C   UNL     1       6.093  -0.451  -0.984  0.00  0.00    +0.000 A 
ATOM     15  C   UNL     1       5.488  -2.539  -2.024  0.00  0.00    +0.000 A 
ATOM     16  C   UNL     1       5.987  -1.242  -2.123  0.00  0.00    +0.000 A 
ENDBRANCH  10  11
ENDBRANCH   1  10
TORSDOF 2
ENDMDL
MODEL 2
REMARK VINA RESULT:    -5.783      3.147      4.507
REMARK INTER + INTRA:          -6.556
REMARK INTER:                  -6.384
REMARK INTRA:                  -0.172
REMARK UNBOUND:                -0.097
REMARK  Name = 1550473
REMARK  2 active torsions:
REMARK  status: ('A' for Active; 'I' for Inactive)
REMARK    1  A    between atoms: N_1  and  C_4
REMARK    2  A    between atoms: C_4  and  C_5
REMARK                            x       y       z     vdW  Elec       q    Type
REMARK                         _______ _______ _______ _____ _____    ______ ____
ROOT
ATOM      1  N   UNL     1       4.923  -4.587  -1.192  0.00  0.00    -0.354 N 
ATOM      2  N   UNL     1       4.587  -6.858  -1.503  0.00  0.00    -0.372 N 
ATOM      3  N   UNL     1       6.532  -6.149  -0.513  0.00  0.00    -0.372 N 
ATOM      4  C   UNL     1       5.352  -5.850  -1.066  0.00  0.00    +0.166 C 
ATOM      5  H   UNL     1       4.033  -4.425  -1.648  0.00  0.00    +0.163 HD
ATOM      6  H   UNL     1       4.883  -7.821  -1.418  0.00  0.00    +0.159 HD
ATOM      7  H   UNL     1       3.677  -6.695  -1.916  0.00  0.00    +0.159 HD
ATOM      8  H   UNL     1       7.159  -5.434  -0.168  0.00  0.00    +0.159 HD
ATOM      9  H   UNL     1       6.851  -7.107  -0.430  0.00  0.00    +0.159 HD
ENDROOT
BRANCH   1  10
ATOM     10  C   UNL     1       5.656  -3.422  -0.701  0.00  0.00    +0.151 C 
BRANCH  10  11
ATOM     11  C   UNL     1       4.946  -2.868   0.504  0.00  0.00    -0.028 A 
ATOM     12  C   UNL     1       3.806  -2.065   0.353  0.00  0.00    +0.005 A 
ATOM     13  C   UNL     1       5.406  -3.147   1.801  0.00  0.00    +0.005 A 
ATOM     14  C   UNL     1       3.129  -1.575   1.473  0.00  0.00    +0.000 A 
ATOM     15  C   UNL     1       4.728  -2.655   2.916  0.00  0.00    +0.000 A 
ATOM     16  C   UNL     1       3.588  -1.872   2.752  0.00  0.00    +0.000 A 
ENDBRANCH  10  11
ENDBRANCH   1  10
TORSDOF 2
ENDMDL
MODEL 3
REMARK VINA RESULT:    -5.585      1.397      2.211
REMARK INTER + INTRA:          -6.334
REMARK INTER:                  -6.196
REMARK INTRA:                  -0.138
REMARK UNBOUND:                -0.097
REMARK  Name = 1550473
REMARK  2 active torsions:
REMARK  status: ('A' for Active; 'I' for Inactive)
REMARK    1  A    between atoms: N_1  and  C_4
REMARK    2  A    between atoms: C_4  and  C_5
REMARK                            x       y       z     vdW  Elec       q    Type
REMARK                         _______ _______ _______ _____ _____    ______ ____
ROOT
ATOM      1  N   UNL     1       5.702  -1.446   1.154  0.00  0.00    -0.354 N 
ATOM      2  N   UNL     1       6.140  -3.142   2.670  0.00  0.00    -0.372 N 
ATOM      3  N   UNL     1       4.310  -3.326   1.298  0.00  0.00    -0.372 N 
ATOM      4  C   UNL     1       5.379  -2.628   1.697  0.00  0.00    +0.166 C 
ATOM      5  H   UNL     1       6.508  -0.953   1.521  0.00  0.00    +0.163 HD
ATOM      6  H   UNL     1       5.923  -4.032   3.096  0.00  0.00    +0.159 HD
ATOM      7  H   UNL     1       6.971  -2.668   3.003  0.00  0.00    +0.159 HD
ATOM      8  H   UNL     1       3.691  -2.990   0.572  0.00  0.00    +0.159 HD
ATOM      9  H   UNL     1       4.069  -4.214   1.721  0.00  0.00    +0.159 HD
ENDROOT
BRANCH   1  10
ATOM     10  C   UNL     1       4.971  -0.825   0.052  0.00  0.00    +0.151 C 
BRANCH  10  11
ATOM     11  C   UNL     1       5.699  -1.095  -1.236  0.00  0.00    -0.028 A 
ATOM     12  C   UNL     1       6.582  -0.144  -1.767  0.00  0.00    +0.005 A 
ATOM     13  C   UNL     1       5.515  -2.303  -1.926  0.00  0.00    +0.005 A 
ATOM     14  C   UNL     1       7.282  -0.407  -2.947  0.00  0.00    +0.000 A 
ATOM     15  C   UNL     1       6.215  -2.561  -3.105  0.00  0.00    +0.000 A 
ATOM     16  C   UNL     1       7.100  -1.614  -3.614  0.00  0.00    +0.000 A 
ENDBRANCH  10  11
ENDBRANCH   1  10
TORSDOF 2
ENDMDL
MODEL 4
REMARK VINA RESULT:    -5.463      3.081      4.659
REMARK INTER + INTRA:          -6.198
REMARK INTER:                  -6.055
REMARK INTRA:                  -0.144
REMARK UNBOUND:                -0.097
REMARK  Name = 1550473
REMARK  2 active torsions:
REMARK  status: ('A' for Active; 'I' for Inactive)
REMARK    1  A    between atoms: N_1  and  C_4
REMARK    2  A    between atoms: C_4  and  C_5
REMARK                            x       y       z     vdW  Elec       q    Type
REMARK                         _______ _______ _______ _____ _____    ______ ____
ROOT
ATOM      1  N   UNL     1       6.332  -0.502  -0.585  0.00  0.00    -0.354 N 
ATOM      2  N   UNL     1       5.241   0.063   1.378  0.00  0.00    -0.372 N 
ATOM      3  N   UNL     1       4.204  -1.355  -0.098  0.00  0.00    -0.372 N 
ATOM      4  C   UNL     1       5.264  -0.603   0.218  0.00  0.00    +0.166 C 
ATOM      5  H   UNL     1       7.090   0.108  -0.302  0.00  0.00    +0.163 HD
ATOM      6  H   UNL     1       4.450   0.003   2.006  0.00  0.00    +0.159 HD
ATOM      7  H   UNL     1       6.020   0.636   1.680  0.00  0.00    +0.159 HD
ATOM      8  H   UNL     1       4.157  -1.877  -0.962  0.00  0.00    +0.159 HD
ATOM      9  H   UNL     1       3.398  -1.418   0.512  0.00  0.00    +0.159 HD
ENDROOT
BRANCH   1  10
ATOM     10  C   UNL     1       6.480  -1.228  -1.845  0.00  0.00    +0.151 C 
BRANCH  10  11
ATOM     11  C   UNL     1       6.877  -0.261  -2.926  0.00  0.00    -0.028 A 
ATOM     12  C   UNL     1       6.945  -0.677  -4.264  0.00  0.00    +0.005 A 
ATOM     13  C   UNL     1       7.182   1.074  -2.619  0.00  0.00    +0.005 A 
ATOM     14  C   UNL     1       7.285   0.228  -5.272  0.00  0.00    +0.000 A 
ATOM     15  C   UNL     1       7.522   1.974  -3.629  0.00  0.00    +0.000 A 
ATOM     16  C   UNL     1       7.571   1.552  -4.955  0.00  0.00    +0.000 A 
ENDBRANCH  10  11
ENDBRANCH   1  10
TORSDOF 2
ENDMDL
MODEL 5
REMARK VINA RESULT:    -5.378     14.516     15.897
REMARK INTER + INTRA:          -6.104
REMARK INTER:                  -6.006
REMARK INTRA:                  -0.098
REMARK UNBOUND:                -0.097
REMARK  Name = 1550473
REMARK  2 active torsions:
REMARK  status: ('A' for Active; 'I' for Inactive)
REMARK    1  A    between atoms: N_1  and  C_4
REMARK    2  A    between atoms: C_4  and  C_5
REMARK                            x       y       z     vdW  Elec       q    Type
REMARK                         _______ _______ _______ _____ _____    ______ ____
ROOT
ATOM      1  N   UNL     1       3.550   5.904  15.506  0.00  0.00    -0.354 N 
ATOM      2  N   UNL     1       1.848   6.798  16.797  0.00  0.00    -0.372 N 
ATOM      3  N   UNL     1       2.516   7.920  14.910  0.00  0.00    -0.372 N 
ATOM      4  C   UNL     1       2.649   6.871  15.727  0.00  0.00    +0.166 C 
ATOM      5  H   UNL     1       3.623   5.150  16.180  0.00  0.00    +0.163 HD
ATOM      6  H   UNL     1       1.156   7.511  16.987  0.00  0.00    +0.159 HD
ATOM      7  H   UNL     1       1.891   6.020  17.443  0.00  0.00    +0.159 HD
ATOM      8  H   UNL     1       3.095   8.037  14.089  0.00  0.00    +0.159 HD
ATOM      9  H   UNL     1       1.837   8.650  15.090  0.00  0.00    +0.159 HD
ENDROOT
BRANCH   1  10
ATOM     10  C   UNL     1       4.434   5.861  14.343  0.00  0.00    +0.151 C 
BRANCH  10  11
ATOM     11  C   UNL     1       4.939   4.456  14.162  0.00  0.00    -0.028 A 
ATOM     12  C   UNL     1       6.218   4.095  14.611  0.00  0.00    +0.005 A 
ATOM     13  C   UNL     1       4.141   3.479  13.546  0.00  0.00    +0.005 A 
ATOM     14  C   UNL     1       6.676   2.783  14.471  0.00  0.00    +0.000 A 
ATOM     15  C   UNL     1       4.603   2.170  13.407  0.00  0.00    +0.000 A 
ATOM     16  C   UNL     1       5.869   1.822  13.871  0.00  0.00    +0.000 A 
ENDBRANCH  10  11
ENDBRANCH   1  10
TORSDOF 2
ENDMDL
MODEL 6
REMARK VINA RESULT:    -5.304     16.862     19.186
REMARK INTER + INTRA:          -6.021
REMARK INTER:                  -5.856
REMARK INTRA:                  -0.164
REMARK UNBOUND:                -0.097
REMARK  Name = 1550473
REMARK  2 active torsions:
REMARK  status: ('A' for Active; 'I' for Inactive)
REMARK    1  A    between atoms: N_1  and  C_4
REMARK    2  A    between atoms: C_4  and  C_5
REMARK                            x       y       z     vdW  Elec       q    Type
REMARK                         _______ _______ _______ _____ _____    ______ ____
ROOT
ATOM      1  N   UNL     1       2.475   5.852  15.679  0.00  0.00    -0.354 N 
ATOM      2  N   UNL     1       3.303   6.503  13.616  0.00  0.00    -0.372 N 
ATOM      3  N   UNL     1       2.410   8.096  15.006  0.00  0.00    -0.372 N 
ATOM      4  C   UNL     1       2.723   6.815  14.781  0.00  0.00    +0.166 C 
ATOM      5  H   UNL     1       2.708   4.896  15.436  0.00  0.00    +0.163 HD
ATOM      6  H   UNL     1       3.505   7.209  12.921  0.00  0.00    +0.159 HD
ATOM      7  H   UNL     1       3.577   5.554  13.395  0.00  0.00    +0.159 HD
ATOM      8  H   UNL     1       1.965   8.396  15.863  0.00  0.00    +0.159 HD
ATOM      9  H   UNL     1       2.594   8.815  14.318  0.00  0.00    +0.159 HD
ENDROOT
BRANCH   1  10
ATOM     10  C   UNL     1       1.896   6.094  16.999  0.00  0.00    +0.151 C 
BRANCH  10  11
ATOM     11  C   UNL     1       2.968   5.937  18.042  0.00  0.00    -0.028 A 
ATOM     12  C   UNL     1       3.720   4.756  18.117  0.00  0.00    +0.005 A 
ATOM     13  C   UNL     1       3.240   6.967  18.955  0.00  0.00    +0.005 A 
ATOM     14  C   UNL     1       4.737   4.621  19.066  0.00  0.00    +0.000 A 
ATOM     15  C   UNL     1       4.254   6.828  19.901  0.00  0.00    +0.000 A 
ATOM     16  C   UNL     1       5.004   5.656  19.955  0.00  0.00    +0.000 A 
ENDBRANCH  10  11
ENDBRANCH   1  10
TORSDOF 2
ENDMDL
MODEL 7
REMARK VINA RESULT:    -5.285      3.133      4.405
REMARK INTER + INTRA:          -6.000
REMARK INTER:                  -5.909
REMARK INTRA:                  -0.091
REMARK UNBOUND:                -0.097
REMARK  Name = 1550473
REMARK  2 active torsions:
REMARK  status: ('A' for Active; 'I' for Inactive)
REMARK    1  A    between atoms: N_1  and  C_4
REMARK    2  A    between atoms: C_4  and  C_5
REMARK                            x       y       z     vdW  Elec       q    Type
REMARK                         _______ _______ _______ _____ _____    ______ ____
ROOT
ATOM      1  N   UNL     1       6.545  -4.469  -1.261  0.00  0.00    -0.354 N 
ATOM      2  N   UNL     1       8.282  -5.718  -2.148  0.00  0.00    -0.372 N 
ATOM      3  N   UNL     1       6.127  -6.242  -2.735  0.00  0.00    -0.372 N 
ATOM      4  C   UNL     1       6.971  -5.470  -2.043  0.00  0.00    +0.166 C 
ATOM      5  H   UNL     1       7.234  -3.940  -0.739  0.00  0.00    +0.163 HD
ATOM      6  H   UNL     1       8.634  -6.465  -2.733  0.00  0.00    +0.159 HD
ATOM      7  H   UNL     1       8.971  -5.159  -1.660  0.00  0.00    +0.159 HD
ATOM      8  H   UNL     1       5.125  -6.110  -2.695  0.00  0.00    +0.159 HD
ATOM      9  H   UNL     1       6.459  -7.001  -3.317  0.00  0.00    +0.159 HD
ENDROOT
BRANCH   1  10
ATOM     10  C   UNL     1       5.143  -4.081  -1.120  0.00  0.00    +0.151 C 
BRANCH  10  11
ATOM     11  C   UNL     1       5.055  -2.867  -0.237  0.00  0.00    -0.028 A 
ATOM     12  C   UNL     1       5.238  -1.584  -0.772  0.00  0.00    +0.005 A 
ATOM     13  C   UNL     1       4.784  -2.993   1.134  0.00  0.00    +0.005 A 
ATOM     14  C   UNL     1       5.127  -0.453   0.042  0.00  0.00    +0.000 A 
ATOM     15  C   UNL     1       4.675  -1.863   1.943  0.00  0.00    +0.000 A 
ATOM     16  C   UNL     1       4.844  -0.593   1.396  0.00  0.00    +0.000 A 
ENDBRANCH  10  11
ENDBRANCH   1  10
TORSDOF 2
ENDMDL
MODEL 8
REMARK VINA RESULT:    -5.249      2.406      3.776
REMARK INTER + INTRA:          -5.960
REMARK INTER:                  -5.832
REMARK INTRA:                  -0.128
REMARK UNBOUND:                -0.097
REMARK  Name = 1550473
REMARK  2 active torsions:
REMARK  status: ('A' for Active; 'I' for Inactive)
REMARK    1  A    between atoms: N_1  and  C_4
REMARK    2  A    between atoms: C_4  and  C_5
REMARK                            x       y       z     vdW  Elec       q    Type
REMARK                         _______ _______ _______ _____ _____    ______ ____
ROOT
ATOM      1  N   UNL     1       5.022  -2.691   0.305  0.00  0.00    -0.354 N 
ATOM      2  N   UNL     1       5.548  -2.442   2.547  0.00  0.00    -0.372 N 
ATOM      3  N   UNL     1       7.183  -2.085   0.978  0.00  0.00    -0.372 N 
ATOM      4  C   UNL     1       5.917  -2.407   1.261  0.00  0.00    +0.166 C 
ATOM      5  H   UNL     1       4.085  -2.958   0.587  0.00  0.00    +0.163 HD
ATOM      6  H   UNL     1       6.200  -2.229   3.290  0.00  0.00    +0.159 HD
ATOM      7  H   UNL     1       4.599  -2.664   2.824  0.00  0.00    +0.159 HD
ATOM      8  H   UNL     1       7.526  -2.046   0.027  0.00  0.00    +0.159 HD
ATOM      9  H   UNL     1       7.854  -1.880   1.708  0.00  0.00    +0.159 HD
ENDROOT
BRANCH   1  10
ATOM     10  C   UNL     1       5.307  -2.629  -1.127  0.00  0.00    +0.151 C 
BRANCH  10  11
ATOM     11  C   UNL     1       5.600  -4.016  -1.630  0.00  0.00    -0.028 A 
ATOM     12  C   UNL     1       6.355  -4.205  -2.797  0.00  0.00    +0.005 A 
ATOM     13  C   UNL     1       5.131  -5.144  -0.940  0.00  0.00    +0.005 A 
ATOM     14  C   UNL     1       6.653  -5.494  -3.247  0.00  0.00    +0.000 A 
ATOM     15  C   UNL     1       5.430  -6.429  -1.394  0.00  0.00    +0.000 A 
ATOM     16  C   UNL     1       6.193  -6.603  -2.546  0.00  0.00    +0.000 A 
ENDBRANCH  10  11
ENDBRANCH   1  10
TORSDOF 2
ENDMDL
MODEL 9
REMARK VINA RESULT:    -5.217     11.818     12.703
REMARK INTER + INTRA:          -5.924
REMARK INTER:                  -5.799
REMARK INTRA:                  -0.124
REMARK UNBOUND:                -0.097
REMARK  Name = 1550473
REMARK  2 active torsions:
REMARK  status: ('A' for Active; 'I' for Inactive)
REMARK    1  A    between atoms: N_1  and  C_4
REMARK    2  A    between atoms: C_4  and  C_5
REMARK                            x       y       z     vdW  Elec       q    Type
REMARK                         _______ _______ _______ _____ _____    ______ ____
ROOT
ATOM      1  N   UNL     1      -3.636   5.299  -1.197  0.00  0.00    -0.354 N 
ATOM      2  N   UNL     1      -4.735   3.260  -1.201  0.00  0.00    -0.372 N 
ATOM      3  N   UNL     1      -5.946   5.173  -0.825  0.00  0.00    -0.372 N 
ATOM      4  C   UNL     1      -4.767   4.592  -1.074  0.00  0.00    +0.166 C 
ATOM      5  H   UNL     1      -2.769   4.797  -1.355  0.00  0.00    +0.163 HD
ATOM      6  H   UNL     1      -5.573   2.701  -1.117  0.00  0.00    +0.159 HD
ATOM      7  H   UNL     1      -3.875   2.765  -1.405  0.00  0.00    +0.159 HD
ATOM      8  H   UNL     1      -6.037   6.173  -0.712  0.00  0.00    +0.159 HD
ATOM      9  H   UNL     1      -6.794   4.629  -0.726  0.00  0.00    +0.159 HD
ENDROOT
BRANCH   1  10
ATOM     10  C   UNL     1      -3.571   6.758  -1.129  0.00  0.00    +0.151 C 
BRANCH  10  11
ATOM     11  C   UNL     1      -2.132   7.181  -1.026  0.00  0.00    -0.028 A 
ATOM     12  C   UNL     1      -1.782   8.537  -1.101  0.00  0.00    +0.005 A 
ATOM     13  C   UNL     1      -1.114   6.232  -0.848  0.00  0.00    +0.005 A 
ATOM     14  C   UNL     1      -0.448   8.934  -0.975  0.00  0.00    +0.000 A 
ATOM     15  C   UNL     1       0.217   6.632  -0.724  0.00  0.00    +0.000 A 
ATOM     16  C   UNL     1       0.549   7.983  -0.785  0.00  0.00    +0.000 A 
ENDBRANCH  10  11
ENDBRANCH   1  10
TORSDOF 2
ENDMDL
