MODEL 1
REMARK VINA RESULT:    -5.912      0.000      0.000
REMARK INTER + INTRA:          -6.725
REMARK INTER:                  -6.603
REMARK INTRA:                  -0.122
REMARK UNBOUND:                -0.122
REMARK  Name = 1550473
REMARK  2 active torsions:
REMARK  status: ('A' for Active; 'I' for Inactive)
REMARK    1  A    between atoms: N_1  and  C_4
REMARK    2  A    between atoms: C_4  and  C_5
REMARK                            x       y       z     vdW  Elec       q    Type
REMARK                         _______ _______ _______ _____ _____    ______ ____
ROOT
ATOM      1  N   UNL     1       7.740  13.017  11.575  0.00  0.00    -0.354 N 
ATOM      2  N   UNL     1       7.703  14.293   9.643  0.00  0.00    -0.372 N 
ATOM      3  N   UNL     1       7.809  12.008   9.461  0.00  0.00    -0.372 N 
ATOM      4  C   UNL     1       7.751  13.095  10.238  0.00  0.00    +0.166 C 
ATOM      5  H   UNL     1       7.726  13.879  12.108  0.00  0.00    +0.163 HD
ATOM      6  H   UNL     1       7.707  14.383   8.636  0.00  0.00    +0.159 HD
ATOM      7  H   UNL     1       7.643  15.151  10.177  0.00  0.00    +0.159 HD
ATOM      8  H   UNL     1       7.853  11.075   9.848  0.00  0.00    +0.159 HD
ATOM      9  H   UNL     1       7.825  12.079   8.452  0.00  0.00    +0.159 HD
ENDROOT
BRANCH   1  10
ATOM     10  C   UNL     1       7.735  11.759  12.321  0.00  0.00    +0.151 C 
BRANCH  10  11
ATOM     11  C   UNL     1       6.874  11.917  13.544  0.00  0.00    -0.028 A 
ATOM     12  C   UNL     1       5.523  12.272  13.423  0.00  0.00    +0.005 A 
ATOM     13  C   UNL     1       7.403  11.707  14.827  0.00  0.00    +0.005 A 
ATOM     14  C   UNL     1       4.716  12.389  14.557  0.00  0.00    +0.000 A 
ATOM     15  C   UNL     1       6.594  11.826  15.957  0.00  0.00    +0.000 A 
ATOM     16  C   UNL     1       5.250  12.164  15.821  0.00  0.00    +0.000 A 
ENDBRANCH  10  11
ENDBRANCH   1  10
TORSDOF 2
ENDMDL
MODEL 2
REMARK VINA RESULT:    -5.796      3.038      4.712
REMARK INTER + INTRA:          -6.595
REMARK INTER:                  -6.482
REMARK INTRA:                  -0.113
REMARK UNBOUND:                -0.122
REMARK  Name = 1550473
REMARK  2 active torsions:
REMARK  status: ('A' for Active; 'I' for Inactive)
REMARK    1  A    between atoms: N_1  and  C_4
REMARK    2  A    between atoms: C_4  and  C_5
REMARK                            x       y       z     vdW  Elec       q    Type
REMARK                         _______ _______ _______ _____ _____    ______ ____
ROOT
ATOM      1  N   UNL     1       4.937  14.484  13.077  0.00  0.00    -0.354 N 
ATOM      2  N   UNL     1       2.623  14.601  13.081  0.00  0.00    -0.372 N 
ATOM      3  N   UNL     1       3.632  12.574  13.457  0.00  0.00    -0.372 N 
ATOM      4  C   UNL     1       3.746  13.883  13.205  0.00  0.00    +0.166 C 
ATOM      5  H   UNL     1       4.955  15.473  12.856  0.00  0.00    +0.163 HD
ATOM      6  H   UNL     1       1.711  14.175  13.177  0.00  0.00    +0.159 HD
ATOM      7  H   UNL     1       2.645  15.598  12.907  0.00  0.00    +0.159 HD
ATOM      8  H   UNL     1       4.441  11.976  13.556  0.00  0.00    +0.159 HD
ATOM      9  H   UNL     1       2.728  12.128  13.544  0.00  0.00    +0.159 HD
ENDROOT
BRANCH   1  10
ATOM     10  C   UNL     1       6.219  13.803  13.247  0.00  0.00    +0.151 C 
BRANCH  10  11
ATOM     11  C   UNL     1       6.608  13.157  11.946  0.00  0.00    -0.028 A 
ATOM     12  C   UNL     1       6.578  13.889  10.750  0.00  0.00    +0.005 A 
ATOM     13  C   UNL     1       7.015  11.815  11.904  0.00  0.00    +0.005 A 
ATOM     14  C   UNL     1       6.968  13.298   9.546  0.00  0.00    +0.000 A 
ATOM     15  C   UNL     1       7.403  11.228  10.699  0.00  0.00    +0.000 A 
ATOM     16  C   UNL     1       7.382  11.971   9.521  0.00  0.00    +0.000 A 
ENDBRANCH  10  11
ENDBRANCH   1  10
TORSDOF 2
ENDMDL
MODEL 3
REMARK VINA RESULT:    -5.668     10.325     11.790
REMARK INTER + INTRA:          -6.453
REMARK INTER:                  -6.470
REMARK INTRA:                   0.017
REMARK UNBOUND:                -0.122
REMARK  Name = 1550473
REMARK  2 active torsions:
REMARK  status: ('A' for Active; 'I' for Inactive)
REMARK    1  A    between atoms: N_1  and  C_4
REMARK    2  A    between atoms: C_4  and  C_5
REMARK                            x       y       z     vdW  Elec       q    Type
REMARK                         _______ _______ _______ _____ _____    ______ ____
ROOT
ATOM      1  N   UNL     1      10.609   0.509   9.899  0.00  0.00    -0.354 N 
ATOM      2  N   UNL     1       8.587  -0.347  10.633  0.00  0.00    -0.372 N 
ATOM      3  N   UNL     1       9.918   0.783  12.122  0.00  0.00    -0.372 N 
ATOM      4  C   UNL     1       9.719   0.322  10.883  0.00  0.00    +0.166 C 
ATOM      5  H   UNL     1      10.413   0.108   8.989  0.00  0.00    +0.163 HD
ATOM      6  H   UNL     1       7.894  -0.501  11.354  0.00  0.00    +0.159 HD
ATOM      7  H   UNL     1       8.372  -0.707   9.711  0.00  0.00    +0.159 HD
ATOM      8  H   UNL     1      10.755   1.290  12.376  0.00  0.00    +0.159 HD
ATOM      9  H   UNL     1       9.243   0.629  12.860  0.00  0.00    +0.159 HD
ENDROOT
BRANCH   1  10
ATOM     10  C   UNL     1      11.849   1.270  10.053  0.00  0.00    +0.151 C 
BRANCH  10  11
ATOM     11  C   UNL     1      11.535   2.739   9.983  0.00  0.00    -0.028 A 
ATOM     12  C   UNL     1      12.262   3.659  10.753  0.00  0.00    +0.005 A 
ATOM     13  C   UNL     1      10.516   3.218   9.145  0.00  0.00    +0.005 A 
ATOM     14  C   UNL     1      11.991   5.027  10.666  0.00  0.00    +0.000 A 
ATOM     15  C   UNL     1      10.248   4.584   9.062  0.00  0.00    +0.000 A 
ATOM     16  C   UNL     1      10.988   5.488   9.821  0.00  0.00    +0.000 A 
ENDBRANCH  10  11
ENDBRANCH   1  10
TORSDOF 2
ENDMDL
MODEL 4
REMARK VINA RESULT:    -5.529      2.851      4.780
REMARK INTER + INTRA:          -6.298
REMARK INTER:                  -6.157
REMARK INTRA:                  -0.141
REMARK UNBOUND:                -0.122
REMARK  Name = 1550473
REMARK  2 active torsions:
REMARK  status: ('A' for Active; 'I' for Inactive)
REMARK    1  A    between atoms: N_1  and  C_4
REMARK    2  A    between atoms: C_4  and  C_5
REMARK                            x       y       z     vdW  Elec       q    Type
REMARK                         _______ _______ _______ _____ _____    ______ ____
ROOT
ATOM      1  N   UNL     1       6.404  14.581  14.045  0.00  0.00    -0.354 N 
ATOM      2  N   UNL     1       6.145  16.702  14.938  0.00  0.00    -0.372 N 
ATOM      3  N   UNL     1       4.325  15.308  14.846  0.00  0.00    -0.372 N 
ATOM      4  C   UNL     1       5.624  15.515  14.604  0.00  0.00    +0.166 C 
ATOM      5  H   UNL     1       7.374  14.811  13.860  0.00  0.00    +0.163 HD
ATOM      6  H   UNL     1       5.582  17.426  15.364  0.00  0.00    +0.159 HD
ATOM      7  H   UNL     1       7.125  16.913  14.794  0.00  0.00    +0.159 HD
ATOM      8  H   UNL     1       3.869  14.436  14.612  0.00  0.00    +0.159 HD
ATOM      9  H   UNL     1       3.742  16.024  15.261  0.00  0.00    +0.159 HD
ENDROOT
BRANCH   1  10
ATOM     10  C   UNL     1       5.947  13.237  13.694  0.00  0.00    +0.151 C 
BRANCH  10  11
ATOM     11  C   UNL     1       6.402  12.913  12.298  0.00  0.00    -0.028 A 
ATOM     12  C   UNL     1       6.382  13.894  11.296  0.00  0.00    +0.005 A 
ATOM     13  C   UNL     1       6.861  11.627  11.972  0.00  0.00    +0.005 A 
ATOM     14  C   UNL     1       6.833  13.601  10.007  0.00  0.00    +0.000 A 
ATOM     15  C   UNL     1       7.310  11.339  10.684  0.00  0.00    +0.000 A 
ATOM     16  C   UNL     1       7.299  12.327   9.702  0.00  0.00    +0.000 A 
ENDBRANCH  10  11
ENDBRANCH   1  10
TORSDOF 2
ENDMDL
MODEL 5
REMARK VINA RESULT:    -5.485     10.720     12.019
REMARK INTER + INTRA:          -6.248
REMARK INTER:                  -6.067
REMARK INTRA:                  -0.182
REMARK UNBOUND:                -0.122
REMARK  Name = 1550473
REMARK  2 active torsions:
REMARK  status: ('A' for Active; 'I' for Inactive)
REMARK    1  A    between atoms: N_1  and  C_4
REMARK    2  A    between atoms: C_4  and  C_5
REMARK                            x       y       z     vdW  Elec       q    Type
REMARK                         _______ _______ _______ _____ _____    ______ ____
ROOT
ATOM      1  N   UNL     1      11.729   0.810   9.258  0.00  0.00    -0.354 N 
ATOM      2  N   UNL     1      12.090   0.123   7.076  0.00  0.00    -0.372 N 
ATOM      3  N   UNL     1      10.365   1.572   7.511  0.00  0.00    -0.372 N 
ATOM      4  C   UNL     1      11.390   0.841   7.962  0.00  0.00    +0.166 C 
ATOM      5  H   UNL     1      12.497   0.212   9.540  0.00  0.00    +0.163 HD
ATOM      6  H   UNL     1      11.859   0.129   6.091  0.00  0.00    +0.159 HD
ATOM      7  H   UNL     1      12.885  -0.438   7.354  0.00  0.00    +0.159 HD
ATOM      8  H   UNL     1       9.793   2.132   8.130  0.00  0.00    +0.159 HD
ATOM      9  H   UNL     1      10.112   1.582   6.531  0.00  0.00    +0.159 HD
ENDROOT
BRANCH   1  10
ATOM     10  C   UNL     1      11.065   1.598  10.296  0.00  0.00    +0.151 C 
BRANCH  10  11
ATOM     11  C   UNL     1      11.922   2.786  10.634  0.00  0.00    -0.028 A 
ATOM     12  C   UNL     1      12.985   2.663  11.541  0.00  0.00    +0.005 A 
ATOM     13  C   UNL     1      11.680   4.037  10.046  0.00  0.00    +0.005 A 
ATOM     14  C   UNL     1      13.799   3.760  11.832  0.00  0.00    +0.000 A 
ATOM     15  C   UNL     1      12.495   5.130  10.340  0.00  0.00    +0.000 A 
ATOM     16  C   UNL     1      13.556   4.991  11.231  0.00  0.00    +0.000 A 
ENDBRANCH  10  11
ENDBRANCH   1  10
TORSDOF 2
ENDMDL
MODEL 6
REMARK VINA RESULT:    -5.328     28.455     30.356
REMARK INTER + INTRA:          -6.073
REMARK INTER:                  -5.935
REMARK INTRA:                  -0.138
REMARK UNBOUND:                -0.122
REMARK  Name = 1550473
REMARK  2 active torsions:
REMARK  status: ('A' for Active; 'I' for Inactive)
REMARK    1  A    between atoms: N_1  and  C_4
REMARK    2  A    between atoms: C_4  and  C_5
REMARK                            x       y       z     vdW  Elec       q    Type
REMARK                         _______ _______ _______ _____ _____    ______ ____
ROOT
ATOM      1  N   UNL     1      -2.386   1.319 -15.457  0.00  0.00    -0.354 N 
ATOM      2  N   UNL     1      -1.628   1.870 -17.575  0.00  0.00    -0.372 N 
ATOM      3  N   UNL     1      -1.735  -0.342 -16.976  0.00  0.00    -0.372 N 
ATOM      4  C   UNL     1      -1.921   0.943 -16.655  0.00  0.00    +0.166 C 
ATOM      5  H   UNL     1      -2.475   2.310 -15.265  0.00  0.00    +0.163 HD
ATOM      6  H   UNL     1      -1.278   1.616 -18.489  0.00  0.00    +0.159 HD
ATOM      7  H   UNL     1      -1.762   2.858 -17.397  0.00  0.00    +0.159 HD
ATOM      8  H   UNL     1      -1.932  -1.090 -16.325  0.00  0.00    +0.159 HD
ATOM      9  H   UNL     1      -1.375  -0.616 -17.882  0.00  0.00    +0.159 HD
ENDROOT
BRANCH   1  10
ATOM     10  C   UNL     1      -2.786   0.386 -14.405  0.00  0.00    +0.151 C 
BRANCH  10  11
ATOM     11  C   UNL     1      -2.093   0.764 -13.124  0.00  0.00    -0.028 A 
ATOM     12  C   UNL     1      -0.841   1.394 -13.151  0.00  0.00    +0.005 A 
ATOM     13  C   UNL     1      -2.687   0.498 -11.881  0.00  0.00    +0.005 A 
ATOM     14  C   UNL     1      -0.211   1.772 -11.963  0.00  0.00    +0.000 A 
ATOM     15  C   UNL     1      -2.055   0.876 -10.697  0.00  0.00    +0.000 A 
ATOM     16  C   UNL     1      -0.818   1.515 -10.738  0.00  0.00    +0.000 A 
ENDBRANCH  10  11
ENDBRANCH   1  10
TORSDOF 2
ENDMDL
MODEL 7
REMARK VINA RESULT:    -5.306     32.669     34.082
REMARK INTER + INTRA:          -6.049
REMARK INTER:                  -5.887
REMARK INTRA:                  -0.162
REMARK UNBOUND:                -0.122
REMARK  Name = 1550473
REMARK  2 active torsions:
REMARK  status: ('A' for Active; 'I' for Inactive)
REMARK    1  A    between atoms: N_1  and  C_4
REMARK    2  A    between atoms: C_4  and  C_5
REMARK                            x       y       z     vdW  Elec       q    Type
REMARK                         _______ _______ _______ _____ _____    ______ ____
ROOT
ATOM      1  N   UNL     1     -12.418  -0.844 -10.159  0.00  0.00    -0.354 N 
ATOM      2  N   UNL     1     -11.717  -0.234  -8.037  0.00  0.00    -0.372 N 
ATOM      3  N   UNL     1     -13.154  -2.009  -8.263  0.00  0.00    -0.372 N 
ATOM      4  C   UNL     1     -12.436  -1.035  -8.833  0.00  0.00    +0.166 C 
ATOM      5  H   UNL     1     -11.877  -0.069 -10.526  0.00  0.00    +0.163 HD
ATOM      6  H   UNL     1     -11.708  -0.356  -7.034  0.00  0.00    +0.159 HD
ATOM      7  H   UNL     1     -11.141   0.511  -8.411  0.00  0.00    +0.159 HD
ATOM      8  H   UNL     1     -13.722  -2.644  -8.808  0.00  0.00    +0.159 HD
ATOM      9  H   UNL     1     -13.167  -2.140  -7.260  0.00  0.00    +0.159 HD
ENDROOT
BRANCH   1  10
ATOM     10  C   UNL     1     -13.123  -1.693 -11.117  0.00  0.00    +0.151 C 
BRANCH  10  11
ATOM     11  C   UNL     1     -12.114  -2.442 -11.944  0.00  0.00    -0.028 A 
ATOM     12  C   UNL     1     -11.752  -3.755 -11.608  0.00  0.00    +0.005 A 
ATOM     13  C   UNL     1     -11.522  -1.847 -13.068  0.00  0.00    +0.005 A 
ATOM     14  C   UNL     1     -10.838  -4.462 -12.393  0.00  0.00    +0.000 A 
ATOM     15  C   UNL     1     -10.609  -2.555 -13.849  0.00  0.00    +0.000 A 
ATOM     16  C   UNL     1     -10.269  -3.864 -13.513  0.00  0.00    +0.000 A 
ENDBRANCH  10  11
ENDBRANCH   1  10
TORSDOF 2
ENDMDL
MODEL 8
REMARK VINA RESULT:    -5.230     10.140     11.532
REMARK INTER + INTRA:          -5.964
REMARK INTER:                  -5.819
REMARK INTRA:                  -0.145
REMARK UNBOUND:                -0.122
REMARK  Name = 1550473
REMARK  2 active torsions:
REMARK  status: ('A' for Active; 'I' for Inactive)
REMARK    1  A    between atoms: N_1  and  C_4
REMARK    2  A    between atoms: C_4  and  C_5
REMARK                            x       y       z     vdW  Elec       q    Type
REMARK                         _______ _______ _______ _____ _____    ______ ____
ROOT
ATOM      1  N   UNL     1      13.530   5.058  10.633  0.00  0.00    -0.354 N 
ATOM      2  N   UNL     1      15.803   5.200  11.057  0.00  0.00    -0.372 N 
ATOM      3  N   UNL     1      14.391   4.609  12.766  0.00  0.00    -0.372 N 
ATOM      4  C   UNL     1      14.559   4.954  11.486  0.00  0.00    +0.166 C 
ATOM      5  H   UNL     1      13.721   5.354   9.683  0.00  0.00    +0.163 HD
ATOM      6  H   UNL     1      16.599   5.126  11.676  0.00  0.00    +0.159 HD
ATOM      7  H   UNL     1      15.995   5.450  10.095  0.00  0.00    +0.159 HD
ATOM      8  H   UNL     1      13.476   4.416  13.153  0.00  0.00    +0.159 HD
ATOM      9  H   UNL     1      15.174   4.541  13.404  0.00  0.00    +0.159 HD
ENDROOT
BRANCH   1  10
ATOM     10  C   UNL     1      12.143   4.760  10.986  0.00  0.00    +0.151 C 
BRANCH  10  11
ATOM     11  C   UNL     1      11.707   3.520  10.255  0.00  0.00    -0.028 A 
ATOM     12  C   UNL     1      12.289   2.279  10.549  0.00  0.00    +0.005 A 
ATOM     13  C   UNL     1      10.707   3.580   9.271  0.00  0.00    +0.005 A 
ATOM     14  C   UNL     1      11.862   1.122   9.891  0.00  0.00    +0.000 A 
ATOM     15  C   UNL     1      10.285   2.423   8.617  0.00  0.00    +0.000 A 
ATOM     16  C   UNL     1      10.861   1.194   8.929  0.00  0.00    +0.000 A 
ENDBRANCH  10  11
ENDBRANCH   1  10
TORSDOF 2
ENDMDL
MODEL 9
REMARK VINA RESULT:    -5.193     27.738     29.171
REMARK INTER + INTRA:          -5.923
REMARK INTER:                  -5.742
REMARK INTRA:                  -0.180
REMARK UNBOUND:                -0.122
REMARK  Name = 1550473
REMARK  2 active torsions:
REMARK  status: ('A' for Active; 'I' for Inactive)
REMARK    1  A    between atoms: N_1  and  C_4
REMARK    2  A    between atoms: C_4  and  C_5
REMARK                            x       y       z     vdW  Elec       q    Type
REMARK                         _______ _______ _______ _____ _____    ______ ____
ROOT
ATOM      1  N   UNL     1      -5.068   0.741 -10.520  0.00  0.00    -0.354 N 
ATOM      2  N   UNL     1      -7.131   1.658 -11.035  0.00  0.00    -0.372 N 
ATOM      3  N   UNL     1      -6.255   0.052 -12.420  0.00  0.00    -0.372 N 
ATOM      4  C   UNL     1      -6.137   0.809 -11.324  0.00  0.00    +0.166 C 
ATOM      5  H   UNL     1      -5.025   1.363  -9.722  0.00  0.00    +0.163 HD
ATOM      6  H   UNL     1      -7.952   1.730 -11.620  0.00  0.00    +0.159 HD
ATOM      7  H   UNL     1      -7.106   2.246 -10.211  0.00  0.00    +0.159 HD
ATOM      8  H   UNL     1      -5.538  -0.605 -12.697  0.00  0.00    +0.159 HD
ATOM      9  H   UNL     1      -7.064   0.117 -13.025  0.00  0.00    +0.159 HD
ENDROOT
BRANCH   1  10
ATOM     10  C   UNL     1      -3.956  -0.188 -10.716  0.00  0.00    +0.151 C 
BRANCH  10  11
ATOM     11  C   UNL     1      -2.784   0.561 -11.287  0.00  0.00    -0.028 A 
ATOM     12  C   UNL     1      -1.970   1.347 -10.457  0.00  0.00    +0.005 A 
ATOM     13  C   UNL     1      -2.478   0.486 -12.654  0.00  0.00    +0.005 A 
ATOM     14  C   UNL     1      -0.863   2.019 -10.981  0.00  0.00    +0.000 A 
ATOM     15  C   UNL     1      -1.373   1.160 -13.173  0.00  0.00    +0.000 A 
ATOM     16  C   UNL     1      -0.564   1.924 -12.336  0.00  0.00    +0.000 A 
ENDBRANCH  10  11
ENDBRANCH   1  10
TORSDOF 2
ENDMDL
