MODEL 1
REMARK VINA RESULT:    -6.101      0.000      0.000
REMARK INTER + INTRA:          -6.937
REMARK INTER:                  -6.814
REMARK INTRA:                  -0.123
REMARK UNBOUND:                -0.123
REMARK  Name = 1550473
REMARK  2 active torsions:
REMARK  status: ('A' for Active; 'I' for Inactive)
REMARK    1  A    between atoms: N_1  and  C_4
REMARK    2  A    between atoms: C_4  and  C_5
REMARK                            x       y       z     vdW  Elec       q    Type
REMARK                         _______ _______ _______ _____ _____    ______ ____
ROOT
ATOM      1  N   UNL     1      -4.201   2.722  -8.406  0.00  0.00    -0.354 N 
ATOM      2  N   UNL     1      -2.312   4.051  -8.235  0.00  0.00    -0.372 N 
ATOM      3  N   UNL     1      -2.751   3.000 -10.227  0.00  0.00    -0.372 N 
ATOM      4  C   UNL     1      -3.100   3.248  -8.960  0.00  0.00    +0.166 C 
ATOM      5  H   UNL     1      -4.394   2.925  -7.432  0.00  0.00    +0.163 HD
ATOM      6  H   UNL     1      -1.477   4.466  -8.627  0.00  0.00    +0.159 HD
ATOM      7  H   UNL     1      -2.532   4.289  -7.275  0.00  0.00    +0.159 HD
ATOM      8  H   UNL     1      -3.300   2.397 -10.825  0.00  0.00    +0.159 HD
ATOM      9  H   UNL     1      -1.913   3.396 -10.633  0.00  0.00    +0.159 HD
ENDROOT
BRANCH   1  10
ATOM     10  C   UNL     1      -5.154   1.879  -9.125  0.00  0.00    +0.151 C 
BRANCH  10  11
ATOM     11  C   UNL     1      -5.941   1.070  -8.131  0.00  0.00    -0.028 A 
ATOM     12  C   UNL     1      -5.341   0.617  -6.947  0.00  0.00    +0.005 A 
ATOM     13  C   UNL     1      -7.289   0.758  -8.365  0.00  0.00    +0.005 A 
ATOM     14  C   UNL     1      -6.080  -0.109  -6.010  0.00  0.00    +0.000 A 
ATOM     15  C   UNL     1      -8.023   0.032  -7.426  0.00  0.00    +0.000 A 
ATOM     16  C   UNL     1      -7.419  -0.399  -6.248  0.00  0.00    +0.000 A 
ENDBRANCH  10  11
ENDBRANCH   1  10
TORSDOF 2
ENDMDL
MODEL 2
REMARK VINA RESULT:    -6.004      1.772      2.666
REMARK INTER + INTRA:          -6.829
REMARK INTER:                  -6.738
REMARK INTRA:                  -0.091
REMARK UNBOUND:                -0.123
REMARK  Name = 1550473
REMARK  2 active torsions:
REMARK  status: ('A' for Active; 'I' for Inactive)
REMARK    1  A    between atoms: N_1  and  C_4
REMARK    2  A    between atoms: C_4  and  C_5
REMARK                            x       y       z     vdW  Elec       q    Type
REMARK                         _______ _______ _______ _____ _____    ______ ____
ROOT
ATOM      1  N   UNL     1      -4.731   0.412  -9.917  0.00  0.00    -0.354 N 
ATOM      2  N   UNL     1      -3.357  -0.398 -11.595  0.00  0.00    -0.372 N 
ATOM      3  N   UNL     1      -3.436   1.864 -11.222  0.00  0.00    -0.372 N 
ATOM      4  C   UNL     1      -3.850   0.634 -10.901  0.00  0.00    +0.166 C 
ATOM      5  H   UNL     1      -5.028  -0.541  -9.742  0.00  0.00    +0.163 HD
ATOM      6  H   UNL     1      -2.688  -0.262 -12.341  0.00  0.00    +0.159 HD
ATOM      7  H   UNL     1      -3.621  -1.354 -11.389  0.00  0.00    +0.159 HD
ATOM      8  H   UNL     1      -3.774   2.686 -10.740  0.00  0.00    +0.159 HD
ATOM      9  H   UNL     1      -2.775   2.022 -11.973  0.00  0.00    +0.159 HD
ENDROOT
BRANCH   1  10
ATOM     10  C   UNL     1      -5.287   1.462  -9.065  0.00  0.00    +0.151 C 
BRANCH  10  11
ATOM     11  C   UNL     1      -6.152   0.831  -8.008  0.00  0.00    -0.028 A 
ATOM     12  C   UNL     1      -7.511   0.585  -8.254  0.00  0.00    +0.005 A 
ATOM     13  C   UNL     1      -5.617   0.472  -6.762  0.00  0.00    +0.005 A 
ATOM     14  C   UNL     1      -8.307  -0.029  -7.284  0.00  0.00    +0.000 A 
ATOM     15  C   UNL     1      -6.415  -0.139  -5.796  0.00  0.00    +0.000 A 
ATOM     16  C   UNL     1      -7.760  -0.392  -6.058  0.00  0.00    +0.000 A 
ENDBRANCH  10  11
ENDBRANCH   1  10
TORSDOF 2
ENDMDL
MODEL 3
REMARK VINA RESULT:    -5.624      2.524      3.223
REMARK INTER + INTRA:          -6.405
REMARK INTER:                  -6.224
REMARK INTRA:                  -0.181
REMARK UNBOUND:                -0.123
REMARK  Name = 1550473
REMARK  2 active torsions:
REMARK  status: ('A' for Active; 'I' for Inactive)
REMARK    1  A    between atoms: N_1  and  C_4
REMARK    2  A    between atoms: C_4  and  C_5
REMARK                            x       y       z     vdW  Elec       q    Type
REMARK                         _______ _______ _______ _____ _____    ______ ____
ROOT
ATOM      1  N   UNL     1      -3.096   0.092 -10.731  0.00  0.00    -0.354 N 
ATOM      2  N   UNL     1      -3.384  -1.025 -12.739  0.00  0.00    -0.372 N 
ATOM      3  N   UNL     1      -4.507   0.946 -12.396  0.00  0.00    -0.372 N 
ATOM      4  C   UNL     1      -3.662   0.014 -11.942  0.00  0.00    +0.166 C 
ATOM      5  H   UNL     1      -2.488  -0.663 -10.434  0.00  0.00    +0.163 HD
ATOM      6  H   UNL     1      -3.794  -1.110 -13.659  0.00  0.00    +0.159 HD
ATOM      7  H   UNL     1      -2.741  -1.755 -12.458  0.00  0.00    +0.159 HD
ATOM      8  H   UNL     1      -4.762   1.752 -11.841  0.00  0.00    +0.159 HD
ATOM      9  H   UNL     1      -4.936   0.873 -13.310  0.00  0.00    +0.159 HD
ENDROOT
BRANCH   1  10
ATOM     10  C   UNL     1      -3.291   1.209  -9.808  0.00  0.00    +0.151 C 
BRANCH  10  11
ATOM     11  C   UNL     1      -4.262   0.797  -8.736  0.00  0.00    -0.028 A 
ATOM     12  C   UNL     1      -3.850  -0.029  -7.681  0.00  0.00    +0.005 A 
ATOM     13  C   UNL     1      -5.595   1.235  -8.768  0.00  0.00    +0.005 A 
ATOM     14  C   UNL     1      -4.744  -0.387  -6.669  0.00  0.00    +0.000 A 
ATOM     15  C   UNL     1      -6.485   0.874  -7.756  0.00  0.00    +0.000 A 
ATOM     16  C   UNL     1      -6.059   0.065  -6.706  0.00  0.00    +0.000 A 
ENDBRANCH  10  11
ENDBRANCH   1  10
TORSDOF 2
ENDMDL
MODEL 4
REMARK VINA RESULT:    -5.292      2.788      3.839
REMARK INTER + INTRA:          -6.034
REMARK INTER:                  -5.920
REMARK INTRA:                  -0.114
REMARK UNBOUND:                -0.123
REMARK  Name = 1550473
REMARK  2 active torsions:
REMARK  status: ('A' for Active; 'I' for Inactive)
REMARK    1  A    between atoms: N_1  and  C_4
REMARK    2  A    between atoms: C_4  and  C_5
REMARK                            x       y       z     vdW  Elec       q    Type
REMARK                         _______ _______ _______ _____ _____    ______ ____
ROOT
ATOM      1  N   UNL     1      -3.522   2.426 -10.200  0.00  0.00    -0.354 N 
ATOM      2  N   UNL     1      -1.676   3.801  -9.945  0.00  0.00    -0.372 N 
ATOM      3  N   UNL     1      -3.238   3.719  -8.266  0.00  0.00    -0.372 N 
ATOM      4  C   UNL     1      -2.825   3.307  -9.469  0.00  0.00    +0.166 C 
ATOM      5  H   UNL     1      -3.171   2.177 -11.117  0.00  0.00    +0.163 HD
ATOM      6  H   UNL     1      -1.127   4.465  -9.415  0.00  0.00    +0.159 HD
ATOM      7  H   UNL     1      -1.304   3.515 -10.843  0.00  0.00    +0.159 HD
ATOM      8  H   UNL     1      -4.100   3.388  -7.853  0.00  0.00    +0.159 HD
ATOM      9  H   UNL     1      -2.708   4.392  -7.726  0.00  0.00    +0.159 HD
ENDROOT
BRANCH   1  10
ATOM     10  C   UNL     1      -4.758   1.787  -9.750  0.00  0.00    +0.151 C 
BRANCH  10  11
ATOM     11  C   UNL     1      -5.227   0.826 -10.807  0.00  0.00    -0.028 A 
ATOM     12  C   UNL     1      -4.301   0.096 -11.567  0.00  0.00    +0.005 A 
ATOM     13  C   UNL     1      -6.596   0.636 -11.050  0.00  0.00    +0.005 A 
ATOM     14  C   UNL     1      -4.736  -0.819 -12.529  0.00  0.00    +0.000 A 
ATOM     15  C   UNL     1      -7.027  -0.278 -12.011  0.00  0.00    +0.000 A 
ATOM     16  C   UNL     1      -6.097  -1.007 -12.749  0.00  0.00    +0.000 A 
ENDBRANCH  10  11
ENDBRANCH   1  10
TORSDOF 2
ENDMDL
MODEL 5
REMARK VINA RESULT:    -4.788      5.455      6.984
REMARK INTER + INTRA:          -5.471
REMARK INTER:                  -5.358
REMARK INTRA:                  -0.113
REMARK UNBOUND:                -0.123
REMARK  Name = 1550473
REMARK  2 active torsions:
REMARK  status: ('A' for Active; 'I' for Inactive)
REMARK    1  A    between atoms: N_1  and  C_4
REMARK    2  A    between atoms: C_4  and  C_5
REMARK                            x       y       z     vdW  Elec       q    Type
REMARK                         _______ _______ _______ _____ _____    ______ ____
ROOT
ATOM      1  N   UNL     1     -10.780  -2.200  -9.103  0.00  0.00    -0.354 N 
ATOM      2  N   UNL     1     -12.733  -3.420  -8.862  0.00  0.00    -0.372 N 
ATOM      3  N   UNL     1     -11.403  -3.805 -10.692  0.00  0.00    -0.372 N 
ATOM      4  C   UNL     1     -11.625  -3.135  -9.556  0.00  0.00    +0.166 C 
ATOM      5  H   UNL     1     -11.020  -1.706  -8.251  0.00  0.00    +0.163 HD
ATOM      6  H   UNL     1     -13.388  -4.123  -9.178  0.00  0.00    +0.159 HD
ATOM      7  H   UNL     1     -12.948  -2.958  -7.987  0.00  0.00    +0.159 HD
ATOM      8  H   UNL     1     -10.588  -3.633 -11.265  0.00  0.00    +0.159 HD
ATOM      9  H   UNL     1     -12.053  -4.504 -11.030  0.00  0.00    +0.159 HD
ENDROOT
BRANCH   1  10
ATOM     10  C   UNL     1      -9.519  -1.852  -9.755  0.00  0.00    +0.151 C 
BRANCH  10  11
ATOM     11  C   UNL     1      -8.621  -1.172  -8.758  0.00  0.00    -0.028 A 
ATOM     12  C   UNL     1      -8.366  -1.762  -7.512  0.00  0.00    +0.005 A 
ATOM     13  C   UNL     1      -8.018   0.059  -9.057  0.00  0.00    +0.005 A 
ATOM     14  C   UNL     1      -7.508  -1.146  -6.597  0.00  0.00    +0.000 A 
ATOM     15  C   UNL     1      -7.163   0.672  -8.140  0.00  0.00    +0.000 A 
ATOM     16  C   UNL     1      -6.907   0.068  -6.912  0.00  0.00    +0.000 A 
ENDBRANCH  10  11
ENDBRANCH   1  10
TORSDOF 2
ENDMDL
MODEL 6
REMARK VINA RESULT:    -4.718      3.798      5.528
REMARK INTER + INTRA:          -5.392
REMARK INTER:                  -5.267
REMARK INTRA:                  -0.125
REMARK UNBOUND:                -0.123
REMARK  Name = 1550473
REMARK  2 active torsions:
REMARK  status: ('A' for Active; 'I' for Inactive)
REMARK    1  A    between atoms: N_1  and  C_4
REMARK    2  A    between atoms: C_4  and  C_5
REMARK                            x       y       z     vdW  Elec       q    Type
REMARK                         _______ _______ _______ _____ _____    ______ ____
ROOT
ATOM      1  N   UNL     1      -7.487  -0.584  -8.074  0.00  0.00    -0.354 N 
ATOM      2  N   UNL     1      -5.961   0.758  -6.962  0.00  0.00    -0.372 N 
ATOM      3  N   UNL     1      -7.464  -0.465  -5.733  0.00  0.00    -0.372 N 
ATOM      4  C   UNL     1      -6.982  -0.106  -6.928  0.00  0.00    +0.166 C 
ATOM      5  H   UNL     1      -7.097  -0.250  -8.948  0.00  0.00    +0.163 HD
ATOM      6  H   UNL     1      -5.557   1.132  -6.114  0.00  0.00    +0.159 HD
ATOM      7  H   UNL     1      -5.543   1.055  -7.836  0.00  0.00    +0.159 HD
ATOM      8  H   UNL     1      -8.238  -1.109  -5.639  0.00  0.00    +0.159 HD
ATOM      9  H   UNL     1      -7.081  -0.092  -4.874  0.00  0.00    +0.159 HD
ENDROOT
BRANCH   1  10
ATOM     10  C   UNL     1      -8.563  -1.570  -8.145  0.00  0.00    +0.151 C 
BRANCH  10  11
ATOM     11  C   UNL     1      -9.483  -1.213  -9.280  0.00  0.00    -0.028 A 
ATOM     12  C   UNL     1     -10.851  -1.512  -9.209  0.00  0.00    +0.005 A 
ATOM     13  C   UNL     1      -8.992  -0.571 -10.427  0.00  0.00    +0.005 A 
ATOM     14  C   UNL     1     -11.711  -1.154 -10.250  0.00  0.00    +0.000 A 
ATOM     15  C   UNL     1      -9.854  -0.216 -11.465  0.00  0.00    +0.000 A 
ATOM     16  C   UNL     1     -11.213  -0.505 -11.375  0.00  0.00    +0.000 A 
ENDBRANCH  10  11
ENDBRANCH   1  10
TORSDOF 2
ENDMDL
MODEL 7
REMARK VINA RESULT:    -4.602     14.166     15.036
REMARK INTER + INTRA:          -5.263
REMARK INTER:                  -5.110
REMARK INTRA:                  -0.153
REMARK UNBOUND:                -0.123
REMARK  Name = 1550473
REMARK  2 active torsions:
REMARK  status: ('A' for Active; 'I' for Inactive)
REMARK    1  A    between atoms: N_1  and  C_4
REMARK    2  A    between atoms: C_4  and  C_5
REMARK                            x       y       z     vdW  Elec       q    Type
REMARK                         _______ _______ _______ _____ _____    ______ ____
ROOT
ATOM      1  N   UNL     1      -5.341 -13.006  -9.824  0.00  0.00    -0.354 N 
ATOM      2  N   UNL     1      -6.140 -14.755  -8.532  0.00  0.00    -0.372 N 
ATOM      3  N   UNL     1      -5.529 -12.800  -7.497  0.00  0.00    -0.372 N 
ATOM      4  C   UNL     1      -5.664 -13.507  -8.624  0.00  0.00    +0.166 C 
ATOM      5  H   UNL     1      -5.439 -13.603 -10.637  0.00  0.00    +0.163 HD
ATOM      6  H   UNL     1      -6.396 -15.159  -7.641  0.00  0.00    +0.159 HD
ATOM      7  H   UNL     1      -6.280 -15.333  -9.352  0.00  0.00    +0.159 HD
ATOM      8  H   UNL     1      -5.170 -11.855  -7.497  0.00  0.00    +0.159 HD
ATOM      9  H   UNL     1      -5.768 -13.191  -6.594  0.00  0.00    +0.159 HD
ENDROOT
BRANCH   1  10
ATOM     10  C   UNL     1      -4.865 -11.640 -10.038  0.00  0.00    +0.151 C 
BRANCH  10  11
ATOM     11  C   UNL     1      -3.515 -11.689 -10.697  0.00  0.00    -0.028 A 
ATOM     12  C   UNL     1      -3.316 -11.108 -11.958  0.00  0.00    +0.005 A 
ATOM     13  C   UNL     1      -2.427 -12.309 -10.063  0.00  0.00    +0.005 A 
ATOM     14  C   UNL     1      -2.054 -11.127 -12.557  0.00  0.00    +0.000 A 
ATOM     15  C   UNL     1      -1.169 -12.326 -10.665  0.00  0.00    +0.000 A 
ATOM     16  C   UNL     1      -0.982 -11.733 -11.911  0.00  0.00    +0.000 A 
ENDBRANCH  10  11
ENDBRANCH   1  10
TORSDOF 2
ENDMDL
MODEL 8
REMARK VINA RESULT:    -4.485      3.223      4.154
REMARK INTER + INTRA:          -5.132
REMARK INTER:                  -4.995
REMARK INTRA:                  -0.137
REMARK UNBOUND:                -0.123
REMARK  Name = 1550473
REMARK  2 active torsions:
REMARK  status: ('A' for Active; 'I' for Inactive)
REMARK    1  A    between atoms: N_1  and  C_4
REMARK    2  A    between atoms: C_4  and  C_5
REMARK                            x       y       z     vdW  Elec       q    Type
REMARK                         _______ _______ _______ _____ _____    ______ ____
ROOT
ATOM      1  N   UNL     1      -4.847  -0.593 -12.096  0.00  0.00    -0.354 N 
ATOM      2  N   UNL     1      -2.837  -0.963 -13.185  0.00  0.00    -0.372 N 
ATOM      3  N   UNL     1      -4.322   0.541 -14.079  0.00  0.00    -0.372 N 
ATOM      4  C   UNL     1      -4.016  -0.334 -13.115  0.00  0.00    +0.166 C 
ATOM      5  H   UNL     1      -4.570  -1.290 -11.414  0.00  0.00    +0.163 HD
ATOM      6  H   UNL     1      -2.188  -0.785 -13.940  0.00  0.00    +0.159 HD
ATOM      7  H   UNL     1      -2.542  -1.624 -12.477  0.00  0.00    +0.159 HD
ATOM      8  H   UNL     1      -5.199   1.044 -14.087  0.00  0.00    +0.159 HD
ATOM      9  H   UNL     1      -3.691   0.723 -14.849  0.00  0.00    +0.159 HD
ENDROOT
BRANCH   1  10
ATOM     10  C   UNL     1      -6.131   0.076 -11.898  0.00  0.00    +0.151 C 
BRANCH  10  11
ATOM     11  C   UNL     1      -6.288   0.416 -10.441  0.00  0.00    -0.028 A 
ATOM     12  C   UNL     1      -7.561   0.462  -9.854  0.00  0.00    +0.005 A 
ATOM     13  C   UNL     1      -5.167   0.689  -9.642  0.00  0.00    +0.005 A 
ATOM     14  C   UNL     1      -7.705   0.748  -8.494  0.00  0.00    +0.000 A 
ATOM     15  C   UNL     1      -5.315   0.975  -8.285  0.00  0.00    +0.000 A 
ATOM     16  C   UNL     1      -6.584   1.002  -7.711  0.00  0.00    +0.000 A 
ENDBRANCH  10  11
ENDBRANCH   1  10
TORSDOF 2
ENDMDL
MODEL 9
REMARK VINA RESULT:    -4.470      5.281      6.566
REMARK INTER + INTRA:          -5.116
REMARK INTER:                  -4.951
REMARK INTRA:                  -0.164
REMARK UNBOUND:                -0.123
REMARK  Name = 1550473
REMARK  2 active torsions:
REMARK  status: ('A' for Active; 'I' for Inactive)
REMARK    1  A    between atoms: N_1  and  C_4
REMARK    2  A    between atoms: C_4  and  C_5
REMARK                            x       y       z     vdW  Elec       q    Type
REMARK                         _______ _______ _______ _____ _____    ______ ____
ROOT
ATOM      1  N   UNL     1     -11.005  -1.709  -9.226  0.00  0.00    -0.354 N 
ATOM      2  N   UNL     1     -12.885  -0.710 -10.137  0.00  0.00    -0.372 N 
ATOM      3  N   UNL     1     -11.097  -1.162 -11.502  0.00  0.00    -0.372 N 
ATOM      4  C   UNL     1     -11.648  -1.200 -10.285  0.00  0.00    +0.166 C 
ATOM      5  H   UNL     1     -11.466  -1.681  -8.323  0.00  0.00    +0.163 HD
ATOM      6  H   UNL     1     -13.396  -0.323 -10.919  0.00  0.00    +0.159 HD
ATOM      7  H   UNL     1     -13.361  -0.725  -9.244  0.00  0.00    +0.159 HD
ATOM      8  H   UNL     1     -10.164  -1.511 -11.679  0.00  0.00    +0.159 HD
ATOM      9  H   UNL     1     -11.588  -0.768 -12.295  0.00  0.00    +0.159 HD
ENDROOT
BRANCH   1  10
ATOM     10  C   UNL     1      -9.677  -2.317  -9.290  0.00  0.00    +0.151 C 
BRANCH  10  11
ATOM     11  C   UNL     1      -8.701  -1.443  -8.552  0.00  0.00    -0.028 A 
ATOM     12  C   UNL     1      -8.265  -0.233  -9.111  0.00  0.00    +0.005 A 
ATOM     13  C   UNL     1      -8.212  -1.817  -7.291  0.00  0.00    +0.005 A 
ATOM     14  C   UNL     1      -7.381   0.594  -8.412  0.00  0.00    +0.000 A 
ATOM     15  C   UNL     1      -7.329  -0.989  -6.597  0.00  0.00    +0.000 A 
ATOM     16  C   UNL     1      -6.916   0.217  -7.157  0.00  0.00    +0.000 A 
ENDBRANCH  10  11
ENDBRANCH   1  10
TORSDOF 2
ENDMDL
