MODEL 1
REMARK VINA RESULT:    -7.149      0.000      0.000
REMARK INTER + INTRA:          -8.119
REMARK INTER:                  -7.985
REMARK INTRA:                  -0.134
REMARK UNBOUND:                -0.134
REMARK  Name = 1550473
REMARK  2 active torsions:
REMARK  status: ('A' for Active; 'I' for Inactive)
REMARK    1  A    between atoms: N_1  and  C_4
REMARK    2  A    between atoms: C_4  and  C_5
REMARK                            x       y       z     vdW  Elec       q    Type
REMARK                         _______ _______ _______ _____ _____    ______ ____
ROOT
ATOM      1  N   UNL     1       4.752  -1.447   6.517  0.00  0.00    -0.354 N 
ATOM      2  N   UNL     1       4.499  -0.144   8.415  0.00  0.00    -0.372 N 
ATOM      3  N   UNL     1       5.123  -2.340   8.652  0.00  0.00    -0.372 N 
ATOM      4  C   UNL     1       4.794  -1.322   7.850  0.00  0.00    +0.166 C 
ATOM      5  H   UNL     1       4.466  -0.646   5.967  0.00  0.00    +0.163 HD
ATOM      6  H   UNL     1       4.526  -0.019   9.418  0.00  0.00    +0.159 HD
ATOM      7  H   UNL     1       4.258   0.667   7.860  0.00  0.00    +0.159 HD
ATOM      8  H   UNL     1       5.351  -3.256   8.289  0.00  0.00    +0.159 HD
ATOM      9  H   UNL     1       5.144  -2.237   9.659  0.00  0.00    +0.159 HD
ENDROOT
BRANCH   1  10
ATOM     10  C   UNL     1       5.107  -2.671   5.800  0.00  0.00    +0.151 C 
BRANCH  10  11
ATOM     11  C   UNL     1       3.941  -3.097   4.950  0.00  0.00    -0.028 A 
ATOM     12  C   UNL     1       3.191  -4.233   5.289  0.00  0.00    +0.005 A 
ATOM     13  C   UNL     1       3.579  -2.367   3.808  0.00  0.00    +0.005 A 
ATOM     14  C   UNL     1       2.090  -4.612   4.517  0.00  0.00    +0.000 A 
ATOM     15  C   UNL     1       2.480  -2.749   3.039  0.00  0.00    +0.000 A 
ATOM     16  C   UNL     1       1.734  -3.870   3.396  0.00  0.00    +0.000 A 
ENDBRANCH  10  11
ENDBRANCH   1  10
TORSDOF 2
ENDMDL
MODEL 2
REMARK VINA RESULT:    -6.988      1.115      1.959
REMARK INTER + INTRA:          -7.939
REMARK INTER:                  -7.796
REMARK INTRA:                  -0.143
REMARK UNBOUND:                -0.134
REMARK  Name = 1550473
REMARK  2 active torsions:
REMARK  status: ('A' for Active; 'I' for Inactive)
REMARK    1  A    between atoms: N_1  and  C_4
REMARK    2  A    between atoms: C_4  and  C_5
REMARK                            x       y       z     vdW  Elec       q    Type
REMARK                         _______ _______ _______ _____ _____    ______ ____
ROOT
ATOM      1  N   UNL     1       4.109  -3.415   7.071  0.00  0.00    -0.354 N 
ATOM      2  N   UNL     1       4.855  -1.673   8.403  0.00  0.00    -0.372 N 
ATOM      3  N   UNL     1       6.234  -2.479   6.757  0.00  0.00    -0.372 N 
ATOM      4  C   UNL     1       5.063  -2.534   7.400  0.00  0.00    +0.166 C 
ATOM      5  H   UNL     1       3.255  -3.425   7.618  0.00  0.00    +0.163 HD
ATOM      6  H   UNL     1       5.555  -0.994   8.671  0.00  0.00    +0.159 HD
ATOM      7  H   UNL     1       3.982  -1.655   8.917  0.00  0.00    +0.159 HD
ATOM      8  H   UNL     1       6.456  -3.106   5.994  0.00  0.00    +0.159 HD
ATOM      9  H   UNL     1       6.952  -1.816   7.018  0.00  0.00    +0.159 HD
ENDROOT
BRANCH   1  10
ATOM     10  C   UNL     1       4.215  -4.359   5.961  0.00  0.00    +0.151 C 
BRANCH  10  11
ATOM     11  C   UNL     1       3.345  -3.887   4.829  0.00  0.00    -0.028 A 
ATOM     12  C   UNL     1       3.725  -2.784   4.051  0.00  0.00    +0.005 A 
ATOM     13  C   UNL     1       2.141  -4.542   4.526  0.00  0.00    +0.005 A 
ATOM     14  C   UNL     1       2.932  -2.363   2.981  0.00  0.00    +0.000 A 
ATOM     15  C   UNL     1       1.352  -4.118   3.457  0.00  0.00    +0.000 A 
ATOM     16  C   UNL     1       1.749  -3.030   2.683  0.00  0.00    +0.000 A 
ENDBRANCH  10  11
ENDBRANCH   1  10
TORSDOF 2
ENDMDL
MODEL 3
REMARK VINA RESULT:    -6.587      1.820      2.386
REMARK INTER + INTRA:          -7.491
REMARK INTER:                  -7.326
REMARK INTRA:                  -0.165
REMARK UNBOUND:                -0.134
REMARK  Name = 1550473
REMARK  2 active torsions:
REMARK  status: ('A' for Active; 'I' for Inactive)
REMARK    1  A    between atoms: N_1  and  C_4
REMARK    2  A    between atoms: C_4  and  C_5
REMARK                            x       y       z     vdW  Elec       q    Type
REMARK                         _______ _______ _______ _____ _____    ______ ____
ROOT
ATOM      1  N   UNL     1       5.976  -2.569   5.581  0.00  0.00    -0.354 N 
ATOM      2  N   UNL     1       8.107  -3.424   5.275  0.00  0.00    -0.372 N 
ATOM      3  N   UNL     1       6.667  -4.514   6.690  0.00  0.00    -0.372 N 
ATOM      4  C   UNL     1       6.902  -3.498   5.853  0.00  0.00    +0.166 C 
ATOM      5  H   UNL     1       6.226  -1.807   4.961  0.00  0.00    +0.163 HD
ATOM      6  H   UNL     1       8.824  -4.112   5.458  0.00  0.00    +0.159 HD
ATOM      7  H   UNL     1       8.339  -2.687   4.620  0.00  0.00    +0.159 HD
ATOM      8  H   UNL     1       5.780  -4.624   7.163  0.00  0.00    +0.159 HD
ATOM      9  H   UNL     1       7.376  -5.206   6.895  0.00  0.00    +0.159 HD
ENDROOT
BRANCH   1  10
ATOM     10  C   UNL     1       4.616  -2.588   6.116  0.00  0.00    +0.151 C 
BRANCH  10  11
ATOM     11  C   UNL     1       3.660  -2.958   5.015  0.00  0.00    -0.028 A 
ATOM     12  C   UNL     1       2.886  -4.124   5.105  0.00  0.00    +0.005 A 
ATOM     13  C   UNL     1       3.520  -2.143   3.881  0.00  0.00    +0.005 A 
ATOM     14  C   UNL     1       1.977  -4.452   4.097  0.00  0.00    +0.000 A 
ATOM     15  C   UNL     1       2.612  -2.475   2.876  0.00  0.00    +0.000 A 
ATOM     16  C   UNL     1       1.839  -3.628   2.985  0.00  0.00    +0.000 A 
ENDBRANCH  10  11
ENDBRANCH   1  10
TORSDOF 2
ENDMDL
MODEL 4
REMARK VINA RESULT:    -5.901      2.679      4.637
REMARK INTER + INTRA:          -6.725
REMARK INTER:                  -6.543
REMARK INTRA:                  -0.181
REMARK UNBOUND:                -0.134
REMARK  Name = 1550473
REMARK  2 active torsions:
REMARK  status: ('A' for Active; 'I' for Inactive)
REMARK    1  A    between atoms: N_1  and  C_4
REMARK    2  A    between atoms: C_4  and  C_5
REMARK                            x       y       z     vdW  Elec       q    Type
REMARK                         _______ _______ _______ _____ _____    ______ ____
ROOT
ATOM      1  N   UNL     1       3.583  -2.584   3.747  0.00  0.00    -0.354 N 
ATOM      2  N   UNL     1       1.649  -3.821   3.438  0.00  0.00    -0.372 N 
ATOM      3  N   UNL     1       3.488  -4.846   4.352  0.00  0.00    -0.372 N 
ATOM      4  C   UNL     1       2.921  -3.744   3.848  0.00  0.00    +0.166 C 
ATOM      5  H   UNL     1       3.106  -1.793   3.329  0.00  0.00    +0.163 HD
ATOM      6  H   UNL     1       1.123  -4.682   3.505  0.00  0.00    +0.159 HD
ATOM      7  H   UNL     1       1.161  -3.017   3.062  0.00  0.00    +0.159 HD
ATOM      8  H   UNL     1       4.446  -4.856   4.674  0.00  0.00    +0.159 HD
ATOM      9  H   UNL     1       2.981  -5.721   4.416  0.00  0.00    +0.159 HD
ENDROOT
BRANCH   1  10
ATOM     10  C   UNL     1       4.953  -2.381   4.215  0.00  0.00    +0.151 C 
BRANCH  10  11
ATOM     11  C   UNL     1       4.917  -1.728   5.569  0.00  0.00    -0.028 A 
ATOM     12  C   UNL     1       5.519  -2.348   6.674  0.00  0.00    +0.005 A 
ATOM     13  C   UNL     1       4.289  -0.487   5.753  0.00  0.00    +0.005 A 
ATOM     14  C   UNL     1       5.513  -1.729   7.926  0.00  0.00    +0.000 A 
ATOM     15  C   UNL     1       4.284   0.128   7.005  0.00  0.00    +0.000 A 
ATOM     16  C   UNL     1       4.898  -0.492   8.090  0.00  0.00    +0.000 A 
ENDBRANCH  10  11
ENDBRANCH   1  10
TORSDOF 2
ENDMDL
MODEL 5
REMARK VINA RESULT:    -5.832     21.728     23.234
REMARK INTER + INTRA:          -6.648
REMARK INTER:                  -6.477
REMARK INTRA:                  -0.171
REMARK UNBOUND:                -0.134
REMARK  Name = 1550473
REMARK  2 active torsions:
REMARK  status: ('A' for Active; 'I' for Inactive)
REMARK    1  A    between atoms: N_1  and  C_4
REMARK    2  A    between atoms: C_4  and  C_5
REMARK                            x       y       z     vdW  Elec       q    Type
REMARK                         _______ _______ _______ _____ _____    ______ ____
ROOT
ATOM      1  N   UNL     1     -11.050   4.702 -11.681  0.00  0.00    -0.354 N 
ATOM      2  N   UNL     1     -10.567   2.874 -13.018  0.00  0.00    -0.372 N 
ATOM      3  N   UNL     1      -9.852   4.951 -13.680  0.00  0.00    -0.372 N 
ATOM      4  C   UNL     1     -10.492   4.190 -12.786  0.00  0.00    +0.166 C 
ATOM      5  H   UNL     1     -11.546   4.075 -11.058  0.00  0.00    +0.163 HD
ATOM      6  H   UNL     1     -10.152   2.458 -13.842  0.00  0.00    +0.159 HD
ATOM      7  H   UNL     1     -11.024   2.243 -12.371  0.00  0.00    +0.159 HD
ATOM      8  H   UNL     1      -9.766   5.952 -13.566  0.00  0.00    +0.159 HD
ATOM      9  H   UNL     1      -9.441   4.556 -14.516  0.00  0.00    +0.159 HD
ENDROOT
BRANCH   1  10
ATOM     10  C   UNL     1     -10.978   6.113 -11.308  0.00  0.00    +0.151 C 
BRANCH  10  11
ATOM     11  C   UNL     1      -9.935   6.286 -10.238  0.00  0.00    -0.028 A 
ATOM     12  C   UNL     1     -10.291   6.244  -8.882  0.00  0.00    +0.005 A 
ATOM     13  C   UNL     1      -8.587   6.486 -10.575  0.00  0.00    +0.005 A 
ATOM     14  C   UNL     1      -9.318   6.375  -7.889  0.00  0.00    +0.000 A 
ATOM     15  C   UNL     1      -7.619   6.617  -9.579  0.00  0.00    +0.000 A 
ATOM     16  C   UNL     1      -7.984   6.559  -8.237  0.00  0.00    +0.000 A 
ENDBRANCH  10  11
ENDBRANCH   1  10
TORSDOF 2
ENDMDL
MODEL 6
REMARK VINA RESULT:    -5.817     19.096     20.106
REMARK INTER + INTRA:          -6.631
REMARK INTER:                  -6.519
REMARK INTRA:                  -0.113
REMARK UNBOUND:                -0.134
REMARK  Name = 1550473
REMARK  2 active torsions:
REMARK  status: ('A' for Active; 'I' for Inactive)
REMARK    1  A    between atoms: N_1  and  C_4
REMARK    2  A    between atoms: C_4  and  C_5
REMARK                            x       y       z     vdW  Elec       q    Type
REMARK                         _______ _______ _______ _____ _____    ______ ____
ROOT
ATOM      1  N   UNL     1      -2.358  17.184   2.351  0.00  0.00    -0.354 N 
ATOM      2  N   UNL     1      -3.759  18.153   3.920  0.00  0.00    -0.372 N 
ATOM      3  N   UNL     1      -4.537  16.387   2.678  0.00  0.00    -0.372 N 
ATOM      4  C   UNL     1      -3.544  17.233   2.971  0.00  0.00    +0.166 C 
ATOM      5  H   UNL     1      -1.656  17.873   2.597  0.00  0.00    +0.163 HD
ATOM      6  H   UNL     1      -4.642  18.211   4.408  0.00  0.00    +0.159 HD
ATOM      7  H   UNL     1      -3.040  18.810   4.197  0.00  0.00    +0.159 HD
ATOM      8  H   UNL     1      -4.440  15.674   1.968  0.00  0.00    +0.159 HD
ATOM      9  H   UNL     1      -5.432  16.438   3.148  0.00  0.00    +0.159 HD
ENDROOT
BRANCH   1  10
ATOM     10  C   UNL     1      -2.003  16.188   1.341  0.00  0.00    +0.151 C 
BRANCH  10  11
ATOM     11  C   UNL     1      -0.552  15.827   1.496  0.00  0.00    -0.028 A 
ATOM     12  C   UNL     1       0.422  16.829   1.618  0.00  0.00    +0.005 A 
ATOM     13  C   UNL     1      -0.144  14.485   1.527  0.00  0.00    +0.005 A 
ATOM     14  C   UNL     1       1.767  16.494   1.792  0.00  0.00    +0.000 A 
ATOM     15  C   UNL     1       1.200  14.154   1.699  0.00  0.00    +0.000 A 
ATOM     16  C   UNL     1       2.155  15.159   1.834  0.00  0.00    +0.000 A 
ENDBRANCH  10  11
ENDBRANCH   1  10
TORSDOF 2
ENDMDL
MODEL 7
REMARK VINA RESULT:    -5.773     20.949     22.618
REMARK INTER + INTRA:          -6.582
REMARK INTER:                  -6.409
REMARK INTRA:                  -0.173
REMARK UNBOUND:                -0.134
REMARK  Name = 1550473
REMARK  2 active torsions:
REMARK  status: ('A' for Active; 'I' for Inactive)
REMARK    1  A    between atoms: N_1  and  C_4
REMARK    2  A    between atoms: C_4  and  C_5
REMARK                            x       y       z     vdW  Elec       q    Type
REMARK                         _______ _______ _______ _____ _____    ______ ____
ROOT
ATOM      1  N   UNL     1      -9.992   5.678 -11.649  0.00  0.00    -0.354 N 
ATOM      2  N   UNL     1     -11.018   3.768 -12.464  0.00  0.00    -0.372 N 
ATOM      3  N   UNL     1     -12.120   5.040 -10.904  0.00  0.00    -0.372 N 
ATOM      4  C   UNL     1     -11.038   4.842 -11.665  0.00  0.00    +0.166 C 
ATOM      5  H   UNL     1      -9.189   5.455 -12.226  0.00  0.00    +0.163 HD
ATOM      6  H   UNL     1     -11.794   3.121 -12.500  0.00  0.00    +0.159 HD
ATOM      7  H   UNL     1     -10.234   3.573 -13.074  0.00  0.00    +0.159 HD
ATOM      8  H   UNL     1     -12.196   5.829 -10.276  0.00  0.00    +0.159 HD
ATOM      9  H   UNL     1     -12.903   4.398 -10.918  0.00  0.00    +0.159 HD
ENDROOT
BRANCH   1  10
ATOM     10  C   UNL     1      -9.937   6.904 -10.855  0.00  0.00    +0.151 C 
BRANCH  10  11
ATOM     11  C   UNL     1      -9.215   6.623  -9.566  0.00  0.00    -0.028 A 
ATOM     12  C   UNL     1      -7.826   6.424  -9.557  0.00  0.00    +0.005 A 
ATOM     13  C   UNL     1      -9.912   6.561  -8.350  0.00  0.00    +0.005 A 
ATOM     14  C   UNL     1      -7.151   6.193  -8.356  0.00  0.00    +0.000 A 
ATOM     15  C   UNL     1      -9.234   6.330  -7.153  0.00  0.00    +0.000 A 
ATOM     16  C   UNL     1      -7.853   6.148  -7.156  0.00  0.00    +0.000 A 
ENDBRANCH  10  11
ENDBRANCH   1  10
TORSDOF 2
ENDMDL
MODEL 8
REMARK VINA RESULT:    -5.595     19.845     20.808
REMARK INTER + INTRA:          -6.383
REMARK INTER:                  -6.251
REMARK INTRA:                  -0.133
REMARK UNBOUND:                -0.134
REMARK  Name = 1550473
REMARK  2 active torsions:
REMARK  status: ('A' for Active; 'I' for Inactive)
REMARK    1  A    between atoms: N_1  and  C_4
REMARK    2  A    between atoms: C_4  and  C_5
REMARK                            x       y       z     vdW  Elec       q    Type
REMARK                         _______ _______ _______ _____ _____    ______ ____
ROOT
ATOM      1  N   UNL     1      -1.538  18.220   1.827  0.00  0.00    -0.354 N 
ATOM      2  N   UNL     1      -3.740  18.921   1.672  0.00  0.00    -0.372 N 
ATOM      3  N   UNL     1      -2.187  19.818   0.241  0.00  0.00    -0.372 N 
ATOM      4  C   UNL     1      -2.472  18.983   1.246  0.00  0.00    +0.166 C 
ATOM      5  H   UNL     1      -1.813  17.630   2.604  0.00  0.00    +0.163 HD
ATOM      6  H   UNL     1      -4.467  19.482   1.251  0.00  0.00    +0.159 HD
ATOM      7  H   UNL     1      -4.020  18.296   2.418  0.00  0.00    +0.159 HD
ATOM      8  H   UNL     1      -1.248  19.916  -0.123  0.00  0.00    +0.159 HD
ATOM      9  H   UNL     1      -2.899  20.397  -0.186  0.00  0.00    +0.159 HD
ENDROOT
BRANCH   1  10
ATOM     10  C   UNL     1      -0.140  18.173   1.402  0.00  0.00    +0.151 C 
BRANCH  10  11
ATOM     11  C   UNL     1       0.373  16.767   1.552  0.00  0.00    -0.028 A 
ATOM     12  C   UNL     1      -0.508  15.678   1.486  0.00  0.00    +0.005 A 
ATOM     13  C   UNL     1       1.739  16.518   1.753  0.00  0.00    +0.005 A 
ATOM     14  C   UNL     1      -0.029  14.370   1.595  0.00  0.00    +0.000 A 
ATOM     15  C   UNL     1       2.213  15.211   1.862  0.00  0.00    +0.000 A 
ATOM     16  C   UNL     1       1.330  14.137   1.780  0.00  0.00    +0.000 A 
ENDBRANCH  10  11
ENDBRANCH   1  10
TORSDOF 2
ENDMDL
MODEL 9
REMARK VINA RESULT:    -5.205      3.316      4.422
REMARK INTER + INTRA:          -5.947
REMARK INTER:                  -5.854
REMARK INTRA:                  -0.093
REMARK UNBOUND:                -0.134
REMARK  Name = 1550473
REMARK  2 active torsions:
REMARK  status: ('A' for Active; 'I' for Inactive)
REMARK    1  A    between atoms: N_1  and  C_4
REMARK    2  A    between atoms: C_4  and  C_5
REMARK                            x       y       z     vdW  Elec       q    Type
REMARK                         _______ _______ _______ _____ _____    ______ ____
ROOT
ATOM      1  N   UNL     1       5.803  -4.426   9.996  0.00  0.00    -0.354 N 
ATOM      2  N   UNL     1       6.343  -4.263  12.242  0.00  0.00    -0.372 N 
ATOM      3  N   UNL     1       4.688  -5.718  11.602  0.00  0.00    -0.372 N 
ATOM      4  C   UNL     1       5.606  -4.805  11.265  0.00  0.00    +0.166 C 
ATOM      5  H   UNL     1       6.493  -3.707   9.810  0.00  0.00    +0.163 HD
ATOM      6  H   UNL     1       6.219  -4.531  13.209  0.00  0.00    +0.159 HD
ATOM      7  H   UNL     1       7.064  -3.578  12.048  0.00  0.00    +0.159 HD
ATOM      8  H   UNL     1       4.095  -6.160  10.913  0.00  0.00    +0.159 HD
ATOM      9  H   UNL     1       4.541  -5.991  12.566  0.00  0.00    +0.159 HD
ENDROOT
BRANCH   1  10
ATOM     10  C   UNL     1       5.091  -4.994   8.853  0.00  0.00    +0.151 C 
BRANCH  10  11
ATOM     11  C   UNL     1       5.276  -4.094   7.662  0.00  0.00    -0.028 A 
ATOM     12  C   UNL     1       4.352  -3.074   7.390  0.00  0.00    +0.005 A 
ATOM     13  C   UNL     1       6.375  -4.253   6.805  0.00  0.00    +0.005 A 
ATOM     14  C   UNL     1       4.540  -2.219   6.302  0.00  0.00    +0.000 A 
ATOM     15  C   UNL     1       6.559  -3.398   5.719  0.00  0.00    +0.000 A 
ATOM     16  C   UNL     1       5.642  -2.379   5.469  0.00  0.00    +0.000 A 
ENDBRANCH  10  11
ENDBRANCH   1  10
TORSDOF 2
ENDMDL
