MODEL 1
REMARK VINA RESULT:    -5.482      0.000      0.000
REMARK INTER + INTRA:          -6.307
REMARK INTER:                  -6.123
REMARK INTRA:                  -0.183
REMARK UNBOUND:                -0.183
REMARK  Name = 1550473
REMARK  2 active torsions:
REMARK  status: ('A' for Active; 'I' for Inactive)
REMARK    1  A    between atoms: N_1  and  C_4
REMARK    2  A    between atoms: C_4  and  C_5
REMARK                            x       y       z     vdW  Elec       q    Type
REMARK                         _______ _______ _______ _____ _____    ______ ____
ROOT
ATOM      1  N   UNL     1       6.445   1.226   2.643  0.00  0.00    -0.354 N 
ATOM      2  N   UNL     1       6.457   3.068   4.047  0.00  0.00    -0.372 N 
ATOM      3  N   UNL     1       4.692   2.780   2.610  0.00  0.00    -0.372 N 
ATOM      4  C   UNL     1       5.863   2.347   3.089  0.00  0.00    +0.166 C 
ATOM      5  H   UNL     1       7.347   0.967   3.026  0.00  0.00    +0.163 HD
ATOM      6  H   UNL     1       6.040   3.916   4.406  0.00  0.00    +0.159 HD
ATOM      7  H   UNL     1       7.337   2.782   4.461  0.00  0.00    +0.159 HD
ATOM      8  H   UNL     1       4.195   2.285   1.882  0.00  0.00    +0.159 HD
ATOM      9  H   UNL     1       4.264   3.633   2.948  0.00  0.00    +0.159 HD
ENDROOT
BRANCH   1  10
ATOM     10  C   UNL     1       5.855   0.340   1.641  0.00  0.00    +0.151 C 
BRANCH  10  11
ATOM     11  C   UNL     1       5.215  -0.830   2.336  0.00  0.00    -0.028 A 
ATOM     12  C   UNL     1       5.998  -1.897   2.801  0.00  0.00    +0.005 A 
ATOM     13  C   UNL     1       3.827  -0.875   2.537  0.00  0.00    +0.005 A 
ATOM     14  C   UNL     1       5.407  -2.970   3.473  0.00  0.00    +0.000 A 
ATOM     15  C   UNL     1       3.241  -1.949   3.208  0.00  0.00    +0.000 A 
ATOM     16  C   UNL     1       4.032  -2.994   3.678  0.00  0.00    +0.000 A 
ENDBRANCH  10  11
ENDBRANCH   1  10
TORSDOF 2
ENDMDL
MODEL 2
REMARK VINA RESULT:    -5.433      2.534      4.623
REMARK INTER + INTRA:          -6.252
REMARK INTER:                  -6.119
REMARK INTRA:                  -0.133
REMARK UNBOUND:                -0.183
REMARK  Name = 1550473
REMARK  2 active torsions:
REMARK  status: ('A' for Active; 'I' for Inactive)
REMARK    1  A    between atoms: N_1  and  C_4
REMARK    2  A    between atoms: C_4  and  C_5
REMARK                            x       y       z     vdW  Elec       q    Type
REMARK                         _______ _______ _______ _____ _____    ______ ____
ROOT
ATOM      1  N   UNL     1       3.633  -0.411   2.492  0.00  0.00    -0.354 N 
ATOM      2  N   UNL     1       1.857  -1.289   3.691  0.00  0.00    -0.372 N 
ATOM      3  N   UNL     1       3.789  -2.514   3.514  0.00  0.00    -0.372 N 
ATOM      4  C   UNL     1       3.106  -1.401   3.225  0.00  0.00    +0.166 C 
ATOM      5  H   UNL     1       3.054   0.394   2.283  0.00  0.00    +0.163 HD
ATOM      6  H   UNL     1       1.434  -2.018   4.250  0.00  0.00    +0.159 HD
ATOM      7  H   UNL     1       1.296  -0.464   3.519  0.00  0.00    +0.159 HD
ATOM      8  H   UNL     1       4.734  -2.663   3.187  0.00  0.00    +0.159 HD
ATOM      9  H   UNL     1       3.379  -3.261   4.061  0.00  0.00    +0.159 HD
ENDROOT
BRANCH   1  10
ATOM     10  C   UNL     1       5.003  -0.411   1.982  0.00  0.00    +0.151 C 
BRANCH  10  11
ATOM     11  C   UNL     1       5.699   0.841   2.442  0.00  0.00    -0.028 A 
ATOM     12  C   UNL     1       7.018   0.790   2.915  0.00  0.00    +0.005 A 
ATOM     13  C   UNL     1       5.045   2.082   2.403  0.00  0.00    +0.005 A 
ATOM     14  C   UNL     1       7.675   1.956   3.314  0.00  0.00    +0.000 A 
ATOM     15  C   UNL     1       5.704   3.245   2.804  0.00  0.00    +0.000 A 
ATOM     16  C   UNL     1       7.019   3.182   3.256  0.00  0.00    +0.000 A 
ENDBRANCH  10  11
ENDBRANCH   1  10
TORSDOF 2
ENDMDL
MODEL 3
REMARK VINA RESULT:    -5.400      3.010      5.159
REMARK INTER + INTRA:          -6.215
REMARK INTER:                  -6.108
REMARK INTRA:                  -0.107
REMARK UNBOUND:                -0.183
REMARK  Name = 1550473
REMARK  2 active torsions:
REMARK  status: ('A' for Active; 'I' for Inactive)
REMARK    1  A    between atoms: N_1  and  C_4
REMARK    2  A    between atoms: C_4  and  C_5
REMARK                            x       y       z     vdW  Elec       q    Type
REMARK                         _______ _______ _______ _____ _____    ______ ____
ROOT
ATOM      1  N   UNL     1       5.649  -1.890   2.946  0.00  0.00    -0.354 N 
ATOM      2  N   UNL     1       4.434  -3.343   4.279  0.00  0.00    -0.372 N 
ATOM      3  N   UNL     1       5.615  -4.191   2.504  0.00  0.00    -0.372 N 
ATOM      4  C   UNL     1       5.241  -3.133   3.233  0.00  0.00    +0.166 C 
ATOM      5  H   UNL     1       5.306  -1.127   3.519  0.00  0.00    +0.163 HD
ATOM      6  H   UNL     1       4.113  -4.270   4.522  0.00  0.00    +0.159 HD
ATOM      7  H   UNL     1       4.129  -2.584   4.878  0.00  0.00    +0.159 HD
ATOM      8  H   UNL     1       6.218  -4.100   1.698  0.00  0.00    +0.159 HD
ATOM      9  H   UNL     1       5.294  -5.126   2.724  0.00  0.00    +0.159 HD
ENDROOT
BRANCH   1  10
ATOM     10  C   UNL     1       6.571  -1.561   1.861  0.00  0.00    +0.151 C 
BRANCH  10  11
ATOM     11  C   UNL     1       7.166  -0.204   2.117  0.00  0.00    -0.028 A 
ATOM     12  C   UNL     1       6.943   0.852   1.220  0.00  0.00    +0.005 A 
ATOM     13  C   UNL     1       7.949   0.035   3.256  0.00  0.00    +0.005 A 
ATOM     14  C   UNL     1       7.471   2.120   1.472  0.00  0.00    +0.000 A 
ATOM     15  C   UNL     1       8.475   1.303   3.504  0.00  0.00    +0.000 A 
ATOM     16  C   UNL     1       8.233   2.346   2.613  0.00  0.00    +0.000 A 
ENDBRANCH  10  11
ENDBRANCH   1  10
TORSDOF 2
ENDMDL
MODEL 4
REMARK VINA RESULT:    -5.265      2.243      3.284
REMARK INTER + INTRA:          -6.064
REMARK INTER:                  -5.898
REMARK INTRA:                  -0.165
REMARK UNBOUND:                -0.183
REMARK  Name = 1550473
REMARK  2 active torsions:
REMARK  status: ('A' for Active; 'I' for Inactive)
REMARK    1  A    between atoms: N_1  and  C_4
REMARK    2  A    between atoms: C_4  and  C_5
REMARK                            x       y       z     vdW  Elec       q    Type
REMARK                         _______ _______ _______ _____ _____    ______ ____
ROOT
ATOM      1  N   UNL     1       7.657   1.276   3.740  0.00  0.00    -0.354 N 
ATOM      2  N   UNL     1       6.376   3.177   4.072  0.00  0.00    -0.372 N 
ATOM      3  N   UNL     1       7.980   3.193   2.432  0.00  0.00    -0.372 N 
ATOM      4  C   UNL     1       7.348   2.537   3.410  0.00  0.00    +0.166 C 
ATOM      5  H   UNL     1       7.160   0.845   4.512  0.00  0.00    +0.163 HD
ATOM      6  H   UNL     1       6.118   4.128   3.843  0.00  0.00    +0.159 HD
ATOM      7  H   UNL     1       5.850   2.728   4.812  0.00  0.00    +0.159 HD
ATOM      8  H   UNL     1       8.727   2.769   1.898  0.00  0.00    +0.159 HD
ATOM      9  H   UNL     1       7.745   4.149   2.196  0.00  0.00    +0.159 HD
ENDROOT
BRANCH   1  10
ATOM     10  C   UNL     1       8.662   0.472   3.047  0.00  0.00    +0.151 C 
BRANCH  10  11
ATOM     11  C   UNL     1       7.973  -0.439   2.069  0.00  0.00    -0.028 A 
ATOM     12  C   UNL     1       6.734  -1.015   2.384  0.00  0.00    +0.005 A 
ATOM     13  C   UNL     1       8.552  -0.727   0.824  0.00  0.00    +0.005 A 
ATOM     14  C   UNL     1       6.079  -1.838   1.464  0.00  0.00    +0.000 A 
ATOM     15  C   UNL     1       7.896  -1.549  -0.092  0.00  0.00    +0.000 A 
ATOM     16  C   UNL     1       6.658  -2.103   0.228  0.00  0.00    +0.000 A 
ENDBRANCH  10  11
ENDBRANCH   1  10
TORSDOF 2
ENDMDL
MODEL 5
REMARK VINA RESULT:    -5.081      3.111      4.485
REMARK INTER + INTRA:          -5.859
REMARK INTER:                  -5.747
REMARK INTRA:                  -0.112
REMARK UNBOUND:                -0.183
REMARK  Name = 1550473
REMARK  2 active torsions:
REMARK  status: ('A' for Active; 'I' for Inactive)
REMARK    1  A    between atoms: N_1  and  C_4
REMARK    2  A    between atoms: C_4  and  C_5
REMARK                            x       y       z     vdW  Elec       q    Type
REMARK                         _______ _______ _______ _____ _____    ______ ____
ROOT
ATOM      1  N   UNL     1       3.938  -1.596   2.157  0.00  0.00    -0.354 N 
ATOM      2  N   UNL     1       2.386  -1.393   3.864  0.00  0.00    -0.372 N 
ATOM      3  N   UNL     1       3.449  -3.404   3.565  0.00  0.00    -0.372 N 
ATOM      4  C   UNL     1       3.268  -2.135   3.184  0.00  0.00    +0.166 C 
ATOM      5  H   UNL     1       3.734  -0.638   1.899  0.00  0.00    +0.163 HD
ATOM      6  H   UNL     1       1.868  -1.771   4.646  0.00  0.00    +0.159 HD
ATOM      7  H   UNL     1       2.217  -0.421   3.633  0.00  0.00    +0.159 HD
ATOM      8  H   UNL     1       4.096  -4.019   3.090  0.00  0.00    +0.159 HD
ATOM      9  H   UNL     1       2.931  -3.805   4.338  0.00  0.00    +0.159 HD
ENDROOT
BRANCH   1  10
ATOM     10  C   UNL     1       4.959  -2.303   1.386  0.00  0.00    +0.151 C 
BRANCH  10  11
ATOM     11  C   UNL     1       6.277  -1.597   1.552  0.00  0.00    -0.028 A 
ATOM     12  C   UNL     1       7.215  -1.584   0.509  0.00  0.00    +0.005 A 
ATOM     13  C   UNL     1       6.591  -0.934   2.749  0.00  0.00    +0.005 A 
ATOM     14  C   UNL     1       8.426  -0.903   0.653  0.00  0.00    +0.000 A 
ATOM     15  C   UNL     1       7.801  -0.255   2.888  0.00  0.00    +0.000 A 
ATOM     16  C   UNL     1       8.718  -0.238   1.839  0.00  0.00    +0.000 A 
ENDBRANCH  10  11
ENDBRANCH   1  10
TORSDOF 2
ENDMDL
MODEL 6
REMARK VINA RESULT:    -5.069      1.908      2.868
REMARK INTER + INTRA:          -5.845
REMARK INTER:                  -5.734
REMARK INTRA:                  -0.112
REMARK UNBOUND:                -0.183
REMARK  Name = 1550473
REMARK  2 active torsions:
REMARK  status: ('A' for Active; 'I' for Inactive)
REMARK    1  A    between atoms: N_1  and  C_4
REMARK    2  A    between atoms: C_4  and  C_5
REMARK                            x       y       z     vdW  Elec       q    Type
REMARK                         _______ _______ _______ _____ _____    ______ ____
ROOT
ATOM      1  N   UNL     1       7.120  -0.498   1.303  0.00  0.00    -0.354 N 
ATOM      2  N   UNL     1       9.432  -0.541   1.184  0.00  0.00    -0.372 N 
ATOM      3  N   UNL     1       8.421   0.963   2.592  0.00  0.00    -0.372 N 
ATOM      4  C   UNL     1       8.309  -0.023   1.695  0.00  0.00    +0.166 C 
ATOM      5  H   UNL     1       7.101  -1.225   0.597  0.00  0.00    +0.163 HD
ATOM      6  H   UNL     1      10.344  -0.205   1.464  0.00  0.00    +0.159 HD
ATOM      7  H   UNL     1       9.412  -1.299   0.513  0.00  0.00    +0.159 HD
ATOM      8  H   UNL     1       7.612   1.401   3.011  0.00  0.00    +0.159 HD
ATOM      9  H   UNL     1       9.325   1.321   2.876  0.00  0.00    +0.159 HD
ENDROOT
BRANCH   1  10
ATOM     10  C   UNL     1       5.839  -0.040   1.838  0.00  0.00    +0.151 C 
BRANCH  10  11
ATOM     11  C   UNL     1       5.148  -1.193   2.513  0.00  0.00    -0.028 A 
ATOM     12  C   UNL     1       3.754  -1.195   2.669  0.00  0.00    +0.005 A 
ATOM     13  C   UNL     1       5.881  -2.289   2.992  0.00  0.00    +0.005 A 
ATOM     14  C   UNL     1       3.109  -2.279   3.269  0.00  0.00    +0.000 A 
ATOM     15  C   UNL     1       5.233  -3.369   3.591  0.00  0.00    +0.000 A 
ATOM     16  C   UNL     1       3.847  -3.365   3.727  0.00  0.00    +0.000 A 
ENDBRANCH  10  11
ENDBRANCH   1  10
TORSDOF 2
ENDMDL
MODEL 7
REMARK VINA RESULT:    -5.049     16.691     17.691
REMARK INTER + INTRA:          -5.822
REMARK INTER:                  -5.686
REMARK INTRA:                  -0.136
REMARK UNBOUND:                -0.183
REMARK  Name = 1550473
REMARK  2 active torsions:
REMARK  status: ('A' for Active; 'I' for Inactive)
REMARK    1  A    between atoms: N_1  and  C_4
REMARK    2  A    between atoms: C_4  and  C_5
REMARK                            x       y       z     vdW  Elec       q    Type
REMARK                         _______ _______ _______ _____ _____    ______ ____
ROOT
ATOM      1  N   UNL     1      15.262  13.671   6.258  0.00  0.00    -0.354 N 
ATOM      2  N   UNL     1      16.994  12.445   7.185  0.00  0.00    -0.372 N 
ATOM      3  N   UNL     1      15.091  11.349   6.521  0.00  0.00    -0.372 N 
ATOM      4  C   UNL     1      15.769  12.494   6.648  0.00  0.00    +0.166 C 
ATOM      5  H   UNL     1      15.814  14.508   6.409  0.00  0.00    +0.163 HD
ATOM      6  H   UNL     1      17.405  11.571   7.485  0.00  0.00    +0.159 HD
ATOM      7  H   UNL     1      17.563  13.276   7.293  0.00  0.00    +0.159 HD
ATOM      8  H   UNL     1      14.159  11.319   6.129  0.00  0.00    +0.159 HD
ATOM      9  H   UNL     1      15.480  10.466   6.826  0.00  0.00    +0.159 HD
ENDROOT
BRANCH   1  10
ATOM     10  C   UNL     1      13.959  13.827   5.613  0.00  0.00    +0.151 C 
BRANCH  10  11
ATOM     11  C   UNL     1      13.091  14.710   6.466  0.00  0.00    -0.028 A 
ATOM     12  C   UNL     1      12.350  15.752   5.889  0.00  0.00    +0.005 A 
ATOM     13  C   UNL     1      13.000  14.507   7.852  0.00  0.00    +0.005 A 
ATOM     14  C   UNL     1      11.521  16.554   6.677  0.00  0.00    +0.000 A 
ATOM     15  C   UNL     1      12.171  15.310   8.635  0.00  0.00    +0.000 A 
ATOM     16  C   UNL     1      11.430  16.331   8.047  0.00  0.00    +0.000 A 
ENDBRANCH  10  11
ENDBRANCH   1  10
TORSDOF 2
ENDMDL
MODEL 8
REMARK VINA RESULT:    -5.004      2.959      5.235
REMARK INTER + INTRA:          -5.772
REMARK INTER:                  -5.593
REMARK INTRA:                  -0.180
REMARK UNBOUND:                -0.183
REMARK  Name = 1550473
REMARK  2 active torsions:
REMARK  status: ('A' for Active; 'I' for Inactive)
REMARK    1  A    between atoms: N_1  and  C_4
REMARK    2  A    between atoms: C_4  and  C_5
REMARK                            x       y       z     vdW  Elec       q    Type
REMARK                         _______ _______ _______ _____ _____    ______ ____
ROOT
ATOM      1  N   UNL     1       5.680  -1.260   1.299  0.00  0.00    -0.354 N 
ATOM      2  N   UNL     1       5.336  -2.114  -0.826  0.00  0.00    -0.372 N 
ATOM      3  N   UNL     1       7.441  -2.213   0.082  0.00  0.00    -0.372 N 
ATOM      4  C   UNL     1       6.158  -1.857   0.199  0.00  0.00    +0.166 C 
ATOM      5  H   UNL     1       4.703  -0.988   1.314  0.00  0.00    +0.163 HD
ATOM      6  H   UNL     1       5.667  -2.567  -1.668  0.00  0.00    +0.159 HD
ATOM      7  H   UNL     1       4.351  -1.883  -0.791  0.00  0.00    +0.159 HD
ATOM      8  H   UNL     1       8.114  -2.041   0.817  0.00  0.00    +0.159 HD
ATOM      9  H   UNL     1       7.794  -2.656  -0.757  0.00  0.00    +0.159 HD
ENDROOT
BRANCH   1  10
ATOM     10  C   UNL     1       6.478  -0.984   2.492  0.00  0.00    +0.151 C 
BRANCH  10  11
ATOM     11  C   UNL     1       6.906   0.457   2.474  0.00  0.00    -0.028 A 
ATOM     12  C   UNL     1       5.952   1.484   2.521  0.00  0.00    +0.005 A 
ATOM     13  C   UNL     1       8.265   0.803   2.415  0.00  0.00    +0.005 A 
ATOM     14  C   UNL     1       6.350   2.823   2.535  0.00  0.00    +0.000 A 
ATOM     15  C   UNL     1       8.659   2.141   2.428  0.00  0.00    +0.000 A 
ATOM     16  C   UNL     1       7.701   3.150   2.491  0.00  0.00    +0.000 A 
ENDBRANCH  10  11
ENDBRANCH   1  10
TORSDOF 2
ENDMDL
MODEL 9
REMARK VINA RESULT:    -4.986     20.627     22.083
REMARK INTER + INTRA:          -5.752
REMARK INTER:                  -5.583
REMARK INTRA:                  -0.169
REMARK UNBOUND:                -0.183
REMARK  Name = 1550473
REMARK  2 active torsions:
REMARK  status: ('A' for Active; 'I' for Inactive)
REMARK    1  A    between atoms: N_1  and  C_4
REMARK    2  A    between atoms: C_4  and  C_5
REMARK                            x       y       z     vdW  Elec       q    Type
REMARK                         _______ _______ _______ _____ _____    ______ ____
ROOT
ATOM      1  N   UNL     1     -14.094  -4.808  -2.119  0.00  0.00    -0.354 N 
ATOM      2  N   UNL     1     -13.750  -5.195   0.138  0.00  0.00    -0.372 N 
ATOM      3  N   UNL     1     -12.632  -6.489  -1.392  0.00  0.00    -0.372 N 
ATOM      4  C   UNL     1     -13.492  -5.497  -1.140  0.00  0.00    +0.166 C 
ATOM      5  H   UNL     1     -14.759  -4.087  -1.862  0.00  0.00    +0.163 HD
ATOM      6  H   UNL     1     -13.308  -5.696   0.898  0.00  0.00    +0.159 HD
ATOM      7  H   UNL     1     -14.380  -4.444   0.392  0.00  0.00    +0.159 HD
ATOM      8  H   UNL     1     -12.400  -6.770  -2.336  0.00  0.00    +0.159 HD
ATOM      9  H   UNL     1     -12.190  -7.010  -0.645  0.00  0.00    +0.159 HD
ENDROOT
BRANCH   1  10
ATOM     10  C   UNL     1     -13.842  -5.021  -3.543  0.00  0.00    +0.151 C 
BRANCH  10  11
ATOM     11  C   UNL     1     -15.081  -5.584  -4.182  0.00  0.00    -0.028 A 
ATOM     12  C   UNL     1     -15.307  -6.968  -4.200  0.00  0.00    +0.005 A 
ATOM     13  C   UNL     1     -16.037  -4.738  -4.766  0.00  0.00    +0.005 A 
ATOM     14  C   UNL     1     -16.473  -7.490  -4.767  0.00  0.00    +0.000 A 
ATOM     15  C   UNL     1     -17.199  -5.263  -5.331  0.00  0.00    +0.000 A 
ATOM     16  C   UNL     1     -17.418  -6.639  -5.329  0.00  0.00    +0.000 A 
ENDBRANCH  10  11
ENDBRANCH   1  10
TORSDOF 2
ENDMDL
