MODEL 1
REMARK VINA RESULT:    -5.422      0.000      0.000
REMARK INTER + INTRA:          -6.181
REMARK INTER:                  -6.056
REMARK INTRA:                  -0.125
REMARK UNBOUND:                -0.125
REMARK  Name = 1550473
REMARK  2 active torsions:
REMARK  status: ('A' for Active; 'I' for Inactive)
REMARK    1  A    between atoms: N_1  and  C_4
REMARK    2  A    between atoms: C_4  and  C_5
REMARK                            x       y       z     vdW  Elec       q    Type
REMARK                         _______ _______ _______ _____ _____    ______ ____
ROOT
ATOM      1  N   UNL     1       6.235 -22.418 -12.391  0.00  0.00    -0.354 N 
ATOM      2  N   UNL     1       8.448 -22.961 -12.807  0.00  0.00    -0.372 N 
ATOM      3  N   UNL     1       7.030 -24.595 -12.042  0.00  0.00    -0.372 N 
ATOM      4  C   UNL     1       7.223 -23.324 -12.410  0.00  0.00    +0.166 C 
ATOM      5  H   UNL     1       6.453 -21.463 -12.653  0.00  0.00    +0.163 HD
ATOM      6  H   UNL     1       9.212 -23.623 -12.835  0.00  0.00    +0.159 HD
ATOM      7  H   UNL     1       8.652 -22.017 -13.112  0.00  0.00    +0.159 HD
ATOM      8  H   UNL     1       6.130 -24.931 -11.726  0.00  0.00    +0.159 HD
ATOM      9  H   UNL     1       7.785 -25.269 -12.052  0.00  0.00    +0.159 HD
ENDROOT
BRANCH   1  10
ATOM     10  C   UNL     1       4.853 -22.723 -12.026  0.00  0.00    +0.151 C 
BRANCH  10  11
ATOM     11  C   UNL     1       4.210 -21.486 -11.462  0.00  0.00    -0.028 A 
ATOM     12  C   UNL     1       4.932 -20.630 -10.618  0.00  0.00    +0.005 A 
ATOM     13  C   UNL     1       2.880 -21.162 -11.772  0.00  0.00    +0.005 A 
ATOM     14  C   UNL     1       4.344 -19.465 -10.118  0.00  0.00    +0.000 A 
ATOM     15  C   UNL     1       2.297 -19.999 -11.270  0.00  0.00    +0.000 A 
ATOM     16  C   UNL     1       3.030 -19.150 -10.445  0.00  0.00    +0.000 A 
ENDBRANCH  10  11
ENDBRANCH   1  10
TORSDOF 2
ENDMDL
MODEL 2
REMARK VINA RESULT:    -5.077      5.317      6.670
REMARK INTER + INTRA:          -5.796
REMARK INTER:                  -5.636
REMARK INTRA:                  -0.160
REMARK UNBOUND:                -0.125
REMARK  Name = 1550473
REMARK  2 active torsions:
REMARK  status: ('A' for Active; 'I' for Inactive)
REMARK    1  A    between atoms: N_1  and  C_4
REMARK    2  A    between atoms: C_4  and  C_5
REMARK                            x       y       z     vdW  Elec       q    Type
REMARK                         _______ _______ _______ _____ _____    ______ ____
ROOT
ATOM      1  N   UNL     1       1.242 -16.208 -12.581  0.00  0.00    -0.354 N 
ATOM      2  N   UNL     1       2.209 -14.565 -13.895  0.00  0.00    -0.372 N 
ATOM      3  N   UNL     1       2.209 -14.304 -11.616  0.00  0.00    -0.372 N 
ATOM      4  C   UNL     1       1.881 -15.035 -12.686  0.00  0.00    +0.166 C 
ATOM      5  H   UNL     1       0.995 -16.700 -13.432  0.00  0.00    +0.163 HD
ATOM      6  H   UNL     1       2.694 -13.684 -14.006  0.00  0.00    +0.159 HD
ATOM      7  H   UNL     1       2.002 -15.080 -14.742  0.00  0.00    +0.159 HD
ATOM      8  H   UNL     1       1.984 -14.601 -10.675  0.00  0.00    +0.159 HD
ATOM      9  H   UNL     1       2.684 -13.415 -11.706  0.00  0.00    +0.159 HD
ENDROOT
BRANCH   1  10
ATOM     10  C   UNL     1       0.887 -16.835 -11.309  0.00  0.00    +0.151 C 
BRANCH  10  11
ATOM     11  C   UNL     1       1.668 -18.111 -11.155  0.00  0.00    -0.028 A 
ATOM     12  C   UNL     1       2.898 -18.115 -10.481  0.00  0.00    +0.005 A 
ATOM     13  C   UNL     1       1.181 -19.319 -11.675  0.00  0.00    +0.005 A 
ATOM     14  C   UNL     1       3.610 -19.306 -10.311  0.00  0.00    +0.000 A 
ATOM     15  C   UNL     1       1.895 -20.505 -11.504  0.00  0.00    +0.000 A 
ATOM     16  C   UNL     1       3.108 -20.498 -10.820  0.00  0.00    +0.000 A 
ENDBRANCH  10  11
ENDBRANCH   1  10
TORSDOF 2
ENDMDL
MODEL 3
REMARK VINA RESULT:    -4.974     27.474     28.976
REMARK INTER + INTRA:          -5.681
REMARK INTER:                  -5.538
REMARK INTRA:                  -0.142
REMARK UNBOUND:                -0.125
REMARK  Name = 1550473
REMARK  2 active torsions:
REMARK  status: ('A' for Active; 'I' for Inactive)
REMARK    1  A    between atoms: N_1  and  C_4
REMARK    2  A    between atoms: C_4  and  C_5
REMARK                            x       y       z     vdW  Elec       q    Type
REMARK                         _______ _______ _______ _____ _____    ______ ____
ROOT
ATOM      1  N   UNL     1      10.174   6.965  -4.031  0.00  0.00    -0.354 N 
ATOM      2  N   UNL     1      12.437   7.297  -3.665  0.00  0.00    -0.372 N 
ATOM      3  N   UNL     1      11.346   8.649  -5.164  0.00  0.00    -0.372 N 
ATOM      4  C   UNL     1      11.304   7.636  -4.291  0.00  0.00    +0.166 C 
ATOM      5  H   UNL     1      10.215   6.188  -3.382  0.00  0.00    +0.163 HD
ATOM      6  H   UNL     1      13.304   7.788  -3.838  0.00  0.00    +0.159 HD
ATOM      7  H   UNL     1      12.465   6.549  -2.982  0.00  0.00    +0.159 HD
ATOM      8  H   UNL     1      10.526   8.951  -5.674  0.00  0.00    +0.159 HD
ATOM      9  H   UNL     1      12.206   9.145  -5.359  0.00  0.00    +0.159 HD
ENDROOT
BRANCH   1  10
ATOM     10  C   UNL     1       8.876   7.290  -4.619  0.00  0.00    +0.151 C 
BRANCH  10  11
ATOM     11  C   UNL     1       8.219   6.022  -5.090  0.00  0.00    -0.028 A 
ATOM     12  C   UNL     1       8.907   4.801  -5.037  0.00  0.00    +0.005 A 
ATOM     13  C   UNL     1       6.906   6.034  -5.586  0.00  0.00    +0.005 A 
ATOM     14  C   UNL     1       8.287   3.618  -5.447  0.00  0.00    +0.000 A 
ATOM     15  C   UNL     1       6.290   4.851  -5.994  0.00  0.00    +0.000 A 
ATOM     16  C   UNL     1       6.980   3.643  -5.923  0.00  0.00    +0.000 A 
ENDBRANCH  10  11
ENDBRANCH   1  10
TORSDOF 2
ENDMDL
MODEL 4
REMARK VINA RESULT:    -4.876     37.642     39.083
REMARK INTER + INTRA:          -5.572
REMARK INTER:                  -5.419
REMARK INTRA:                  -0.152
REMARK UNBOUND:                -0.125
REMARK  Name = 1550473
REMARK  2 active torsions:
REMARK  status: ('A' for Active; 'I' for Inactive)
REMARK    1  A    between atoms: N_1  and  C_4
REMARK    2  A    between atoms: C_4  and  C_5
REMARK                            x       y       z     vdW  Elec       q    Type
REMARK                         _______ _______ _______ _____ _____    ______ ____
ROOT
ATOM      1  N   UNL     1      13.053   0.522  18.095  0.00  0.00    -0.354 N 
ATOM      2  N   UNL     1      11.990  -1.503  17.734  0.00  0.00    -0.372 N 
ATOM      3  N   UNL     1      12.196  -0.726  19.883  0.00  0.00    -0.372 N 
ATOM      4  C   UNL     1      12.420  -0.556  18.576  0.00  0.00    +0.166 C 
ATOM      5  H   UNL     1      13.219   0.577  17.097  0.00  0.00    +0.163 HD
ATOM      6  H   UNL     1      11.506  -2.326  18.067  0.00  0.00    +0.159 HD
ATOM      7  H   UNL     1      12.116  -1.423  16.732  0.00  0.00    +0.159 HD
ATOM      8  H   UNL     1      12.500  -0.051  20.571  0.00  0.00    +0.159 HD
ATOM      9  H   UNL     1      11.723  -1.549  20.237  0.00  0.00    +0.159 HD
ENDROOT
BRANCH   1  10
ATOM     10  C   UNL     1      13.514   1.636  18.922  0.00  0.00    +0.151 C 
BRANCH  10  11
ATOM     11  C   UNL     1      12.625   2.825  18.683  0.00  0.00    -0.028 A 
ATOM     12  C   UNL     1      11.329   2.864  19.218  0.00  0.00    +0.005 A 
ATOM     13  C   UNL     1      13.074   3.919  17.927  0.00  0.00    +0.005 A 
ATOM     14  C   UNL     1      10.513   3.981  19.021  0.00  0.00    +0.000 A 
ATOM     15  C   UNL     1      12.257   5.032  17.732  0.00  0.00    +0.000 A 
ATOM     16  C   UNL     1      10.977   5.064  18.282  0.00  0.00    +0.000 A 
ENDBRANCH  10  11
ENDBRANCH   1  10
TORSDOF 2
ENDMDL
MODEL 5
REMARK VINA RESULT:    -4.841     28.281     29.728
REMARK INTER + INTRA:          -5.532
REMARK INTER:                  -5.409
REMARK INTRA:                  -0.123
REMARK UNBOUND:                -0.125
REMARK  Name = 1550473
REMARK  2 active torsions:
REMARK  status: ('A' for Active; 'I' for Inactive)
REMARK    1  A    between atoms: N_1  and  C_4
REMARK    2  A    between atoms: C_4  and  C_5
REMARK                            x       y       z     vdW  Elec       q    Type
REMARK                         _______ _______ _______ _____ _____    ______ ____
ROOT
ATOM      1  N   UNL     1     -19.366  -4.671 -17.001  0.00  0.00    -0.354 N 
ATOM      2  N   UNL     1     -19.095  -4.872 -19.292  0.00  0.00    -0.372 N 
ATOM      3  N   UNL     1     -19.840  -2.879 -18.434  0.00  0.00    -0.372 N 
ATOM      4  C   UNL     1     -19.437  -4.137 -18.227  0.00  0.00    +0.166 C 
ATOM      5  H   UNL     1     -19.081  -5.640 -16.913  0.00  0.00    +0.163 HD
ATOM      6  H   UNL     1     -19.135  -4.495 -20.229  0.00  0.00    +0.159 HD
ATOM      7  H   UNL     1     -18.767  -5.826 -19.198  0.00  0.00    +0.159 HD
ATOM      8  H   UNL     1     -20.118  -2.273 -17.673  0.00  0.00    +0.159 HD
ATOM      9  H   UNL     1     -19.898  -2.487 -19.366  0.00  0.00    +0.159 HD
ENDROOT
BRANCH   1  10
ATOM     10  C   UNL     1     -19.664  -3.938 -15.771  0.00  0.00    +0.151 C 
BRANCH  10  11
ATOM     11  C   UNL     1     -18.840  -4.506 -14.649  0.00  0.00    -0.028 A 
ATOM     12  C   UNL     1     -17.484  -4.804 -14.842  0.00  0.00    +0.005 A 
ATOM     13  C   UNL     1     -19.409  -4.743 -13.388  0.00  0.00    +0.005 A 
ATOM     14  C   UNL     1     -16.711  -5.304 -13.791  0.00  0.00    +0.000 A 
ATOM     15  C   UNL     1     -18.634  -5.243 -12.341  0.00  0.00    +0.000 A 
ATOM     16  C   UNL     1     -17.284  -5.521 -12.543  0.00  0.00    +0.000 A 
ENDBRANCH  10  11
ENDBRANCH   1  10
TORSDOF 2
ENDMDL
MODEL 6
REMARK VINA RESULT:    -4.695     27.979     29.349
REMARK INTER + INTRA:          -5.369
REMARK INTER:                  -5.246
REMARK INTRA:                  -0.124
REMARK UNBOUND:                -0.125
REMARK  Name = 1550473
REMARK  2 active torsions:
REMARK  status: ('A' for Active; 'I' for Inactive)
REMARK    1  A    between atoms: N_1  and  C_4
REMARK    2  A    between atoms: C_4  and  C_5
REMARK                            x       y       z     vdW  Elec       q    Type
REMARK                         _______ _______ _______ _____ _____    ______ ____
ROOT
ATOM      1  N   UNL     1      23.209  -2.106   3.537  0.00  0.00    -0.354 N 
ATOM      2  N   UNL     1      24.549  -0.235   3.278  0.00  0.00    -0.372 N 
ATOM      3  N   UNL     1      22.930  -0.224   4.905  0.00  0.00    -0.372 N 
ATOM      4  C   UNL     1      23.552  -0.866   3.910  0.00  0.00    +0.166 C 
ATOM      5  H   UNL     1      23.699  -2.527   2.756  0.00  0.00    +0.163 HD
ATOM      6  H   UNL     1      24.832   0.700   3.540  0.00  0.00    +0.159 HD
ATOM      7  H   UNL     1      25.067  -0.675   2.528  0.00  0.00    +0.159 HD
ATOM      8  H   UNL     1      22.167  -0.644   5.418  0.00  0.00    +0.159 HD
ATOM      9  H   UNL     1      23.192   0.716   5.174  0.00  0.00    +0.159 HD
ENDROOT
BRANCH   1  10
ATOM     10  C   UNL     1      22.174  -2.902   4.195  0.00  0.00    +0.151 C 
BRANCH  10  11
ATOM     11  C   UNL     1      21.209  -3.407   3.158  0.00  0.00    -0.028 A 
ATOM     12  C   UNL     1      19.859  -3.028   3.197  0.00  0.00    +0.005 A 
ATOM     13  C   UNL     1      21.639  -4.261   2.131  0.00  0.00    +0.005 A 
ATOM     14  C   UNL     1      18.969  -3.473   2.217  0.00  0.00    +0.000 A 
ATOM     15  C   UNL     1      20.747  -4.704   1.155  0.00  0.00    +0.000 A 
ATOM     16  C   UNL     1      19.413  -4.308   1.197  0.00  0.00    +0.000 A 
ENDBRANCH  10  11
ENDBRANCH   1  10
TORSDOF 2
ENDMDL
MODEL 7
REMARK VINA RESULT:    -4.586     12.550     13.337
REMARK INTER + INTRA:          -5.247
REMARK INTER:                  -5.100
REMARK INTRA:                  -0.147
REMARK UNBOUND:                -0.125
REMARK  Name = 1550473
REMARK  2 active torsions:
REMARK  status: ('A' for Active; 'I' for Inactive)
REMARK    1  A    between atoms: N_1  and  C_4
REMARK    2  A    between atoms: C_4  and  C_5
REMARK                            x       y       z     vdW  Elec       q    Type
REMARK                         _______ _______ _______ _____ _____    ______ ____
ROOT
ATOM      1  N   UNL     1       7.407 -11.835 -18.875  0.00  0.00    -0.354 N 
ATOM      2  N   UNL     1       5.702 -10.536 -19.755  0.00  0.00    -0.372 N 
ATOM      3  N   UNL     1       7.771 -10.471 -20.746  0.00  0.00    -0.372 N 
ATOM      4  C   UNL     1       6.973 -10.955 -19.788  0.00  0.00    +0.166 C 
ATOM      5  H   UNL     1       6.761 -12.141 -18.157  0.00  0.00    +0.163 HD
ATOM      6  H   UNL     1       5.346  -9.876 -20.432  0.00  0.00    +0.159 HD
ATOM      7  H   UNL     1       5.047 -10.879 -19.063  0.00  0.00    +0.159 HD
ATOM      8  H   UNL     1       8.742 -10.742 -20.822  0.00  0.00    +0.159 HD
ATOM      9  H   UNL     1       7.436  -9.800 -21.426  0.00  0.00    +0.159 HD
ENDROOT
BRANCH   1  10
ATOM     10  C   UNL     1       8.757 -12.395 -18.856  0.00  0.00    +0.151 C 
BRANCH  10  11
ATOM     11  C   UNL     1       9.487 -11.877 -17.647  0.00  0.00    -0.028 A 
ATOM     12  C   UNL     1       9.779 -10.510 -17.524  0.00  0.00    +0.005 A 
ATOM     13  C   UNL     1       9.883 -12.746 -16.619  0.00  0.00    +0.005 A 
ATOM     14  C   UNL     1      10.430 -10.024 -16.387  0.00  0.00    +0.000 A 
ATOM     15  C   UNL     1      10.533 -12.257 -15.487  0.00  0.00    +0.000 A 
ATOM     16  C   UNL     1      10.804 -10.896 -15.370  0.00  0.00    +0.000 A 
ENDBRANCH  10  11
ENDBRANCH   1  10
TORSDOF 2
ENDMDL
MODEL 8
REMARK VINA RESULT:    -4.557     42.564     44.286
REMARK INTER + INTRA:          -5.215
REMARK INTER:                  -5.099
REMARK INTRA:                  -0.116
REMARK UNBOUND:                -0.125
REMARK  Name = 1550473
REMARK  2 active torsions:
REMARK  status: ('A' for Active; 'I' for Inactive)
REMARK    1  A    between atoms: N_1  and  C_4
REMARK    2  A    between atoms: C_4  and  C_5
REMARK                            x       y       z     vdW  Elec       q    Type
REMARK                         _______ _______ _______ _____ _____    ______ ____
ROOT
ATOM      1  N   UNL     1       4.433  21.151   3.710  0.00  0.00    -0.354 N 
ATOM      2  N   UNL     1       4.573  21.971   5.871  0.00  0.00    -0.372 N 
ATOM      3  N   UNL     1       5.683  23.073   4.192  0.00  0.00    -0.372 N 
ATOM      4  C   UNL     1       4.897  22.062   4.576  0.00  0.00    +0.166 C 
ATOM      5  H   UNL     1       3.866  20.391   4.068  0.00  0.00    +0.163 HD
ATOM      6  H   UNL     1       4.906  22.645   6.547  0.00  0.00    +0.159 HD
ATOM      7  H   UNL     1       3.969  21.236   6.219  0.00  0.00    +0.159 HD
ATOM      8  H   UNL     1       5.969  23.195   3.230  0.00  0.00    +0.159 HD
ATOM      9  H   UNL     1       6.035  23.752   4.856  0.00  0.00    +0.159 HD
ENDROOT
BRANCH   1  10
ATOM     10  C   UNL     1       4.682  21.190   2.270  0.00  0.00    +0.151 C 
BRANCH  10  11
ATOM     11  C   UNL     1       5.060  19.812   1.799  0.00  0.00    -0.028 A 
ATOM     12  C   UNL     1       6.286  19.591   1.156  0.00  0.00    +0.005 A 
ATOM     13  C   UNL     1       4.198  18.723   1.999  0.00  0.00    +0.005 A 
ATOM     14  C   UNL     1       6.651  18.306   0.746  0.00  0.00    +0.000 A 
ATOM     15  C   UNL     1       4.565  17.442   1.587  0.00  0.00    +0.000 A 
ATOM     16  C   UNL     1       5.792  17.234   0.963  0.00  0.00    +0.000 A 
ENDBRANCH  10  11
ENDBRANCH   1  10
TORSDOF 2
ENDMDL
MODEL 9
REMARK VINA RESULT:    -4.358     29.413     31.341
REMARK INTER + INTRA:          -4.993
REMARK INTER:                  -4.869
REMARK INTRA:                  -0.123
REMARK UNBOUND:                -0.125
REMARK  Name = 1550473
REMARK  2 active torsions:
REMARK  status: ('A' for Active; 'I' for Inactive)
REMARK    1  A    between atoms: N_1  and  C_4
REMARK    2  A    between atoms: C_4  and  C_5
REMARK                            x       y       z     vdW  Elec       q    Type
REMARK                         _______ _______ _______ _____ _____    ______ ____
ROOT
ATOM      1  N   UNL     1     -19.570  -4.570 -16.819  0.00  0.00    -0.354 N 
ATOM      2  N   UNL     1     -17.309  -5.053 -16.694  0.00  0.00    -0.372 N 
ATOM      3  N   UNL     1     -18.345  -5.118 -18.740  0.00  0.00    -0.372 N 
ATOM      4  C   UNL     1     -18.423  -4.911 -17.421  0.00  0.00    +0.166 C 
ATOM      5  H   UNL     1     -19.570  -4.457 -15.812  0.00  0.00    +0.163 HD
ATOM      6  H   UNL     1     -16.428  -5.306 -17.121  0.00  0.00    +0.159 HD
ATOM      7  H   UNL     1     -17.301  -4.895 -15.694  0.00  0.00    +0.159 HD
ATOM      8  H   UNL     1     -19.151  -5.032 -19.345  0.00  0.00    +0.159 HD
ATOM      9  H   UNL     1     -17.474  -5.383 -19.184  0.00  0.00    +0.159 HD
ENDROOT
BRANCH   1  10
ATOM     10  C   UNL     1     -20.828  -4.338 -17.528  0.00  0.00    +0.151 C 
BRANCH  10  11
ATOM     11  C   UNL     1     -21.924  -5.111 -16.849  0.00  0.00    -0.028 A 
ATOM     12  C   UNL     1     -22.767  -5.952 -17.591  0.00  0.00    +0.005 A 
ATOM     13  C   UNL     1     -22.122  -5.013 -15.463  0.00  0.00    +0.005 A 
ATOM     14  C   UNL     1     -23.766  -6.694 -16.957  0.00  0.00    +0.000 A 
ATOM     15  C   UNL     1     -23.122  -5.755 -14.834  0.00  0.00    +0.000 A 
ATOM     16  C   UNL     1     -23.942  -6.597 -15.581  0.00  0.00    +0.000 A 
ENDBRANCH  10  11
ENDBRANCH   1  10
TORSDOF 2
ENDMDL
