MODEL 1
REMARK VINA RESULT:    -5.451      0.000      0.000
REMARK INTER + INTRA:          -6.228
REMARK INTER:                  -6.089
REMARK INTRA:                  -0.139
REMARK UNBOUND:                -0.139
REMARK  Name = 1550473
REMARK  2 active torsions:
REMARK  status: ('A' for Active; 'I' for Inactive)
REMARK    1  A    between atoms: N_1  and  C_4
REMARK    2  A    between atoms: C_4  and  C_5
REMARK                            x       y       z     vdW  Elec       q    Type
REMARK                         _______ _______ _______ _____ _____    ______ ____
ROOT
ATOM      1  N   UNL     1      -5.291  11.248  11.978  0.00  0.00    -0.354 N 
ATOM      2  N   UNL     1      -3.268  11.836  12.939  0.00  0.00    -0.372 N 
ATOM      3  N   UNL     1      -4.743  13.494  12.358  0.00  0.00    -0.372 N 
ATOM      4  C   UNL     1      -4.448  12.192  12.418  0.00  0.00    +0.166 C 
ATOM      5  H   UNL     1      -4.995  10.279  12.023  0.00  0.00    +0.163 HD
ATOM      6  H   UNL     1      -2.613  12.526  13.282  0.00  0.00    +0.159 HD
ATOM      7  H   UNL     1      -2.994  10.865  13.026  0.00  0.00    +0.159 HD
ATOM      8  H   UNL     1      -5.616  13.829  11.970  0.00  0.00    +0.159 HD
ATOM      9  H   UNL     1      -4.096  14.200  12.686  0.00  0.00    +0.159 HD
ENDROOT
BRANCH   1  10
ATOM     10  C   UNL     1      -6.623  11.526  11.442  0.00  0.00    +0.151 C 
BRANCH  10  11
ATOM     11  C   UNL     1      -6.787  10.802  10.135  0.00  0.00    -0.028 A 
ATOM     12  C   UNL     1      -5.667  10.470   9.358  0.00  0.00    +0.005 A 
ATOM     13  C   UNL     1      -8.061  10.439   9.669  0.00  0.00    +0.005 A 
ATOM     14  C   UNL     1      -5.818   9.771   8.158  0.00  0.00    +0.000 A 
ATOM     15  C   UNL     1      -8.207   9.742   8.470  0.00  0.00    +0.000 A 
ATOM     16  C   UNL     1      -7.085   9.406   7.716  0.00  0.00    +0.000 A 
ENDBRANCH  10  11
ENDBRANCH   1  10
TORSDOF 2
ENDMDL
MODEL 2
REMARK VINA RESULT:    -5.294     13.523     14.460
REMARK INTER + INTRA:          -6.053
REMARK INTER:                  -5.933
REMARK INTRA:                  -0.119
REMARK UNBOUND:                -0.139
REMARK  Name = 1550473
REMARK  2 active torsions:
REMARK  status: ('A' for Active; 'I' for Inactive)
REMARK    1  A    between atoms: N_1  and  C_4
REMARK    2  A    between atoms: C_4  and  C_5
REMARK                            x       y       z     vdW  Elec       q    Type
REMARK                         _______ _______ _______ _____ _____    ______ ____
ROOT
ATOM      1  N   UNL     1      -2.547  -1.118  14.669  0.00  0.00    -0.354 N 
ATOM      2  N   UNL     1      -3.564  -2.568  13.176  0.00  0.00    -0.372 N 
ATOM      3  N   UNL     1      -3.285  -0.371  12.574  0.00  0.00    -0.372 N 
ATOM      4  C   UNL     1      -3.126  -1.340  13.481  0.00  0.00    +0.166 C 
ATOM      5  H   UNL     1      -2.483  -1.888  15.325  0.00  0.00    +0.163 HD
ATOM      6  H   UNL     1      -4.002  -2.766  12.286  0.00  0.00    +0.159 HD
ATOM      7  H   UNL     1      -3.458  -3.346  13.815  0.00  0.00    +0.159 HD
ATOM      8  H   UNL     1      -2.981   0.578  12.745  0.00  0.00    +0.159 HD
ATOM      9  H   UNL     1      -3.731  -0.548  11.682  0.00  0.00    +0.159 HD
ENDROOT
BRANCH   1  10
ATOM     10  C   UNL     1      -1.987   0.169  15.077  0.00  0.00    +0.151 C 
BRANCH  10  11
ATOM     11  C   UNL     1      -1.017  -0.053  16.205  0.00  0.00    -0.028 A 
ATOM     12  C   UNL     1      -1.150  -1.164  17.050  0.00  0.00    +0.005 A 
ATOM     13  C   UNL     1       0.040   0.842  16.430  0.00  0.00    +0.005 A 
ATOM     14  C   UNL     1      -0.231  -1.387  18.079  0.00  0.00    +0.000 A 
ATOM     15  C   UNL     1       0.955   0.616  17.458  0.00  0.00    +0.000 A 
ATOM     16  C   UNL     1       0.820  -0.500  18.281  0.00  0.00    +0.000 A 
ENDBRANCH  10  11
ENDBRANCH   1  10
TORSDOF 2
ENDMDL
MODEL 3
REMARK VINA RESULT:    -5.273     26.145     27.833
REMARK INTER + INTRA:          -6.028
REMARK INTER:                  -5.873
REMARK INTRA:                  -0.156
REMARK UNBOUND:                -0.139
REMARK  Name = 1550473
REMARK  2 active torsions:
REMARK  status: ('A' for Active; 'I' for Inactive)
REMARK    1  A    between atoms: N_1  and  C_4
REMARK    2  A    between atoms: C_4  and  C_5
REMARK                            x       y       z     vdW  Elec       q    Type
REMARK                         _______ _______ _______ _____ _____    ______ ____
ROOT
ATOM      1  N   UNL     1     -16.292  -8.679  -5.394  0.00  0.00    -0.354 N 
ATOM      2  N   UNL     1     -14.947  -7.216  -6.582  0.00  0.00    -0.372 N 
ATOM      3  N   UNL     1     -16.183  -6.408  -4.826  0.00  0.00    -0.372 N 
ATOM      4  C   UNL     1     -15.817  -7.442  -5.591  0.00  0.00    +0.166 C 
ATOM      5  H   UNL     1     -15.999  -9.414  -6.027  0.00  0.00    +0.163 HD
ATOM      6  H   UNL     1     -14.568  -6.294  -6.753  0.00  0.00    +0.159 HD
ATOM      7  H   UNL     1     -14.620  -7.961  -7.185  0.00  0.00    +0.159 HD
ATOM      8  H   UNL     1     -16.841  -6.511  -4.066  0.00  0.00    +0.159 HD
ATOM      9  H   UNL     1     -15.825  -5.475  -4.989  0.00  0.00    +0.159 HD
ENDROOT
BRANCH   1  10
ATOM     10  C   UNL     1     -17.203  -9.042  -4.310  0.00  0.00    +0.151 C 
BRANCH  10  11
ATOM     11  C   UNL     1     -18.621  -8.903  -4.791  0.00  0.00    -0.028 A 
ATOM     12  C   UNL     1     -19.088  -9.678  -5.863  0.00  0.00    +0.005 A 
ATOM     13  C   UNL     1     -19.503  -8.001  -4.177  0.00  0.00    +0.005 A 
ATOM     14  C   UNL     1     -20.413  -9.571  -6.291  0.00  0.00    +0.000 A 
ATOM     15  C   UNL     1     -20.826  -7.897  -4.608  0.00  0.00    +0.000 A 
ATOM     16  C   UNL     1     -21.281  -8.683  -5.664  0.00  0.00    +0.000 A 
ENDBRANCH  10  11
ENDBRANCH   1  10
TORSDOF 2
ENDMDL
MODEL 4
REMARK VINA RESULT:    -5.243     25.159     27.008
REMARK INTER + INTRA:          -5.995
REMARK INTER:                  -5.842
REMARK INTRA:                  -0.154
REMARK UNBOUND:                -0.139
REMARK  Name = 1550473
REMARK  2 active torsions:
REMARK  status: ('A' for Active; 'I' for Inactive)
REMARK    1  A    between atoms: N_1  and  C_4
REMARK    2  A    between atoms: C_4  and  C_5
REMARK                            x       y       z     vdW  Elec       q    Type
REMARK                         _______ _______ _______ _____ _____    ______ ____
ROOT
ATOM      1  N   UNL     1     -19.047  -5.556  -4.103  0.00  0.00    -0.354 N 
ATOM      2  N   UNL     1     -17.574  -3.768  -4.110  0.00  0.00    -0.372 N 
ATOM      3  N   UNL     1     -17.496  -5.263  -2.371  0.00  0.00    -0.372 N 
ATOM      4  C   UNL     1     -18.048  -4.875  -3.525  0.00  0.00    +0.166 C 
ATOM      5  H   UNL     1     -19.443  -5.193  -4.962  0.00  0.00    +0.163 HD
ATOM      6  H   UNL     1     -16.819  -3.236  -3.699  0.00  0.00    +0.159 HD
ATOM      7  H   UNL     1     -17.941  -3.433  -4.992  0.00  0.00    +0.159 HD
ATOM      8  H   UNL     1     -17.812  -6.086  -1.876  0.00  0.00    +0.159 HD
ATOM      9  H   UNL     1     -16.747  -4.737  -1.938  0.00  0.00    +0.159 HD
ENDROOT
BRANCH   1  10
ATOM     10  C   UNL     1     -19.599  -6.803  -3.576  0.00  0.00    +0.151 C 
BRANCH  10  11
ATOM     11  C   UNL     1     -19.429  -7.888  -4.603  0.00  0.00    -0.028 A 
ATOM     12  C   UNL     1     -20.546  -8.432  -5.255  0.00  0.00    +0.005 A 
ATOM     13  C   UNL     1     -18.154  -8.373  -4.933  0.00  0.00    +0.005 A 
ATOM     14  C   UNL     1     -20.386  -9.418  -6.231  0.00  0.00    +0.000 A 
ATOM     15  C   UNL     1     -18.000  -9.359  -5.907  0.00  0.00    +0.000 A 
ATOM     16  C   UNL     1     -19.115  -9.879  -6.558  0.00  0.00    +0.000 A 
ENDBRANCH  10  11
ENDBRANCH   1  10
TORSDOF 2
ENDMDL
MODEL 5
REMARK VINA RESULT:    -5.192      4.203      5.945
REMARK INTER + INTRA:          -5.938
REMARK INTER:                  -5.815
REMARK INTRA:                  -0.124
REMARK UNBOUND:                -0.139
REMARK  Name = 1550473
REMARK  2 active torsions:
REMARK  status: ('A' for Active; 'I' for Inactive)
REMARK    1  A    between atoms: N_1  and  C_4
REMARK    2  A    between atoms: C_4  and  C_5
REMARK                            x       y       z     vdW  Elec       q    Type
REMARK                         _______ _______ _______ _____ _____    ______ ____
ROOT
ATOM      1  N   UNL     1      -8.702   9.903   6.605  0.00  0.00    -0.354 N 
ATOM      2  N   UNL     1      -9.939  10.749   4.839  0.00  0.00    -0.372 N 
ATOM      3  N   UNL     1      -7.858   9.877   4.419  0.00  0.00    -0.372 N 
ATOM      4  C   UNL     1      -8.822  10.171   5.298  0.00  0.00    +0.166 C 
ATOM      5  H   UNL     1      -9.456  10.178   7.224  0.00  0.00    +0.163 HD
ATOM      6  H   UNL     1     -10.060  10.960   3.857  0.00  0.00    +0.159 HD
ATOM      7  H   UNL     1     -10.710  10.981   5.453  0.00  0.00    +0.159 HD
ATOM      8  H   UNL     1      -6.989   9.445   4.702  0.00  0.00    +0.159 HD
ATOM      9  H   UNL     1      -7.956  10.091   3.434  0.00  0.00    +0.159 HD
ENDROOT
BRANCH   1  10
ATOM     10  C   UNL     1      -7.550   9.227   7.199  0.00  0.00    +0.151 C 
BRANCH  10  11
ATOM     11  C   UNL     1      -7.155   9.945   8.459  0.00  0.00    -0.028 A 
ATOM     12  C   UNL     1      -8.133  10.429   9.340  0.00  0.00    +0.005 A 
ATOM     13  C   UNL     1      -5.803  10.139   8.782  0.00  0.00    +0.005 A 
ATOM     14  C   UNL     1      -7.766  11.070  10.526  0.00  0.00    +0.000 A 
ATOM     15  C   UNL     1      -5.440  10.780   9.966  0.00  0.00    +0.000 A 
ATOM     16  C   UNL     1      -6.422  11.243  10.839  0.00  0.00    +0.000 A 
ENDBRANCH  10  11
ENDBRANCH   1  10
TORSDOF 2
ENDMDL
MODEL 6
REMARK VINA RESULT:    -5.127      2.115      3.206
REMARK INTER + INTRA:          -5.866
REMARK INTER:                  -5.694
REMARK INTRA:                  -0.171
REMARK UNBOUND:                -0.139
REMARK  Name = 1550473
REMARK  2 active torsions:
REMARK  status: ('A' for Active; 'I' for Inactive)
REMARK    1  A    between atoms: N_1  and  C_4
REMARK    2  A    between atoms: C_4  and  C_5
REMARK                            x       y       z     vdW  Elec       q    Type
REMARK                         _______ _______ _______ _____ _____    ______ ____
ROOT
ATOM      1  N   UNL     1      -5.172   9.568  11.342  0.00  0.00    -0.354 N 
ATOM      2  N   UNL     1      -4.647   7.575  12.398  0.00  0.00    -0.372 N 
ATOM      3  N   UNL     1      -4.363   7.736  10.127  0.00  0.00    -0.372 N 
ATOM      4  C   UNL     1      -4.730   8.305  11.279  0.00  0.00    +0.166 C 
ATOM      5  H   UNL     1      -5.464   9.932  12.242  0.00  0.00    +0.163 HD
ATOM      6  H   UNL     1      -4.315   6.620  12.382  0.00  0.00    +0.159 HD
ATOM      7  H   UNL     1      -4.897   7.955  13.303  0.00  0.00    +0.159 HD
ATOM      8  H   UNL     1      -4.407   8.231   9.247  0.00  0.00    +0.159 HD
ATOM      9  H   UNL     1      -4.038   6.778  10.089  0.00  0.00    +0.159 HD
ENDROOT
BRANCH   1  10
ATOM     10  C   UNL     1      -5.250  10.466  10.191  0.00  0.00    +0.151 C 
BRANCH  10  11
ATOM     11  C   UNL     1      -6.646  10.432   9.635  0.00  0.00    -0.028 A 
ATOM     12  C   UNL     1      -7.696  11.074  10.307  0.00  0.00    +0.005 A 
ATOM     13  C   UNL     1      -6.925   9.763   8.433  0.00  0.00    +0.005 A 
ATOM     14  C   UNL     1      -8.988  11.068   9.775  0.00  0.00    +0.000 A 
ATOM     15  C   UNL     1      -8.217   9.759   7.906  0.00  0.00    +0.000 A 
ATOM     16  C   UNL     1      -9.247  10.414   8.576  0.00  0.00    +0.000 A 
ENDBRANCH  10  11
ENDBRANCH   1  10
TORSDOF 2
ENDMDL
MODEL 7
REMARK VINA RESULT:    -5.111      2.108      3.168
REMARK INTER + INTRA:          -5.848
REMARK INTER:                  -5.694
REMARK INTRA:                  -0.154
REMARK UNBOUND:                -0.139
REMARK  Name = 1550473
REMARK  2 active torsions:
REMARK  status: ('A' for Active; 'I' for Inactive)
REMARK    1  A    between atoms: N_1  and  C_4
REMARK    2  A    between atoms: C_4  and  C_5
REMARK                            x       y       z     vdW  Elec       q    Type
REMARK                         _______ _______ _______ _____ _____    ______ ____
ROOT
ATOM      1  N   UNL     1      -3.130  13.451  11.817  0.00  0.00    -0.354 N 
ATOM      2  N   UNL     1      -2.858  15.601  10.998  0.00  0.00    -0.372 N 
ATOM      3  N   UNL     1      -4.666  15.143  12.335  0.00  0.00    -0.372 N 
ATOM      4  C   UNL     1      -3.556  14.718  11.723  0.00  0.00    +0.166 C 
ATOM      5  H   UNL     1      -2.298  13.184  11.304  0.00  0.00    +0.163 HD
ATOM      6  H   UNL     1      -3.153  16.564  10.912  0.00  0.00    +0.159 HD
ATOM      7  H   UNL     1      -2.001  15.342  10.525  0.00  0.00    +0.159 HD
ATOM      8  H   UNL     1      -5.241  14.526  12.893  0.00  0.00    +0.159 HD
ATOM      9  H   UNL     1      -4.984  16.101  12.252  0.00  0.00    +0.159 HD
ENDROOT
BRANCH   1  10
ATOM     10  C   UNL     1      -3.788  12.425  12.624  0.00  0.00    +0.151 C 
BRANCH  10  11
ATOM     11  C   UNL     1      -4.221  11.298  11.728  0.00  0.00    -0.028 A 
ATOM     12  C   UNL     1      -3.719  10.002  11.920  0.00  0.00    +0.005 A 
ATOM     13  C   UNL     1      -5.139  11.517  10.690  0.00  0.00    +0.005 A 
ATOM     14  C   UNL     1      -4.145   8.949  11.107  0.00  0.00    +0.000 A 
ATOM     15  C   UNL     1      -5.561  10.463   9.880  0.00  0.00    +0.000 A 
ATOM     16  C   UNL     1      -5.065   9.179  10.090  0.00  0.00    +0.000 A 
ENDBRANCH  10  11
ENDBRANCH   1  10
TORSDOF 2
ENDMDL
MODEL 8
REMARK VINA RESULT:    -5.001      3.372      5.046
REMARK INTER + INTRA:          -5.726
REMARK INTER:                  -5.600
REMARK INTRA:                  -0.125
REMARK UNBOUND:                -0.139
REMARK  Name = 1550473
REMARK  2 active torsions:
REMARK  status: ('A' for Active; 'I' for Inactive)
REMARK    1  A    between atoms: N_1  and  C_4
REMARK    2  A    between atoms: C_4  and  C_5
REMARK                            x       y       z     vdW  Elec       q    Type
REMARK                         _______ _______ _______ _____ _____    ______ ____
ROOT
ATOM      1  N   UNL     1      -6.087   9.627  13.144  0.00  0.00    -0.354 N 
ATOM      2  N   UNL     1      -6.427   7.368  13.523  0.00  0.00    -0.372 N 
ATOM      3  N   UNL     1      -7.452   8.358  11.724  0.00  0.00    -0.372 N 
ATOM      4  C   UNL     1      -6.655   8.466  12.793  0.00  0.00    +0.166 C 
ATOM      5  H   UNL     1      -5.517   9.650  13.982  0.00  0.00    +0.163 HD
ATOM      6  H   UNL     1      -6.839   6.477  13.280  0.00  0.00    +0.159 HD
ATOM      7  H   UNL     1      -5.820   7.383  14.334  0.00  0.00    +0.159 HD
ATOM      8  H   UNL     1      -7.669   9.150  11.135  0.00  0.00    +0.159 HD
ATOM      9  H   UNL     1      -7.883   7.477  11.472  0.00  0.00    +0.159 HD
ENDROOT
BRANCH   1  10
ATOM     10  C   UNL     1      -6.228  10.869  12.386  0.00  0.00    +0.151 C 
BRANCH  10  11
ATOM     11  C   UNL     1      -4.903  11.580  12.358  0.00  0.00    -0.028 A 
ATOM     12  C   UNL     1      -4.549  12.383  11.264  0.00  0.00    +0.005 A 
ATOM     13  C   UNL     1      -3.999  11.459  13.425  0.00  0.00    +0.005 A 
ATOM     14  C   UNL     1      -3.331  13.068  11.250  0.00  0.00    +0.000 A 
ATOM     15  C   UNL     1      -2.784  12.144  13.407  0.00  0.00    +0.000 A 
ATOM     16  C   UNL     1      -2.452  12.950  12.321  0.00  0.00    +0.000 A 
ENDBRANCH  10  11
ENDBRANCH   1  10
TORSDOF 2
ENDMDL
MODEL 9
REMARK VINA RESULT:    -4.950      2.965      5.027
REMARK INTER + INTRA:          -5.668
REMARK INTER:                  -5.512
REMARK INTRA:                  -0.156
REMARK UNBOUND:                -0.139
REMARK  Name = 1550473
REMARK  2 active torsions:
REMARK  status: ('A' for Active; 'I' for Inactive)
REMARK    1  A    between atoms: N_1  and  C_4
REMARK    2  A    between atoms: C_4  and  C_5
REMARK                            x       y       z     vdW  Elec       q    Type
REMARK                         _______ _______ _______ _____ _____    ______ ____
ROOT
ATOM      1  N   UNL     1      -5.809   8.908   9.001  0.00  0.00    -0.354 N 
ATOM      2  N   UNL     1      -6.089   8.928   6.702  0.00  0.00    -0.372 N 
ATOM      3  N   UNL     1      -7.777   9.733   8.032  0.00  0.00    -0.372 N 
ATOM      4  C   UNL     1      -6.559   9.190   7.927  0.00  0.00    +0.166 C 
ATOM      5  H   UNL     1      -4.907   8.469   8.855  0.00  0.00    +0.163 HD
ATOM      6  H   UNL     1      -6.631   9.134   5.873  0.00  0.00    +0.159 HD
ATOM      7  H   UNL     1      -5.168   8.532   6.557  0.00  0.00    +0.159 HD
ATOM      8  H   UNL     1      -8.192   9.949   8.928  0.00  0.00    +0.159 HD
ATOM      9  H   UNL     1      -8.340   9.935   7.214  0.00  0.00    +0.159 HD
ENDROOT
BRANCH   1  10
ATOM     10  C   UNL     1      -6.206   9.204  10.376  0.00  0.00    +0.151 C 
BRANCH  10  11
ATOM     11  C   UNL     1      -5.251  10.209  10.957  0.00  0.00    -0.028 A 
ATOM     12  C   UNL     1      -5.543  11.580  10.906  0.00  0.00    +0.005 A 
ATOM     13  C   UNL     1      -4.056   9.797  11.566  0.00  0.00    +0.005 A 
ATOM     14  C   UNL     1      -4.670  12.513  11.472  0.00  0.00    +0.000 A 
ATOM     15  C   UNL     1      -3.187  10.732  12.130  0.00  0.00    +0.000 A 
ATOM     16  C   UNL     1      -3.496  12.089  12.085  0.00  0.00    +0.000 A 
ENDBRANCH  10  11
ENDBRANCH   1  10
TORSDOF 2
ENDMDL
