MODEL 1
REMARK VINA RESULT:    -5.590      0.000      0.000
REMARK INTER + INTRA:          -6.363
REMARK INTER:                  -6.244
REMARK INTRA:                  -0.119
REMARK UNBOUND:                -0.119
REMARK  Name = 1550473
REMARK  2 active torsions:
REMARK  status: ('A' for Active; 'I' for Inactive)
REMARK    1  A    between atoms: N_1  and  C_4
REMARK    2  A    between atoms: C_4  and  C_5
REMARK                            x       y       z     vdW  Elec       q    Type
REMARK                         _______ _______ _______ _____ _____    ______ ____
ROOT
ATOM      1  N   UNL     1     -11.762   6.005  20.209  0.00  0.00    -0.354 N 
ATOM      2  N   UNL     1     -10.437   6.216  22.097  0.00  0.00    -0.372 N 
ATOM      3  N   UNL     1      -9.562   5.200  20.235  0.00  0.00    -0.372 N 
ATOM      4  C   UNL     1     -10.594   5.804  20.833  0.00  0.00    +0.166 C 
ATOM      5  H   UNL     1     -12.516   6.442  20.728  0.00  0.00    +0.163 HD
ATOM      6  H   UNL     1      -9.566   6.081  22.592  0.00  0.00    +0.159 HD
ATOM      7  H   UNL     1     -11.177   6.693  22.598  0.00  0.00    +0.159 HD
ATOM      8  H   UNL     1      -9.618   4.860  19.284  0.00  0.00    +0.159 HD
ATOM      9  H   UNL     1      -8.686   5.045  20.718  0.00  0.00    +0.159 HD
ENDROOT
BRANCH   1  10
ATOM     10  C   UNL     1     -12.019   5.643  18.816  0.00  0.00    +0.151 C 
BRANCH  10  11
ATOM     11  C   UNL     1     -12.599   6.831  18.099  0.00  0.00    -0.028 A 
ATOM     12  C   UNL     1     -11.862   7.493  17.106  0.00  0.00    +0.005 A 
ATOM     13  C   UNL     1     -13.888   7.296  18.404  0.00  0.00    +0.005 A 
ATOM     14  C   UNL     1     -12.413   8.577  16.418  0.00  0.00    +0.000 A 
ATOM     15  C   UNL     1     -14.433   8.379  17.716  0.00  0.00    +0.000 A 
ATOM     16  C   UNL     1     -13.697   9.018  16.722  0.00  0.00    +0.000 A 
ENDBRANCH  10  11
ENDBRANCH   1  10
TORSDOF 2
ENDMDL
MODEL 2
REMARK VINA RESULT:    -4.930     25.382     27.461
REMARK INTER + INTRA:          -5.626
REMARK INTER:                  -5.456
REMARK INTRA:                  -0.170
REMARK UNBOUND:                -0.119
REMARK  Name = 1550473
REMARK  2 active torsions:
REMARK  status: ('A' for Active; 'I' for Inactive)
REMARK    1  A    between atoms: N_1  and  C_4
REMARK    2  A    between atoms: C_4  and  C_5
REMARK                            x       y       z     vdW  Elec       q    Type
REMARK                         _______ _______ _______ _____ _____    ______ ____
ROOT
ATOM      1  N   UNL     1       6.262  -9.755  14.728  0.00  0.00    -0.354 N 
ATOM      2  N   UNL     1       4.579 -10.375  13.263  0.00  0.00    -0.372 N 
ATOM      3  N   UNL     1       6.654  -9.874  12.421  0.00  0.00    -0.372 N 
ATOM      4  C   UNL     1       5.844  -9.996  13.478  0.00  0.00    +0.166 C 
ATOM      5  H   UNL     1       5.591  -9.836  15.484  0.00  0.00    +0.163 HD
ATOM      6  H   UNL     1       4.236 -10.567  12.331  0.00  0.00    +0.159 HD
ATOM      7  H   UNL     1       3.923 -10.500  14.024  0.00  0.00    +0.159 HD
ATOM      8  H   UNL     1       7.619  -9.587  12.516  0.00  0.00    +0.159 HD
ATOM      9  H   UNL     1       6.326 -10.051  11.479  0.00  0.00    +0.159 HD
ENDROOT
BRANCH   1  10
ATOM     10  C   UNL     1       7.634  -9.390  15.076  0.00  0.00    +0.151 C 
BRANCH  10  11
ATOM     11  C   UNL     1       8.411 -10.640  15.386  0.00  0.00    -0.028 A 
ATOM     12  C   UNL     1       9.530 -10.992  14.617  0.00  0.00    +0.005 A 
ATOM     13  C   UNL     1       8.036 -11.473  16.452  0.00  0.00    +0.005 A 
ATOM     14  C   UNL     1      10.269 -12.137  14.924  0.00  0.00    +0.000 A 
ATOM     15  C   UNL     1       8.777 -12.616  16.754  0.00  0.00    +0.000 A 
ATOM     16  C   UNL     1       9.895 -12.946  15.991  0.00  0.00    +0.000 A 
ENDBRANCH  10  11
ENDBRANCH   1  10
TORSDOF 2
ENDMDL
MODEL 3
REMARK VINA RESULT:    -4.839     28.211     29.661
REMARK INTER + INTRA:          -5.524
REMARK INTER:                  -5.385
REMARK INTRA:                  -0.138
REMARK UNBOUND:                -0.119
REMARK  Name = 1550473
REMARK  2 active torsions:
REMARK  status: ('A' for Active; 'I' for Inactive)
REMARK    1  A    between atoms: N_1  and  C_4
REMARK    2  A    between atoms: C_4  and  C_5
REMARK                            x       y       z     vdW  Elec       q    Type
REMARK                         _______ _______ _______ _____ _____    ______ ____
ROOT
ATOM      1  N   UNL     1     -13.119   7.454 -12.158  0.00  0.00    -0.354 N 
ATOM      2  N   UNL     1     -13.774   5.423 -13.058  0.00  0.00    -0.372 N 
ATOM      3  N   UNL     1     -15.356   7.051 -12.729  0.00  0.00    -0.372 N 
ATOM      4  C   UNL     1     -14.081   6.657 -12.642  0.00  0.00    +0.166 C 
ATOM      5  H   UNL     1     -12.178   7.085 -12.091  0.00  0.00    +0.163 HD
ATOM      6  H   UNL     1     -14.478   4.800 -13.431  0.00  0.00    +0.159 HD
ATOM      7  H   UNL     1     -12.824   5.073 -13.032  0.00  0.00    +0.159 HD
ATOM      8  H   UNL     1     -15.655   7.969 -12.426  0.00  0.00    +0.159 HD
ATOM      9  H   UNL     1     -16.077   6.439 -13.088  0.00  0.00    +0.159 HD
ENDROOT
BRANCH   1  10
ATOM     10  C   UNL     1     -13.339   8.834 -11.729  0.00  0.00    +0.151 C 
BRANCH  10  11
ATOM     11  C   UNL     1     -13.098   8.932 -10.248  0.00  0.00    -0.028 A 
ATOM     12  C   UNL     1     -12.564   7.845  -9.540  0.00  0.00    +0.005 A 
ATOM     13  C   UNL     1     -13.397  10.110  -9.547  0.00  0.00    +0.005 A 
ATOM     14  C   UNL     1     -12.312   7.946  -8.169  0.00  0.00    +0.000 A 
ATOM     15  C   UNL     1     -13.145  10.207  -8.179  0.00  0.00    +0.000 A 
ATOM     16  C   UNL     1     -12.600   9.125  -7.491  0.00  0.00    +0.000 A 
ENDBRANCH  10  11
ENDBRANCH   1  10
TORSDOF 2
ENDMDL
MODEL 4
REMARK VINA RESULT:    -4.802     24.941     26.213
REMARK INTER + INTRA:          -5.483
REMARK INTER:                  -5.334
REMARK INTRA:                  -0.148
REMARK UNBOUND:                -0.119
REMARK  Name = 1550473
REMARK  2 active torsions:
REMARK  status: ('A' for Active; 'I' for Inactive)
REMARK    1  A    between atoms: N_1  and  C_4
REMARK    2  A    between atoms: C_4  and  C_5
REMARK                            x       y       z     vdW  Elec       q    Type
REMARK                         _______ _______ _______ _____ _____    ______ ____
ROOT
ATOM      1  N   UNL     1       6.519 -11.061  18.959  0.00  0.00    -0.354 N 
ATOM      2  N   UNL     1       6.867 -10.226  21.091  0.00  0.00    -0.372 N 
ATOM      3  N   UNL     1       5.467  -9.092  19.670  0.00  0.00    -0.372 N 
ATOM      4  C   UNL     1       6.281 -10.130  19.892  0.00  0.00    +0.166 C 
ATOM      5  H   UNL     1       7.169 -11.807  19.179  0.00  0.00    +0.163 HD
ATOM      6  H   UNL     1       6.703  -9.539  21.816  0.00  0.00    +0.159 HD
ATOM      7  H   UNL     1       7.480 -10.997  21.324  0.00  0.00    +0.159 HD
ATOM      8  H   UNL     1       4.999  -8.958  18.784  0.00  0.00    +0.159 HD
ATOM      9  H   UNL     1       5.300  -8.388  20.378  0.00  0.00    +0.159 HD
ENDROOT
BRANCH   1  10
ATOM     10  C   UNL     1       5.889 -11.078  17.640  0.00  0.00    +0.151 C 
BRANCH  10  11
ATOM     11  C   UNL     1       6.945 -10.877  16.589  0.00  0.00    -0.028 A 
ATOM     12  C   UNL     1       6.841  -9.824  15.668  0.00  0.00    +0.005 A 
ATOM     13  C   UNL     1       8.056 -11.731  16.512  0.00  0.00    +0.005 A 
ATOM     14  C   UNL     1       7.837  -9.618  14.710  0.00  0.00    +0.000 A 
ATOM     15  C   UNL     1       9.048 -11.523  15.554  0.00  0.00    +0.000 A 
ATOM     16  C   UNL     1       8.939 -10.464  14.655  0.00  0.00    +0.000 A 
ENDBRANCH  10  11
ENDBRANCH   1  10
TORSDOF 2
ENDMDL
MODEL 5
REMARK VINA RESULT:    -4.683     48.643     49.750
REMARK INTER + INTRA:          -5.349
REMARK INTER:                  -5.207
REMARK INTRA:                  -0.143
REMARK UNBOUND:                -0.119
REMARK  Name = 1550473
REMARK  2 active torsions:
REMARK  status: ('A' for Active; 'I' for Inactive)
REMARK    1  A    between atoms: N_1  and  C_4
REMARK    2  A    between atoms: C_4  and  C_5
REMARK                            x       y       z     vdW  Elec       q    Type
REMARK                         _______ _______ _______ _____ _____    ______ ____
ROOT
ATOM      1  N   UNL     1       9.416 -13.349 -23.060  0.00  0.00    -0.354 N 
ATOM      2  N   UNL     1       8.035 -14.785 -24.241  0.00  0.00    -0.372 N 
ATOM      3  N   UNL     1       9.154 -15.584 -22.405  0.00  0.00    -0.372 N 
ATOM      4  C   UNL     1       8.879 -14.565 -23.226  0.00  0.00    +0.166 C 
ATOM      5  H   UNL     1       9.191 -12.627 -23.735  0.00  0.00    +0.163 HD
ATOM      6  H   UNL     1       7.611 -15.691 -24.390  0.00  0.00    +0.159 HD
ATOM      7  H   UNL     1       7.775 -14.049 -24.887  0.00  0.00    +0.159 HD
ATOM      8  H   UNL     1       9.788 -15.485 -21.623  0.00  0.00    +0.159 HD
ATOM      9  H   UNL     1       8.749 -16.501 -22.543  0.00  0.00    +0.159 HD
ENDROOT
BRANCH   1  10
ATOM     10  C   UNL     1      10.304 -12.991 -21.955  0.00  0.00    +0.151 C 
BRANCH  10  11
ATOM     11  C   UNL     1       9.753 -11.780 -21.255  0.00  0.00    -0.028 A 
ATOM     12  C   UNL     1       8.847 -10.931 -21.907  0.00  0.00    +0.005 A 
ATOM     13  C   UNL     1      10.127 -11.480 -19.936  0.00  0.00    +0.005 A 
ATOM     14  C   UNL     1       8.311  -9.823 -21.246  0.00  0.00    +0.000 A 
ATOM     15  C   UNL     1       9.591 -10.372 -19.280  0.00  0.00    +0.000 A 
ATOM     16  C   UNL     1       8.681  -9.545 -19.934  0.00  0.00    +0.000 A 
ENDBRANCH  10  11
ENDBRANCH   1  10
TORSDOF 2
ENDMDL
MODEL 6
REMARK VINA RESULT:    -4.611     11.780     14.362
REMARK INTER + INTRA:          -5.269
REMARK INTER:                  -5.089
REMARK INTRA:                  -0.180
REMARK UNBOUND:                -0.119
REMARK  Name = 1550473
REMARK  2 active torsions:
REMARK  status: ('A' for Active; 'I' for Inactive)
REMARK    1  A    between atoms: N_1  and  C_4
REMARK    2  A    between atoms: C_4  and  C_5
REMARK                            x       y       z     vdW  Elec       q    Type
REMARK                         _______ _______ _______ _____ _____    ______ ____
ROOT
ATOM      1  N   UNL     1      -0.957   1.729  21.396  0.00  0.00    -0.354 N 
ATOM      2  N   UNL     1      -2.902   2.892  21.871  0.00  0.00    -0.372 N 
ATOM      3  N   UNL     1      -1.860   3.249  19.858  0.00  0.00    -0.372 N 
ATOM      4  C   UNL     1      -1.893   2.617  21.036  0.00  0.00    +0.166 C 
ATOM      5  H   UNL     1      -1.022   1.307  22.315  0.00  0.00    +0.163 HD
ATOM      6  H   UNL     1      -3.625   3.555  21.625  0.00  0.00    +0.159 HD
ATOM      7  H   UNL     1      -2.990   2.434  22.769  0.00  0.00    +0.159 HD
ATOM      8  H   UNL     1      -1.122   3.091  19.186  0.00  0.00    +0.159 HD
ATOM      9  H   UNL     1      -2.568   3.925  19.599  0.00  0.00    +0.159 HD
ENDROOT
BRANCH   1  10
ATOM     10  C   UNL     1       0.154   1.319  20.538  0.00  0.00    +0.151 C 
BRANCH  10  11
ATOM     11  C   UNL     1       1.390   2.076  20.940  0.00  0.00    -0.028 A 
ATOM     12  C   UNL     1       1.851   3.150  20.164  0.00  0.00    +0.005 A 
ATOM     13  C   UNL     1       2.102   1.728  22.098  0.00  0.00    +0.005 A 
ATOM     14  C   UNL     1       2.981   3.872  20.552  0.00  0.00    +0.000 A 
ATOM     15  C   UNL     1       3.231   2.451  22.482  0.00  0.00    +0.000 A 
ATOM     16  C   UNL     1       3.669   3.525  21.711  0.00  0.00    +0.000 A 
ENDBRANCH  10  11
ENDBRANCH   1  10
TORSDOF 2
ENDMDL
MODEL 7
REMARK VINA RESULT:    -4.512     28.157     29.418
REMARK INTER + INTRA:          -5.158
REMARK INTER:                  -5.035
REMARK INTRA:                  -0.124
REMARK UNBOUND:                -0.119
REMARK  Name = 1550473
REMARK  2 active torsions:
REMARK  status: ('A' for Active; 'I' for Inactive)
REMARK    1  A    between atoms: N_1  and  C_4
REMARK    2  A    between atoms: C_4  and  C_5
REMARK                            x       y       z     vdW  Elec       q    Type
REMARK                         _______ _______ _______ _____ _____    ______ ____
ROOT
ATOM      1  N   UNL     1       2.231 -14.939   4.531  0.00  0.00    -0.354 N 
ATOM      2  N   UNL     1       2.086 -16.323   2.680  0.00  0.00    -0.372 N 
ATOM      3  N   UNL     1       0.156 -15.473   3.584  0.00  0.00    -0.372 N 
ATOM      4  C   UNL     1       1.489 -15.569   3.611  0.00  0.00    +0.166 C 
ATOM      5  H   UNL     1       3.236 -15.077   4.516  0.00  0.00    +0.163 HD
ATOM      6  H   UNL     1       1.552 -16.808   1.971  0.00  0.00    +0.159 HD
ATOM      7  H   UNL     1       3.093 -16.422   2.639  0.00  0.00    +0.159 HD
ATOM      8  H   UNL     1      -0.356 -14.924   4.262  0.00  0.00    +0.159 HD
ATOM      9  H   UNL     1      -0.397 -15.960   2.889  0.00  0.00    +0.159 HD
ENDROOT
BRANCH   1  10
ATOM     10  C   UNL     1       1.684 -14.051   5.555  0.00  0.00    +0.151 C 
BRANCH  10  11
ATOM     11  C   UNL     1       2.596 -14.059   6.751  0.00  0.00    -0.028 A 
ATOM     12  C   UNL     1       2.118 -13.679   8.013  0.00  0.00    +0.005 A 
ATOM     13  C   UNL     1       3.938 -14.452   6.629  0.00  0.00    +0.005 A 
ATOM     14  C   UNL     1       2.956 -13.715   9.130  0.00  0.00    +0.000 A 
ATOM     15  C   UNL     1       4.772 -14.486   7.746  0.00  0.00    +0.000 A 
ATOM     16  C   UNL     1       4.280 -14.120   8.997  0.00  0.00    +0.000 A 
ENDBRANCH  10  11
ENDBRANCH   1  10
TORSDOF 2
ENDMDL
MODEL 8
REMARK VINA RESULT:    -4.427     28.143     29.810
REMARK INTER + INTRA:          -5.064
REMARK INTER:                  -4.927
REMARK INTRA:                  -0.137
REMARK UNBOUND:                -0.119
REMARK  Name = 1550473
REMARK  2 active torsions:
REMARK  status: ('A' for Active; 'I' for Inactive)
REMARK    1  A    between atoms: N_1  and  C_4
REMARK    2  A    between atoms: C_4  and  C_5
REMARK                            x       y       z     vdW  Elec       q    Type
REMARK                         _______ _______ _______ _____ _____    ______ ____
ROOT
ATOM      1  N   UNL     1      16.476  -2.858  11.715  0.00  0.00    -0.354 N 
ATOM      2  N   UNL     1      17.915  -3.539  10.033  0.00  0.00    -0.372 N 
ATOM      3  N   UNL     1      18.134  -4.464  12.121  0.00  0.00    -0.372 N 
ATOM      4  C   UNL     1      17.500  -3.617  11.303  0.00  0.00    +0.166 C 
ATOM      5  H   UNL     1      16.057  -2.214  11.053  0.00  0.00    +0.163 HD
ATOM      6  H   UNL     1      18.683  -4.102   9.692  0.00  0.00    +0.159 HD
ATOM      7  H   UNL     1      17.465  -2.928   9.362  0.00  0.00    +0.159 HD
ATOM      8  H   UNL     1      17.873  -4.565  13.093  0.00  0.00    +0.159 HD
ATOM      9  H   UNL     1      18.912  -5.027  11.802  0.00  0.00    +0.159 HD
ENDROOT
BRANCH   1  10
ATOM     10  C   UNL     1      15.912  -2.907  13.063  0.00  0.00    +0.151 C 
BRANCH  10  11
ATOM     11  C   UNL     1      14.420  -3.070  12.965  0.00  0.00    -0.028 A 
ATOM     12  C   UNL     1      13.564  -2.029  13.354  0.00  0.00    +0.005 A 
ATOM     13  C   UNL     1      13.857  -4.260  12.480  0.00  0.00    +0.005 A 
ATOM     14  C   UNL     1      12.179  -2.169  13.236  0.00  0.00    +0.000 A 
ATOM     15  C   UNL     1      12.474  -4.396  12.364  0.00  0.00    +0.000 A 
ATOM     16  C   UNL     1      11.635  -3.349  12.740  0.00  0.00    +0.000 A 
ENDBRANCH  10  11
ENDBRANCH   1  10
TORSDOF 2
ENDMDL
MODEL 9
REMARK VINA RESULT:    -4.421     10.599     12.554
REMARK INTER + INTRA:          -5.057
REMARK INTER:                  -4.933
REMARK INTRA:                  -0.124
REMARK UNBOUND:                -0.119
REMARK  Name = 1550473
REMARK  2 active torsions:
REMARK  status: ('A' for Active; 'I' for Inactive)
REMARK    1  A    between atoms: N_1  and  C_4
REMARK    2  A    between atoms: C_4  and  C_5
REMARK                            x       y       z     vdW  Elec       q    Type
REMARK                         _______ _______ _______ _____ _____    ______ ____
ROOT
ATOM      1  N   UNL     1      -2.255   4.497  21.785  0.00  0.00    -0.354 N 
ATOM      2  N   UNL     1      -2.389   6.448  23.026  0.00  0.00    -0.372 N 
ATOM      3  N   UNL     1      -2.384   6.588  20.735  0.00  0.00    -0.372 N 
ATOM      4  C   UNL     1      -2.342   5.833  21.838  0.00  0.00    +0.166 C 
ATOM      5  H   UNL     1      -2.196   3.984  22.657  0.00  0.00    +0.163 HD
ATOM      6  H   UNL     1      -2.458   7.455  23.097  0.00  0.00    +0.159 HD
ATOM      7  H   UNL     1      -2.376   5.930  23.895  0.00  0.00    +0.159 HD
ATOM      8  H   UNL     1      -2.346   6.185  19.808  0.00  0.00    +0.159 HD
ATOM      9  H   UNL     1      -2.441   7.597  20.786  0.00  0.00    +0.159 HD
ENDROOT
BRANCH   1  10
ATOM     10  C   UNL     1      -2.251   3.726  20.543  0.00  0.00    +0.151 C 
BRANCH  10  11
ATOM     11  C   UNL     1      -0.904   3.080  20.370  0.00  0.00    -0.028 A 
ATOM     12  C   UNL     1       0.267   3.849  20.431  0.00  0.00    +0.005 A 
ATOM     13  C   UNL     1      -0.793   1.699  20.150  0.00  0.00    +0.005 A 
ATOM     14  C   UNL     1       1.520   3.245  20.300  0.00  0.00    +0.000 A 
ATOM     15  C   UNL     1       0.460   1.099  20.019  0.00  0.00    +0.000 A 
ATOM     16  C   UNL     1       1.616   1.872  20.096  0.00  0.00    +0.000 A 
ENDBRANCH  10  11
ENDBRANCH   1  10
TORSDOF 2
ENDMDL
