MODEL 1
REMARK VINA RESULT:    -4.837      0.000      0.000
REMARK INTER + INTRA:          -5.560
REMARK INTER:                  -5.403
REMARK INTRA:                  -0.157
REMARK UNBOUND:                -0.157
REMARK  Name = 1550473
REMARK  2 active torsions:
REMARK  status: ('A' for Active; 'I' for Inactive)
REMARK    1  A    between atoms: N_1  and  C_4
REMARK    2  A    between atoms: C_4  and  C_5
REMARK                            x       y       z     vdW  Elec       q    Type
REMARK                         _______ _______ _______ _____ _____    ______ ____
ROOT
ATOM      1  N   UNL     1      -6.070   9.518 -15.339  0.00  0.00    -0.354 N 
ATOM      2  N   UNL     1      -7.367   7.618 -15.610  0.00  0.00    -0.372 N 
ATOM      3  N   UNL     1      -7.178   9.091 -17.359  0.00  0.00    -0.372 N 
ATOM      4  C   UNL     1      -6.864   8.756 -16.104  0.00  0.00    +0.166 C 
ATOM      5  H   UNL     1      -5.895   9.223 -14.385  0.00  0.00    +0.163 HD
ATOM      6  H   UNL     1      -7.966   7.021 -16.165  0.00  0.00    +0.159 HD
ATOM      7  H   UNL     1      -7.153   7.303 -14.672  0.00  0.00    +0.159 HD
ATOM      8  H   UNL     1      -6.835   9.940 -17.789  0.00  0.00    +0.159 HD
ATOM      9  H   UNL     1      -7.785   8.513 -17.926  0.00  0.00    +0.159 HD
ENDROOT
BRANCH   1  10
ATOM     10  C   UNL     1      -5.428  10.748 -15.798  0.00  0.00    +0.151 C 
BRANCH  10  11
ATOM     11  C   UNL     1      -3.980  10.466 -16.090  0.00  0.00    -0.028 A 
ATOM     12  C   UNL     1      -3.598   9.896 -17.314  0.00  0.00    +0.005 A 
ATOM     13  C   UNL     1      -2.984  10.772 -15.150  0.00  0.00    +0.005 A 
ATOM     14  C   UNL     1      -2.251   9.662 -17.598  0.00  0.00    +0.000 A 
ATOM     15  C   UNL     1      -1.640  10.536 -15.437  0.00  0.00    +0.000 A 
ATOM     16  C   UNL     1      -1.273   9.983 -16.662  0.00  0.00    +0.000 A 
ENDBRANCH  10  11
ENDBRANCH   1  10
TORSDOF 2
ENDMDL
MODEL 2
REMARK VINA RESULT:    -4.835     30.190     30.939
REMARK INTER + INTRA:          -5.557
REMARK INTER:                  -5.422
REMARK INTRA:                  -0.136
REMARK UNBOUND:                -0.157
REMARK  Name = 1550473
REMARK  2 active torsions:
REMARK  status: ('A' for Active; 'I' for Inactive)
REMARK    1  A    between atoms: N_1  and  C_4
REMARK    2  A    between atoms: C_4  and  C_5
REMARK                            x       y       z     vdW  Elec       q    Type
REMARK                         _______ _______ _______ _____ _____    ______ ____
ROOT
ATOM      1  N   UNL     1     -13.854   4.600  11.929  0.00  0.00    -0.354 N 
ATOM      2  N   UNL     1     -11.648   4.436  12.617  0.00  0.00    -0.372 N 
ATOM      3  N   UNL     1     -13.219   3.078  13.594  0.00  0.00    -0.372 N 
ATOM      4  C   UNL     1     -12.923   4.037  12.711  0.00  0.00    +0.166 C 
ATOM      5  H   UNL     1     -13.570   5.343  11.301  0.00  0.00    +0.163 HD
ATOM      6  H   UNL     1     -10.923   4.027  13.191  0.00  0.00    +0.159 HD
ATOM      7  H   UNL     1     -11.360   5.147  11.956  0.00  0.00    +0.159 HD
ATOM      8  H   UNL     1     -14.163   2.737  13.718  0.00  0.00    +0.159 HD
ATOM      9  H   UNL     1     -12.509   2.666  14.187  0.00  0.00    +0.159 HD
ENDROOT
BRANCH   1  10
ATOM     10  C   UNL     1     -15.260   4.200  11.915  0.00  0.00    +0.151 C 
BRANCH  10  11
ATOM     11  C   UNL     1     -16.118   5.428  11.780  0.00  0.00    -0.028 A 
ATOM     12  C   UNL     1     -15.537   6.678  11.522  0.00  0.00    +0.005 A 
ATOM     13  C   UNL     1     -17.514   5.347  11.905  0.00  0.00    +0.005 A 
ATOM     14  C   UNL     1     -16.336   7.813  11.367  0.00  0.00    +0.000 A 
ATOM     15  C   UNL     1     -18.308   6.483  11.750  0.00  0.00    +0.000 A 
ATOM     16  C   UNL     1     -17.719   7.715  11.479  0.00  0.00    +0.000 A 
ENDBRANCH  10  11
ENDBRANCH   1  10
TORSDOF 2
ENDMDL
MODEL 3
REMARK VINA RESULT:    -4.677     33.683     34.916
REMARK INTER + INTRA:          -5.381
REMARK INTER:                  -5.219
REMARK INTRA:                  -0.162
REMARK UNBOUND:                -0.157
REMARK  Name = 1550473
REMARK  2 active torsions:
REMARK  status: ('A' for Active; 'I' for Inactive)
REMARK    1  A    between atoms: N_1  and  C_4
REMARK    2  A    between atoms: C_4  and  C_5
REMARK                            x       y       z     vdW  Elec       q    Type
REMARK                         _______ _______ _______ _____ _____    ______ ____
ROOT
ATOM      1  N   UNL     1      14.854  -3.480  11.857  0.00  0.00    -0.354 N 
ATOM      2  N   UNL     1      14.569  -5.314  13.242  0.00  0.00    -0.372 N 
ATOM      3  N   UNL     1      12.800  -3.893  12.906  0.00  0.00    -0.372 N 
ATOM      4  C   UNL     1      14.073  -4.216  12.660  0.00  0.00    +0.166 C 
ATOM      5  H   UNL     1      15.820  -3.761  11.735  0.00  0.00    +0.163 HD
ATOM      6  H   UNL     1      14.003  -5.891  13.849  0.00  0.00    +0.159 HD
ATOM      7  H   UNL     1      15.521  -5.619  13.081  0.00  0.00    +0.159 HD
ATOM      8  H   UNL     1      12.367  -3.072  12.503  0.00  0.00    +0.159 HD
ATOM      9  H   UNL     1      12.221  -4.451  13.521  0.00  0.00    +0.159 HD
ENDROOT
BRANCH   1  10
ATOM     10  C   UNL     1      14.396  -2.296  11.133  0.00  0.00    +0.151 C 
BRANCH  10  11
ATOM     11  C   UNL     1      14.140  -2.666   9.698  0.00  0.00    -0.028 A 
ATOM     12  C   UNL     1      13.122  -2.033   8.970  0.00  0.00    +0.005 A 
ATOM     13  C   UNL     1      14.917  -3.645   9.058  0.00  0.00    +0.005 A 
ATOM     14  C   UNL     1      12.904  -2.355   7.628  0.00  0.00    +0.000 A 
ATOM     15  C   UNL     1      14.695  -3.964   7.719  0.00  0.00    +0.000 A 
ATOM     16  C   UNL     1      13.690  -3.318   7.003  0.00  0.00    +0.000 A 
ENDBRANCH  10  11
ENDBRANCH   1  10
TORSDOF 2
ENDMDL
MODEL 4
REMARK VINA RESULT:    -4.608     36.718     37.603
REMARK INTER + INTRA:          -5.304
REMARK INTER:                  -5.180
REMARK INTRA:                  -0.124
REMARK UNBOUND:                -0.157
REMARK  Name = 1550473
REMARK  2 active torsions:
REMARK  status: ('A' for Active; 'I' for Inactive)
REMARK    1  A    between atoms: N_1  and  C_4
REMARK    2  A    between atoms: C_4  and  C_5
REMARK                            x       y       z     vdW  Elec       q    Type
REMARK                         _______ _______ _______ _____ _____    ______ ____
ROOT
ATOM      1  N   UNL     1       6.715  -8.486  14.883  0.00  0.00    -0.354 N 
ATOM      2  N   UNL     1       6.608  -6.775  16.440  0.00  0.00    -0.372 N 
ATOM      3  N   UNL     1       8.356  -8.258  16.540  0.00  0.00    -0.372 N 
ATOM      4  C   UNL     1       7.229  -7.852  15.945  0.00  0.00    +0.166 C 
ATOM      5  H   UNL     1       5.841  -8.147  14.496  0.00  0.00    +0.163 HD
ATOM      6  H   UNL     1       6.975  -6.274  17.238  0.00  0.00    +0.159 HD
ATOM      7  H   UNL     1       5.760  -6.410  16.023  0.00  0.00    +0.159 HD
ATOM      8  H   UNL     1       8.869  -9.068  16.219  0.00  0.00    +0.159 HD
ATOM      9  H   UNL     1       8.732  -7.777  17.347  0.00  0.00    +0.159 HD
ENDROOT
BRANCH   1  10
ATOM     10  C   UNL     1       7.341  -9.637  14.234  0.00  0.00    +0.151 C 
BRANCH  10  11
ATOM     11  C   UNL     1       6.357 -10.261  13.284  0.00  0.00    -0.028 A 
ATOM     12  C   UNL     1       6.775 -11.234  12.364  0.00  0.00    +0.005 A 
ATOM     13  C   UNL     1       5.004  -9.889  13.302  0.00  0.00    +0.005 A 
ATOM     14  C   UNL     1       5.856 -11.836  11.501  0.00  0.00    +0.000 A 
ATOM     15  C   UNL     1       4.090 -10.492  12.439  0.00  0.00    +0.000 A 
ATOM     16  C   UNL     1       4.515 -11.467  11.541  0.00  0.00    +0.000 A 
ENDBRANCH  10  11
ENDBRANCH   1  10
TORSDOF 2
ENDMDL
MODEL 5
REMARK VINA RESULT:    -4.583     10.075     11.180
REMARK INTER + INTRA:          -5.276
REMARK INTER:                  -5.132
REMARK INTRA:                  -0.144
REMARK UNBOUND:                -0.157
REMARK  Name = 1550473
REMARK  2 active torsions:
REMARK  status: ('A' for Active; 'I' for Inactive)
REMARK    1  A    between atoms: N_1  and  C_4
REMARK    2  A    between atoms: C_4  and  C_5
REMARK                            x       y       z     vdW  Elec       q    Type
REMARK                         _______ _______ _______ _____ _____    ______ ____
ROOT
ATOM      1  N   UNL     1      -9.068   2.526 -23.650  0.00  0.00    -0.354 N 
ATOM      2  N   UNL     1     -10.912   1.126 -23.574  0.00  0.00    -0.372 N 
ATOM      3  N   UNL     1      -9.658   1.413 -21.674  0.00  0.00    -0.372 N 
ATOM      4  C   UNL     1      -9.866   1.697 -22.964  0.00  0.00    +0.166 C 
ATOM      5  H   UNL     1      -9.263   2.677 -24.634  0.00  0.00    +0.163 HD
ATOM      6  H   UNL     1     -11.533   0.499 -23.081  0.00  0.00    +0.159 HD
ATOM      7  H   UNL     1     -11.130   1.314 -24.545  0.00  0.00    +0.159 HD
ATOM      8  H   UNL     1      -8.883   1.807 -21.157  0.00  0.00    +0.159 HD
ATOM      9  H   UNL     1     -10.262   0.779 -21.166  0.00  0.00    +0.159 HD
ENDROOT
BRANCH   1  10
ATOM     10  C   UNL     1      -7.936   3.241 -23.065  0.00  0.00    +0.151 C 
BRANCH  10  11
ATOM     11  C   UNL     1      -6.686   2.884 -23.822  0.00  0.00    -0.028 A 
ATOM     12  C   UNL     1      -5.440   3.386 -23.417  0.00  0.00    +0.005 A 
ATOM     13  C   UNL     1      -6.740   2.039 -24.941  0.00  0.00    +0.005 A 
ATOM     14  C   UNL     1      -4.275   3.031 -24.101  0.00  0.00    +0.000 A 
ATOM     15  C   UNL     1      -5.574   1.687 -25.622  0.00  0.00    +0.000 A 
ATOM     16  C   UNL     1      -4.342   2.181 -25.200  0.00  0.00    +0.000 A 
ENDBRANCH  10  11
ENDBRANCH   1  10
TORSDOF 2
ENDMDL
MODEL 6
REMARK VINA RESULT:    -4.557     33.443     34.690
REMARK INTER + INTRA:          -5.247
REMARK INTER:                  -5.098
REMARK INTRA:                  -0.149
REMARK UNBOUND:                -0.157
REMARK  Name = 1550473
REMARK  2 active torsions:
REMARK  status: ('A' for Active; 'I' for Inactive)
REMARK    1  A    between atoms: N_1  and  C_4
REMARK    2  A    between atoms: C_4  and  C_5
REMARK                            x       y       z     vdW  Elec       q    Type
REMARK                         _______ _______ _______ _____ _____    ______ ____
ROOT
ATOM      1  N   UNL     1      14.661  -2.837   8.192  0.00  0.00    -0.354 N 
ATOM      2  N   UNL     1      14.043  -3.549   6.076  0.00  0.00    -0.372 N 
ATOM      3  N   UNL     1      12.550  -2.321   7.312  0.00  0.00    -0.372 N 
ATOM      4  C   UNL     1      13.753  -2.897   7.208  0.00  0.00    +0.166 C 
ATOM      5  H   UNL     1      15.543  -3.319   8.063  0.00  0.00    +0.163 HD
ATOM      6  H   UNL     1      13.380  -3.608   5.315  0.00  0.00    +0.159 HD
ATOM      7  H   UNL     1      14.943  -3.991   5.932  0.00  0.00    +0.159 HD
ATOM      8  H   UNL     1      12.267  -1.819   8.143  0.00  0.00    +0.159 HD
ATOM      9  H   UNL     1      11.868  -2.379   6.567  0.00  0.00    +0.159 HD
ENDROOT
BRANCH   1  10
ATOM     10  C   UNL     1      14.464  -2.106   9.442  0.00  0.00    +0.151 C 
BRANCH  10  11
ATOM     11  C   UNL     1      14.278  -3.091  10.563  0.00  0.00    -0.028 A 
ATOM     12  C   UNL     1      14.724  -4.414  10.429  0.00  0.00    +0.005 A 
ATOM     13  C   UNL     1      13.661  -2.707  11.763  0.00  0.00    +0.005 A 
ATOM     14  C   UNL     1      14.578  -5.322  11.481  0.00  0.00    +0.000 A 
ATOM     15  C   UNL     1      13.516  -3.616  12.811  0.00  0.00    +0.000 A 
ATOM     16  C   UNL     1      13.977  -4.923  12.670  0.00  0.00    +0.000 A 
ENDBRANCH  10  11
ENDBRANCH   1  10
TORSDOF 2
ENDMDL
MODEL 7
REMARK VINA RESULT:    -4.530     21.671     22.867
REMARK INTER + INTRA:          -5.217
REMARK INTER:                  -5.093
REMARK INTRA:                  -0.123
REMARK UNBOUND:                -0.157
REMARK  Name = 1550473
REMARK  2 active torsions:
REMARK  status: ('A' for Active; 'I' for Inactive)
REMARK    1  A    between atoms: N_1  and  C_4
REMARK    2  A    between atoms: C_4  and  C_5
REMARK                            x       y       z     vdW  Elec       q    Type
REMARK                         _______ _______ _______ _____ _____    ______ ____
ROOT
ATOM      1  N   UNL     1      -8.997  20.133   1.872  0.00  0.00    -0.354 N 
ATOM      2  N   UNL     1      -9.587  19.333  -0.220  0.00  0.00    -0.372 N 
ATOM      3  N   UNL     1      -7.694  18.516   0.787  0.00  0.00    -0.372 N 
ATOM      4  C   UNL     1      -8.753  19.331   0.827  0.00  0.00    +0.166 C 
ATOM      5  H   UNL     1      -9.800  20.750   1.828  0.00  0.00    +0.163 HD
ATOM      6  H   UNL     1      -9.430  18.736  -1.021  0.00  0.00    +0.159 HD
ATOM      7  H   UNL     1     -10.414  19.917  -0.242  0.00  0.00    +0.159 HD
ATOM      8  H   UNL     1      -7.023  18.471   1.543  0.00  0.00    +0.159 HD
ATOM      9  H   UNL     1      -7.514  17.919  -0.011  0.00  0.00    +0.159 HD
ENDROOT
BRANCH   1  10
ATOM     10  C   UNL     1      -8.181  20.168   3.084  0.00  0.00    +0.151 C 
BRANCH  10  11
ATOM     11  C   UNL     1      -9.040  19.807   4.265  0.00  0.00    -0.028 A 
ATOM     12  C   UNL     1     -10.320  19.267   4.075  0.00  0.00    +0.005 A 
ATOM     13  C   UNL     1      -8.576  19.997   5.576  0.00  0.00    +0.005 A 
ATOM     14  C   UNL     1     -11.107  18.904   5.171  0.00  0.00    +0.000 A 
ATOM     15  C   UNL     1      -9.365  19.634   6.667  0.00  0.00    +0.000 A 
ATOM     16  C   UNL     1     -10.629  19.085   6.465  0.00  0.00    +0.000 A 
ENDBRANCH  10  11
ENDBRANCH   1  10
TORSDOF 2
ENDMDL
MODEL 8
REMARK VINA RESULT:    -4.445     27.638     28.532
REMARK INTER + INTRA:          -5.122
REMARK INTER:                  -4.985
REMARK INTRA:                  -0.137
REMARK UNBOUND:                -0.157
REMARK  Name = 1550473
REMARK  2 active torsions:
REMARK  status: ('A' for Active; 'I' for Inactive)
REMARK    1  A    between atoms: N_1  and  C_4
REMARK    2  A    between atoms: C_4  and  C_5
REMARK                            x       y       z     vdW  Elec       q    Type
REMARK                         _______ _______ _______ _____ _____    ______ ____
ROOT
ATOM      1  N   UNL     1      -3.213 -17.995 -10.295  0.00  0.00    -0.354 N 
ATOM      2  N   UNL     1      -4.380 -16.177  -9.463  0.00  0.00    -0.372 N 
ATOM      3  N   UNL     1      -4.999 -17.059 -11.489  0.00  0.00    -0.372 N 
ATOM      4  C   UNL     1      -4.191 -17.089 -10.424  0.00  0.00    +0.166 C 
ATOM      5  H   UNL     1      -2.615 -17.946  -9.478  0.00  0.00    +0.163 HD
ATOM      6  H   UNL     1      -5.113 -15.483  -9.530  0.00  0.00    +0.159 HD
ATOM      7  H   UNL     1      -3.811 -16.159  -8.625  0.00  0.00    +0.159 HD
ATOM      8  H   UNL     1      -4.905 -17.716 -12.251  0.00  0.00    +0.159 HD
ATOM      9  H   UNL     1      -5.730 -16.365 -11.580  0.00  0.00    +0.159 HD
ENDROOT
BRANCH   1  10
ATOM     10  C   UNL     1      -2.957 -19.065 -11.259  0.00  0.00    +0.151 C 
BRANCH  10  11
ATOM     11  C   UNL     1      -1.539 -18.957 -11.748  0.00  0.00    -0.028 A 
ATOM     12  C   UNL     1      -1.244 -19.089 -13.112  0.00  0.00    +0.005 A 
ATOM     13  C   UNL     1      -0.486 -18.717 -10.851  0.00  0.00    +0.005 A 
ATOM     14  C   UNL     1       0.069 -18.960 -13.570  0.00  0.00    +0.000 A 
ATOM     15  C   UNL     1       0.824 -18.590 -11.312  0.00  0.00    +0.000 A 
ATOM     16  C   UNL     1       1.101 -18.708 -12.672  0.00  0.00    +0.000 A 
ENDBRANCH  10  11
ENDBRANCH   1  10
TORSDOF 2
ENDMDL
MODEL 9
REMARK VINA RESULT:    -4.400     11.201     12.443
REMARK INTER + INTRA:          -5.071
REMARK INTER:                  -4.946
REMARK INTRA:                  -0.125
REMARK UNBOUND:                -0.157
REMARK  Name = 1550473
REMARK  2 active torsions:
REMARK  status: ('A' for Active; 'I' for Inactive)
REMARK    1  A    between atoms: N_1  and  C_4
REMARK    2  A    between atoms: C_4  and  C_5
REMARK                            x       y       z     vdW  Elec       q    Type
REMARK                         _______ _______ _______ _____ _____    ______ ____
ROOT
ATOM      1  N   UNL     1      -1.463   1.705 -24.311  0.00  0.00    -0.354 N 
ATOM      2  N   UNL     1       0.066   0.285 -23.305  0.00  0.00    -0.372 N 
ATOM      3  N   UNL     1      -0.628  -0.169 -25.444  0.00  0.00    -0.372 N 
ATOM      4  C   UNL     1      -0.686   0.615 -24.362  0.00  0.00    +0.166 C 
ATOM      5  H   UNL     1      -1.485   2.240 -23.450  0.00  0.00    +0.163 HD
ATOM      6  H   UNL     1       0.665  -0.529 -23.316  0.00  0.00    +0.159 HD
ATOM      7  H   UNL     1       0.077   0.848 -22.463  0.00  0.00    +0.159 HD
ATOM      8  H   UNL     1      -1.175   0.022 -26.273  0.00  0.00    +0.159 HD
ATOM      9  H   UNL     1      -0.044  -0.995 -25.470  0.00  0.00    +0.159 HD
ENDROOT
BRANCH   1  10
ATOM     10  C   UNL     1      -2.279   2.181 -25.426  0.00  0.00    +0.151 C 
BRANCH  10  11
ATOM     11  C   UNL     1      -3.693   2.375 -24.954  0.00  0.00    -0.028 A 
ATOM     12  C   UNL     1      -3.970   3.210 -23.861  0.00  0.00    +0.005 A 
ATOM     13  C   UNL     1      -4.761   1.731 -25.597  0.00  0.00    +0.005 A 
ATOM     14  C   UNL     1      -5.286   3.415 -23.440  0.00  0.00    +0.000 A 
ATOM     15  C   UNL     1      -6.074   1.937 -25.173  0.00  0.00    +0.000 A 
ATOM     16  C   UNL     1      -6.336   2.781 -24.097  0.00  0.00    +0.000 A 
ENDBRANCH  10  11
ENDBRANCH   1  10
TORSDOF 2
ENDMDL
