MODEL 1
REMARK VINA RESULT:    -6.171      0.000      0.000
REMARK INTER + INTRA:          -7.029
REMARK INTER:                  -6.893
REMARK INTRA:                  -0.136
REMARK UNBOUND:                -0.136
REMARK  Name = 1550473
REMARK  2 active torsions:
REMARK  status: ('A' for Active; 'I' for Inactive)
REMARK    1  A    between atoms: N_1  and  C_4
REMARK    2  A    between atoms: C_4  and  C_5
REMARK                            x       y       z     vdW  Elec       q    Type
REMARK                         _______ _______ _______ _____ _____    ______ ____
ROOT
ATOM      1  N   UNL     1      -6.092  -6.799  -4.568  0.00  0.00    -0.354 N 
ATOM      2  N   UNL     1      -7.416  -5.069  -3.782  0.00  0.00    -0.372 N 
ATOM      3  N   UNL     1      -8.057  -6.180  -5.685  0.00  0.00    -0.372 N 
ATOM      4  C   UNL     1      -7.181  -6.028  -4.686  0.00  0.00    +0.166 C 
ATOM      5  H   UNL     1      -5.451  -6.614  -3.805  0.00  0.00    +0.163 HD
ATOM      6  H   UNL     1      -8.231  -4.474  -3.843  0.00  0.00    +0.159 HD
ATOM      7  H   UNL     1      -6.797  -4.916  -2.995  0.00  0.00    +0.159 HD
ATOM      8  H   UNL     1      -7.934  -6.882  -6.403  0.00  0.00    +0.159 HD
ATOM      9  H   UNL     1      -8.872  -5.587  -5.770  0.00  0.00    +0.159 HD
ENDROOT
BRANCH   1  10
ATOM     10  C   UNL     1      -5.772  -7.906  -5.468  0.00  0.00    +0.151 C 
BRANCH  10  11
ATOM     11  C   UNL     1      -4.347  -7.770  -5.927  0.00  0.00    -0.028 A 
ATOM     12  C   UNL     1      -3.995  -6.803  -6.881  0.00  0.00    +0.005 A 
ATOM     13  C   UNL     1      -3.342  -8.601  -5.409  0.00  0.00    +0.005 A 
ATOM     14  C   UNL     1      -2.666  -6.656  -7.285  0.00  0.00    +0.000 A 
ATOM     15  C   UNL     1      -2.016  -8.451  -5.817  0.00  0.00    +0.000 A 
ATOM     16  C   UNL     1      -1.678  -7.477  -6.753  0.00  0.00    +0.000 A 
ENDBRANCH  10  11
ENDBRANCH   1  10
TORSDOF 2
ENDMDL
MODEL 2
REMARK VINA RESULT:    -5.078      3.389      4.979
REMARK INTER + INTRA:          -5.808
REMARK INTER:                  -5.714
REMARK INTRA:                  -0.094
REMARK UNBOUND:                -0.136
REMARK  Name = 1550473
REMARK  2 active torsions:
REMARK  status: ('A' for Active; 'I' for Inactive)
REMARK    1  A    between atoms: N_1  and  C_4
REMARK    2  A    between atoms: C_4  and  C_5
REMARK                            x       y       z     vdW  Elec       q    Type
REMARK                         _______ _______ _______ _____ _____    ______ ____
ROOT
ATOM      1  N   UNL     1      -7.426  -5.078  -1.747  0.00  0.00    -0.354 N 
ATOM      2  N   UNL     1      -7.087  -4.795   0.527  0.00  0.00    -0.372 N 
ATOM      3  N   UNL     1      -6.668  -3.035  -0.884  0.00  0.00    -0.372 N 
ATOM      4  C   UNL     1      -7.061  -4.302  -0.717  0.00  0.00    +0.166 C 
ATOM      5  H   UNL     1      -7.685  -6.039  -1.557  0.00  0.00    +0.163 HD
ATOM      6  H   UNL     1      -6.821  -4.233   1.324  0.00  0.00    +0.159 HD
ATOM      7  H   UNL     1      -7.391  -5.742   0.718  0.00  0.00    +0.159 HD
ATOM      8  H   UNL     1      -6.621  -2.605  -1.798  0.00  0.00    +0.159 HD
ATOM      9  H   UNL     1      -6.386  -2.460  -0.100  0.00  0.00    +0.159 HD
ENDROOT
BRANCH   1  10
ATOM     10  C   UNL     1      -7.485  -4.621  -3.134  0.00  0.00    +0.151 C 
BRANCH  10  11
ATOM     11  C   UNL     1      -7.581  -5.817  -4.041  0.00  0.00    -0.028 A 
ATOM     12  C   UNL     1      -6.478  -6.218  -4.809  0.00  0.00    +0.005 A 
ATOM     13  C   UNL     1      -8.770  -6.555  -4.134  0.00  0.00    +0.005 A 
ATOM     14  C   UNL     1      -6.557  -7.347  -5.629  0.00  0.00    +0.000 A 
ATOM     15  C   UNL     1      -8.846  -7.681  -4.955  0.00  0.00    +0.000 A 
ATOM     16  C   UNL     1      -7.738  -8.077  -5.700  0.00  0.00    +0.000 A 
ENDBRANCH  10  11
ENDBRANCH   1  10
TORSDOF 2
ENDMDL
MODEL 3
REMARK VINA RESULT:    -5.020      1.893      2.967
REMARK INTER + INTRA:          -5.743
REMARK INTER:                  -5.615
REMARK INTRA:                  -0.128
REMARK UNBOUND:                -0.136
REMARK  Name = 1550473
REMARK  2 active torsions:
REMARK  status: ('A' for Active; 'I' for Inactive)
REMARK    1  A    between atoms: N_1  and  C_4
REMARK    2  A    between atoms: C_4  and  C_5
REMARK                            x       y       z     vdW  Elec       q    Type
REMARK                         _______ _______ _______ _____ _____    ______ ____
ROOT
ATOM      1  N   UNL     1      -7.288  -5.842  -3.713  0.00  0.00    -0.354 N 
ATOM      2  N   UNL     1      -7.056  -4.307  -1.995  0.00  0.00    -0.372 N 
ATOM      3  N   UNL     1      -8.858  -4.130  -3.405  0.00  0.00    -0.372 N 
ATOM      4  C   UNL     1      -7.738  -4.768  -3.050  0.00  0.00    +0.166 C 
ATOM      5  H   UNL     1      -6.416  -6.263  -3.413  0.00  0.00    +0.163 HD
ATOM      6  H   UNL     1      -7.373  -3.501  -1.473  0.00  0.00    +0.159 HD
ATOM      7  H   UNL     1      -6.210  -4.757  -1.668  0.00  0.00    +0.159 HD
ATOM      8  H   UNL     1      -9.415  -4.425  -4.196  0.00  0.00    +0.159 HD
ATOM      9  H   UNL     1      -9.185  -3.314  -2.902  0.00  0.00    +0.159 HD
ENDROOT
BRANCH   1  10
ATOM     10  C   UNL     1      -7.983  -6.457  -4.842  0.00  0.00    +0.151 C 
BRANCH  10  11
ATOM     11  C   UNL     1      -6.993  -7.234  -5.665  0.00  0.00    -0.028 A 
ATOM     12  C   UNL     1      -7.422  -7.997  -6.761  0.00  0.00    +0.005 A 
ATOM     13  C   UNL     1      -5.624  -7.206  -5.358  0.00  0.00    +0.005 A 
ATOM     14  C   UNL     1      -6.499  -8.695  -7.544  0.00  0.00    +0.000 A 
ATOM     15  C   UNL     1      -4.706  -7.905  -6.142  0.00  0.00    +0.000 A 
ATOM     16  C   UNL     1      -5.144  -8.647  -7.236  0.00  0.00    +0.000 A 
ENDBRANCH  10  11
ENDBRANCH   1  10
TORSDOF 2
ENDMDL
MODEL 4
REMARK VINA RESULT:    -4.780      2.723      5.018
REMARK INTER + INTRA:          -5.475
REMARK INTER:                  -5.380
REMARK INTRA:                  -0.096
REMARK UNBOUND:                -0.136
REMARK  Name = 1550473
REMARK  2 active torsions:
REMARK  status: ('A' for Active; 'I' for Inactive)
REMARK    1  A    between atoms: N_1  and  C_4
REMARK    2  A    between atoms: C_4  and  C_5
REMARK                            x       y       z     vdW  Elec       q    Type
REMARK                         _______ _______ _______ _____ _____    ______ ____
ROOT
ATOM      1  N   UNL     1      -4.445  -7.200  -6.114  0.00  0.00    -0.354 N 
ATOM      2  N   UNL     1      -2.273  -6.752  -6.781  0.00  0.00    -0.372 N 
ATOM      3  N   UNL     1      -2.624  -8.253  -5.081  0.00  0.00    -0.372 N 
ATOM      4  C   UNL     1      -3.128  -7.406  -5.985  0.00  0.00    +0.166 C 
ATOM      5  H   UNL     1      -4.762  -6.522  -6.798  0.00  0.00    +0.163 HD
ATOM      6  H   UNL     1      -1.274  -6.891  -6.710  0.00  0.00    +0.159 HD
ATOM      7  H   UNL     1      -2.595  -6.110  -7.496  0.00  0.00    +0.159 HD
ATOM      8  H   UNL     1      -3.215  -8.773  -4.447  0.00  0.00    +0.159 HD
ATOM      9  H   UNL     1      -1.626  -8.396  -4.987  0.00  0.00    +0.159 HD
ENDROOT
BRANCH   1  10
ATOM     10  C   UNL     1      -5.463  -7.901  -5.333  0.00  0.00    +0.151 C 
BRANCH  10  11
ATOM     11  C   UNL     1      -6.784  -7.798  -6.043  0.00  0.00    -0.028 A 
ATOM     12  C   UNL     1      -7.695  -6.786  -5.708  0.00  0.00    +0.005 A 
ATOM     13  C   UNL     1      -7.129  -8.707  -7.055  0.00  0.00    +0.005 A 
ATOM     14  C   UNL     1      -8.910  -6.672  -6.388  0.00  0.00    +0.000 A 
ATOM     15  C   UNL     1      -8.344  -8.590  -7.731  0.00  0.00    +0.000 A 
ATOM     16  C   UNL     1      -9.233  -7.571  -7.399  0.00  0.00    +0.000 A 
ENDBRANCH  10  11
ENDBRANCH   1  10
TORSDOF 2
ENDMDL
MODEL 5
REMARK VINA RESULT:    -4.757      6.393      8.845
REMARK INTER + INTRA:          -5.450
REMARK INTER:                  -5.290
REMARK INTRA:                  -0.159
REMARK UNBOUND:                -0.136
REMARK  Name = 1550473
REMARK  2 active torsions:
REMARK  status: ('A' for Active; 'I' for Inactive)
REMARK    1  A    between atoms: N_1  and  C_4
REMARK    2  A    between atoms: C_4  and  C_5
REMARK                            x       y       z     vdW  Elec       q    Type
REMARK                         _______ _______ _______ _____ _____    ______ ____
ROOT
ATOM      1  N   UNL     1      -7.453  -3.258  -0.343  0.00  0.00    -0.354 N 
ATOM      2  N   UNL     1      -6.559  -5.295   0.301  0.00  0.00    -0.372 N 
ATOM      3  N   UNL     1      -7.115  -4.976  -1.902  0.00  0.00    -0.372 N 
ATOM      4  C   UNL     1      -7.049  -4.497  -0.655  0.00  0.00    +0.166 C 
ATOM      5  H   UNL     1      -7.405  -2.966   0.626  0.00  0.00    +0.163 HD
ATOM      6  H   UNL     1      -6.242  -6.233   0.096  0.00  0.00    +0.159 HD
ATOM      7  H   UNL     1      -6.469  -4.984   1.261  0.00  0.00    +0.159 HD
ATOM      8  H   UNL     1      -7.480  -4.426  -2.668  0.00  0.00    +0.159 HD
ATOM      9  H   UNL     1      -6.814  -5.916  -2.125  0.00  0.00    +0.159 HD
ENDROOT
BRANCH   1  10
ATOM     10  C   UNL     1      -7.952  -2.291  -1.320  0.00  0.00    +0.151 C 
BRANCH  10  11
ATOM     11  C   UNL     1      -9.455  -2.333  -1.328  0.00  0.00    -0.028 A 
ATOM     12  C   UNL     1     -10.193  -1.623  -0.369  0.00  0.00    +0.005 A 
ATOM     13  C   UNL     1     -10.148  -3.075  -2.297  0.00  0.00    +0.005 A 
ATOM     14  C   UNL     1     -11.589  -1.637  -0.395  0.00  0.00    +0.000 A 
ATOM     15  C   UNL     1     -11.543  -3.088  -2.319  0.00  0.00    +0.000 A 
ATOM     16  C   UNL     1     -12.263  -2.367  -1.369  0.00  0.00    +0.000 A 
ENDBRANCH  10  11
ENDBRANCH   1  10
TORSDOF 2
ENDMDL
MODEL 6
REMARK VINA RESULT:    -4.602      8.551      9.824
REMARK INTER + INTRA:          -5.276
REMARK INTER:                  -5.159
REMARK INTRA:                  -0.117
REMARK UNBOUND:                -0.136
REMARK  Name = 1550473
REMARK  2 active torsions:
REMARK  status: ('A' for Active; 'I' for Inactive)
REMARK    1  A    between atoms: N_1  and  C_4
REMARK    2  A    between atoms: C_4  and  C_5
REMARK                            x       y       z     vdW  Elec       q    Type
REMARK                         _______ _______ _______ _____ _____    ______ ____
ROOT
ATOM      1  N   UNL     1      -9.279  -1.174  -0.441  0.00  0.00    -0.354 N 
ATOM      2  N   UNL     1      -7.545   0.316  -0.069  0.00  0.00    -0.372 N 
ATOM      3  N   UNL     1      -7.044  -1.841  -0.668  0.00  0.00    -0.372 N 
ATOM      4  C   UNL     1      -7.966  -0.912  -0.396  0.00  0.00    +0.166 C 
ATOM      5  H   UNL     1      -9.926  -0.434  -0.194  0.00  0.00    +0.163 HD
ATOM      6  H   UNL     1      -6.561   0.545  -0.030  0.00  0.00    +0.159 HD
ATOM      7  H   UNL     1      -8.195   1.066   0.133  0.00  0.00    +0.159 HD
ATOM      8  H   UNL     1      -7.296  -2.789  -0.915  0.00  0.00    +0.159 HD
ATOM      9  H   UNL     1      -6.054  -1.635  -0.623  0.00  0.00    +0.159 HD
ENDROOT
BRANCH   1  10
ATOM     10  C   UNL     1      -9.842  -2.463  -0.838  0.00  0.00    +0.151 C 
BRANCH  10  11
ATOM     11  C   UNL     1     -11.026  -2.227  -1.734  0.00  0.00    -0.028 A 
ATOM     12  C   UNL     1     -12.019  -1.305  -1.374  0.00  0.00    +0.005 A 
ATOM     13  C   UNL     1     -11.157  -2.918  -2.949  0.00  0.00    +0.005 A 
ATOM     14  C   UNL     1     -13.104  -1.063  -2.220  0.00  0.00    +0.000 A 
ATOM     15  C   UNL     1     -12.242  -2.674  -3.791  0.00  0.00    +0.000 A 
ATOM     16  C   UNL     1     -13.214  -1.745  -3.428  0.00  0.00    +0.000 A 
ENDBRANCH  10  11
ENDBRANCH   1  10
TORSDOF 2
ENDMDL
MODEL 7
REMARK VINA RESULT:    -4.571     17.485     18.847
REMARK INTER + INTRA:          -5.242
REMARK INTER:                  -5.092
REMARK INTRA:                  -0.150
REMARK UNBOUND:                -0.136
REMARK  Name = 1550473
REMARK  2 active torsions:
REMARK  status: ('A' for Active; 'I' for Inactive)
REMARK    1  A    between atoms: N_1  and  C_4
REMARK    2  A    between atoms: C_4  and  C_5
REMARK                            x       y       z     vdW  Elec       q    Type
REMARK                         _______ _______ _______ _____ _____    ______ ____
ROOT
ATOM      1  N   UNL     1      13.863 -11.015  -0.682  0.00  0.00    -0.354 N 
ATOM      2  N   UNL     1      13.904  -9.232   0.795  0.00  0.00    -0.372 N 
ATOM      3  N   UNL     1      13.533 -11.343   1.615  0.00  0.00    -0.372 N 
ATOM      4  C   UNL     1      13.766 -10.544   0.568  0.00  0.00    +0.166 C 
ATOM      5  H   UNL     1      14.010 -10.354  -1.436  0.00  0.00    +0.163 HD
ATOM      6  H   UNL     1      13.840  -8.848   1.728  0.00  0.00    +0.159 HD
ATOM      7  H   UNL     1      14.097  -8.579   0.045  0.00  0.00    +0.159 HD
ATOM      8  H   UNL     1      13.413 -12.341   1.510  0.00  0.00    +0.159 HD
ATOM      9  H   UNL     1      13.454 -10.975   2.555  0.00  0.00    +0.159 HD
ENDROOT
BRANCH   1  10
ATOM     10  C   UNL     1      13.781 -12.432  -1.030  0.00  0.00    +0.151 C 
BRANCH  10  11
ATOM     11  C   UNL     1      12.365 -12.763  -1.415  0.00  0.00    -0.028 A 
ATOM     12  C   UNL     1      11.514 -13.412  -0.508  0.00  0.00    +0.005 A 
ATOM     13  C   UNL     1      11.867 -12.425  -2.682  0.00  0.00    +0.005 A 
ATOM     14  C   UNL     1      10.190 -13.692  -0.854  0.00  0.00    +0.000 A 
ATOM     15  C   UNL     1      10.544 -12.707  -3.024  0.00  0.00    +0.000 A 
ATOM     16  C   UNL     1       9.706 -13.339  -2.109  0.00  0.00    +0.000 A 
ENDBRANCH  10  11
ENDBRANCH   1  10
TORSDOF 2
ENDMDL
MODEL 8
REMARK VINA RESULT:    -4.363      8.807     10.840
REMARK INTER + INTRA:          -5.009
REMARK INTER:                  -4.874
REMARK INTRA:                  -0.135
REMARK UNBOUND:                -0.136
REMARK  Name = 1550473
REMARK  2 active torsions:
REMARK  status: ('A' for Active; 'I' for Inactive)
REMARK    1  A    between atoms: N_1  and  C_4
REMARK    2  A    between atoms: C_4  and  C_5
REMARK                            x       y       z     vdW  Elec       q    Type
REMARK                         _______ _______ _______ _____ _____    ______ ____
ROOT
ATOM      1  N   UNL     1      -9.283  -1.005  -0.417  0.00  0.00    -0.354 N 
ATOM      2  N   UNL     1      -7.372   0.255  -0.065  0.00  0.00    -0.372 N 
ATOM      3  N   UNL     1      -7.152  -1.947  -0.670  0.00  0.00    -0.372 N 
ATOM      4  C   UNL     1      -7.947  -0.910  -0.387  0.00  0.00    +0.166 C 
ATOM      5  H   UNL     1      -9.829  -0.191  -0.162  0.00  0.00    +0.163 HD
ATOM      6  H   UNL     1      -6.366   0.358  -0.037  0.00  0.00    +0.159 HD
ATOM      7  H   UNL     1      -7.921   1.080   0.145  0.00  0.00    +0.159 HD
ATOM      8  H   UNL     1      -7.524  -2.855  -0.915  0.00  0.00    +0.159 HD
ATOM      9  H   UNL     1      -6.143  -1.867  -0.637  0.00  0.00    +0.159 HD
ENDROOT
BRANCH   1  10
ATOM     10  C   UNL     1     -10.008  -2.213  -0.807  0.00  0.00    +0.151 C 
BRANCH  10  11
ATOM     11  C   UNL     1     -11.226  -2.358   0.064  0.00  0.00    -0.028 A 
ATOM     12  C   UNL     1     -11.572  -1.351   0.976  0.00  0.00    +0.005 A 
ATOM     13  C   UNL     1     -12.040  -3.498  -0.023  0.00  0.00    +0.005 A 
ATOM     14  C   UNL     1     -12.720  -1.471   1.763  0.00  0.00    +0.000 A 
ATOM     15  C   UNL     1     -13.185  -3.614   0.765  0.00  0.00    +0.000 A 
ATOM     16  C   UNL     1     -13.526  -2.600   1.656  0.00  0.00    +0.000 A 
ENDBRANCH  10  11
ENDBRANCH   1  10
TORSDOF 2
ENDMDL
MODEL 9
REMARK VINA RESULT:    -4.334      2.524      3.650
REMARK INTER + INTRA:          -4.977
REMARK INTER:                  -4.825
REMARK INTRA:                  -0.151
REMARK UNBOUND:                -0.136
REMARK  Name = 1550473
REMARK  2 active torsions:
REMARK  status: ('A' for Active; 'I' for Inactive)
REMARK    1  A    between atoms: N_1  and  C_4
REMARK    2  A    between atoms: C_4  and  C_5
REMARK                            x       y       z     vdW  Elec       q    Type
REMARK                         _______ _______ _______ _____ _____    ______ ____
ROOT
ATOM      1  N   UNL     1      -9.813  -7.315  -5.484  0.00  0.00    -0.354 N 
ATOM      2  N   UNL     1     -11.607  -6.248  -6.489  0.00  0.00    -0.372 N 
ATOM      3  N   UNL     1     -10.217  -5.035  -5.124  0.00  0.00    -0.372 N 
ATOM      4  C   UNL     1     -10.533  -6.204  -5.691  0.00  0.00    +0.166 C 
ATOM      5  H   UNL     1     -10.123  -8.176  -5.918  0.00  0.00    +0.163 HD
ATOM      6  H   UNL     1     -12.167  -5.425  -6.666  0.00  0.00    +0.159 HD
ATOM      7  H   UNL     1     -11.887  -7.100  -6.958  0.00  0.00    +0.159 HD
ATOM      8  H   UNL     1      -9.422  -4.936  -4.506  0.00  0.00    +0.159 HD
ATOM      9  H   UNL     1     -10.773  -4.203  -5.280  0.00  0.00    +0.159 HD
ENDROOT
BRANCH   1  10
ATOM     10  C   UNL     1      -8.596  -7.362  -4.676  0.00  0.00    +0.151 C 
BRANCH  10  11
ATOM     11  C   UNL     1      -7.434  -7.722  -5.559  0.00  0.00    -0.028 A 
ATOM     12  C   UNL     1      -7.644  -8.379  -6.780  0.00  0.00    +0.005 A 
ATOM     13  C   UNL     1      -6.120  -7.404  -5.183  0.00  0.00    +0.005 A 
ATOM     14  C   UNL     1      -6.567  -8.687  -7.615  0.00  0.00    +0.000 A 
ATOM     15  C   UNL     1      -5.047  -7.714  -6.019  0.00  0.00    +0.000 A 
ATOM     16  C   UNL     1      -5.272  -8.353  -7.236  0.00  0.00    +0.000 A 
ENDBRANCH  10  11
ENDBRANCH   1  10
TORSDOF 2
ENDMDL
