MODEL 1
REMARK VINA RESULT:    -4.656      0.000      0.000
REMARK INTER + INTRA:          -5.294
REMARK INTER:                  -5.200
REMARK INTRA:                  -0.094
REMARK UNBOUND:                -0.094
REMARK  Name = 1550473
REMARK  2 active torsions:
REMARK  status: ('A' for Active; 'I' for Inactive)
REMARK    1  A    between atoms: N_1  and  C_4
REMARK    2  A    between atoms: C_4  and  C_5
REMARK                            x       y       z     vdW  Elec       q    Type
REMARK                         _______ _______ _______ _____ _____    ______ ____
ROOT
ATOM      1  N   UNL     1     -15.474 -19.454 -35.575  0.00  0.00    -0.354 N 
ATOM      2  N   UNL     1     -16.723 -21.226 -34.759  0.00  0.00    -0.372 N 
ATOM      3  N   UNL     1     -17.739 -19.188 -35.038  0.00  0.00    -0.372 N 
ATOM      4  C   UNL     1     -16.639 -19.942 -35.129  0.00  0.00    +0.166 C 
ATOM      5  H   UNL     1     -14.669 -20.069 -35.592  0.00  0.00    +0.163 HD
ATOM      6  H   UNL     1     -17.589 -21.623 -34.422  0.00  0.00    +0.159 HD
ATOM      7  H   UNL     1     -15.928 -21.851 -34.821  0.00  0.00    +0.159 HD
ATOM      8  H   UNL     1     -17.741 -18.210 -35.295  0.00  0.00    +0.159 HD
ATOM      9  H   UNL     1     -18.613 -19.564 -34.692  0.00  0.00    +0.159 HD
ENDROOT
BRANCH   1  10
ATOM     10  C   UNL     1     -15.290 -18.084 -36.052  0.00  0.00    +0.151 C 
BRANCH  10  11
ATOM     11  C   UNL     1     -13.824 -17.831 -36.267  0.00  0.00    -0.028 A 
ATOM     12  C   UNL     1     -12.990 -17.515 -35.184  0.00  0.00    +0.005 A 
ATOM     13  C   UNL     1     -13.260 -17.912 -37.549  0.00  0.00    +0.005 A 
ATOM     14  C   UNL     1     -11.622 -17.310 -35.378  0.00  0.00    +0.000 A 
ATOM     15  C   UNL     1     -11.894 -17.705 -37.739  0.00  0.00    +0.000 A 
ATOM     16  C   UNL     1     -11.075 -17.407 -36.653  0.00  0.00    +0.000 A 
ENDBRANCH  10  11
ENDBRANCH   1  10
TORSDOF 2
ENDMDL
MODEL 2
REMARK VINA RESULT:    -4.437     94.392     95.515
REMARK INTER + INTRA:          -5.050
REMARK INTER:                  -4.956
REMARK INTRA:                  -0.094
REMARK UNBOUND:                -0.094
REMARK  Name = 1550473
REMARK  2 active torsions:
REMARK  status: ('A' for Active; 'I' for Inactive)
REMARK    1  A    between atoms: N_1  and  C_4
REMARK    2  A    between atoms: C_4  and  C_5
REMARK                            x       y       z     vdW  Elec       q    Type
REMARK                         _______ _______ _______ _____ _____    ______ ____
ROOT
ATOM      1  N   UNL     1       9.819  32.073  41.656  0.00  0.00    -0.354 N 
ATOM      2  N   UNL     1       7.995  32.705  42.936  0.00  0.00    -0.372 N 
ATOM      3  N   UNL     1       9.366  31.034  43.707  0.00  0.00    -0.372 N 
ATOM      4  C   UNL     1       9.073  31.931  42.760  0.00  0.00    +0.166 C 
ATOM      5  H   UNL     1       9.526  32.750  40.961  0.00  0.00    +0.163 HD
ATOM      6  H   UNL     1       7.416  32.623  43.761  0.00  0.00    +0.159 HD
ATOM      7  H   UNL     1       7.731  33.413  42.262  0.00  0.00    +0.159 HD
ATOM      8  H   UNL     1      10.163  30.416  43.631  0.00  0.00    +0.159 HD
ATOM      9  H   UNL     1       8.791  30.929  44.534  0.00  0.00    +0.159 HD
ENDROOT
BRANCH   1  10
ATOM     10  C   UNL     1      11.042  31.317  41.393  0.00  0.00    +0.151 C 
BRANCH  10  11
ATOM     11  C   UNL     1      11.864  32.052  40.370  0.00  0.00    -0.028 A 
ATOM     12  C   UNL     1      12.849  32.966  40.771  0.00  0.00    +0.005 A 
ATOM     13  C   UNL     1      11.665  31.835  38.998  0.00  0.00    +0.005 A 
ATOM     14  C   UNL     1      13.633  33.626  39.822  0.00  0.00    +0.000 A 
ATOM     15  C   UNL     1      12.449  32.497  38.053  0.00  0.00    +0.000 A 
ATOM     16  C   UNL     1      13.434  33.391  38.466  0.00  0.00    +0.000 A 
ENDBRANCH  10  11
ENDBRANCH   1  10
TORSDOF 2
ENDMDL
MODEL 3
REMARK VINA RESULT:    -4.154     69.000     70.249
REMARK INTER + INTRA:          -4.734
REMARK INTER:                  -4.583
REMARK INTRA:                  -0.151
REMARK UNBOUND:                -0.094
REMARK  Name = 1550473
REMARK  2 active torsions:
REMARK  status: ('A' for Active; 'I' for Inactive)
REMARK    1  A    between atoms: N_1  and  C_4
REMARK    2  A    between atoms: C_4  and  C_5
REMARK                            x       y       z     vdW  Elec       q    Type
REMARK                         _______ _______ _______ _____ _____    ______ ____
ROOT
ATOM      1  N   UNL     1       8.446  15.768  19.369  0.00  0.00    -0.354 N 
ATOM      2  N   UNL     1      10.418  16.660  18.546  0.00  0.00    -0.372 N 
ATOM      3  N   UNL     1      10.496  14.688  19.716  0.00  0.00    -0.372 N 
ATOM      4  C   UNL     1       9.775  15.697  19.217  0.00  0.00    +0.166 C 
ATOM      5  H   UNL     1       7.961  16.574  18.993  0.00  0.00    +0.163 HD
ATOM      6  H   UNL     1      11.420  16.632  18.412  0.00  0.00    +0.159 HD
ATOM      7  H   UNL     1       9.925  17.441  18.131  0.00  0.00    +0.159 HD
ATOM      8  H   UNL     1      10.072  13.933  20.238  0.00  0.00    +0.159 HD
ATOM      9  H   UNL     1      11.502  14.648  19.603  0.00  0.00    +0.159 HD
ENDROOT
BRANCH   1  10
ATOM     10  C   UNL     1       7.644  14.744  20.037  0.00  0.00    +0.151 C 
BRANCH  10  11
ATOM     11  C   UNL     1       7.144  15.289  21.347  0.00  0.00    -0.028 A 
ATOM     12  C   UNL     1       7.073  16.673  21.562  0.00  0.00    +0.005 A 
ATOM     13  C   UNL     1       6.735  14.426  22.375  0.00  0.00    +0.005 A 
ATOM     14  C   UNL     1       6.581  17.179  22.767  0.00  0.00    +0.000 A 
ATOM     15  C   UNL     1       6.245  14.935  23.577  0.00  0.00    +0.000 A 
ATOM     16  C   UNL     1       6.166  16.312  23.772  0.00  0.00    +0.000 A 
ENDBRANCH  10  11
ENDBRANCH   1  10
TORSDOF 2
ENDMDL
MODEL 4
REMARK VINA RESULT:    -4.066     61.357     62.298
REMARK INTER + INTRA:          -4.635
REMARK INTER:                  -4.504
REMARK INTRA:                  -0.131
REMARK UNBOUND:                -0.094
REMARK  Name = 1550473
REMARK  2 active torsions:
REMARK  status: ('A' for Active; 'I' for Inactive)
REMARK    1  A    between atoms: N_1  and  C_4
REMARK    2  A    between atoms: C_4  and  C_5
REMARK                            x       y       z     vdW  Elec       q    Type
REMARK                         _______ _______ _______ _____ _____    ______ ____
ROOT
ATOM      1  N   UNL     1       2.639   3.519  19.002  0.00  0.00    -0.354 N 
ATOM      2  N   UNL     1       0.585   3.987  19.966  0.00  0.00    -0.372 N 
ATOM      3  N   UNL     1       2.183   2.921  21.221  0.00  0.00    -0.372 N 
ATOM      4  C   UNL     1       1.817   3.471  20.059  0.00  0.00    +0.166 C 
ATOM      5  H   UNL     1       2.291   3.922  18.139  0.00  0.00    +0.163 HD
ATOM      6  H   UNL     1      -0.056   3.969  20.747  0.00  0.00    +0.159 HD
ATOM      7  H   UNL     1       0.256   4.430  19.117  0.00  0.00    +0.159 HD
ATOM      8  H   UNL     1       3.097   2.510  21.355  0.00  0.00    +0.159 HD
ATOM      9  H   UNL     1       1.551   2.883  22.012  0.00  0.00    +0.159 HD
ENDROOT
BRANCH   1  10
ATOM     10  C   UNL     1       4.018   3.034  19.016  0.00  0.00    +0.151 C 
BRANCH  10  11
ATOM     11  C   UNL     1       4.936   4.152  18.605  0.00  0.00    -0.028 A 
ATOM     12  C   UNL     1       4.698   4.871  17.424  0.00  0.00    +0.005 A 
ATOM     13  C   UNL     1       6.041   4.502  19.395  0.00  0.00    +0.005 A 
ATOM     14  C   UNL     1       5.533   5.929  17.057  0.00  0.00    +0.000 A 
ATOM     15  C   UNL     1       6.873   5.559  19.025  0.00  0.00    +0.000 A 
ATOM     16  C   UNL     1       6.617   6.274  17.857  0.00  0.00    +0.000 A 
ENDBRANCH  10  11
ENDBRANCH   1  10
TORSDOF 2
ENDMDL
MODEL 5
REMARK VINA RESULT:    -3.998     23.563     24.446
REMARK INTER + INTRA:          -4.559
REMARK INTER:                  -4.426
REMARK INTRA:                  -0.133
REMARK UNBOUND:                -0.094
REMARK  Name = 1550473
REMARK  2 active torsions:
REMARK  status: ('A' for Active; 'I' for Inactive)
REMARK    1  A    between atoms: N_1  and  C_4
REMARK    2  A    between atoms: C_4  and  C_5
REMARK                            x       y       z     vdW  Elec       q    Type
REMARK                         _______ _______ _______ _____ _____    ______ ____
ROOT
ATOM      1  N   UNL     1     -10.642 -13.318 -11.250  0.00  0.00    -0.354 N 
ATOM      2  N   UNL     1     -11.039 -12.031  -9.366  0.00  0.00    -0.372 N 
ATOM      3  N   UNL     1     -12.333 -11.695 -11.232  0.00  0.00    -0.372 N 
ATOM      4  C   UNL     1     -11.337 -12.355 -10.630  0.00  0.00    +0.166 C 
ATOM      5  H   UNL     1      -9.880 -13.760 -10.749  0.00  0.00    +0.163 HD
ATOM      6  H   UNL     1     -11.549 -11.311  -8.872  0.00  0.00    +0.159 HD
ATOM      7  H   UNL     1     -10.307 -12.506  -8.853  0.00  0.00    +0.159 HD
ATOM      8  H   UNL     1     -12.603 -11.889 -12.187  0.00  0.00    +0.159 HD
ATOM      9  H   UNL     1     -12.846 -10.963 -10.757  0.00  0.00    +0.159 HD
ENDROOT
BRANCH   1  10
ATOM     10  C   UNL     1     -10.922 -13.784 -12.607  0.00  0.00    +0.151 C 
BRANCH  10  11
ATOM     11  C   UNL     1      -9.630 -14.182 -13.266  0.00  0.00    -0.028 A 
ATOM     12  C   UNL     1      -9.615 -14.613 -14.601  0.00  0.00    +0.005 A 
ATOM     13  C   UNL     1      -8.417 -14.124 -12.563  0.00  0.00    +0.005 A 
ATOM     14  C   UNL     1      -8.411 -14.954 -15.223  0.00  0.00    +0.000 A 
ATOM     15  C   UNL     1      -7.217 -14.466 -13.188  0.00  0.00    +0.000 A 
ATOM     16  C   UNL     1      -7.215 -14.878 -14.518  0.00  0.00    +0.000 A 
ENDBRANCH  10  11
ENDBRANCH   1  10
TORSDOF 2
ENDMDL
MODEL 6
REMARK VINA RESULT:    -3.923     41.447     42.743
REMARK INTER + INTRA:          -4.476
REMARK INTER:                  -4.350
REMARK INTRA:                  -0.126
REMARK UNBOUND:                -0.094
REMARK  Name = 1550473
REMARK  2 active torsions:
REMARK  status: ('A' for Active; 'I' for Inactive)
REMARK    1  A    between atoms: N_1  and  C_4
REMARK    2  A    between atoms: C_4  and  C_5
REMARK                            x       y       z     vdW  Elec       q    Type
REMARK                         _______ _______ _______ _____ _____    ______ ____
ROOT
ATOM      1  N   UNL     1       1.404   5.296  -2.428  0.00  0.00    -0.354 N 
ATOM      2  N   UNL     1       2.171   6.746  -0.793  0.00  0.00    -0.372 N 
ATOM      3  N   UNL     1       2.882   4.565  -0.763  0.00  0.00    -0.372 N 
ATOM      4  C   UNL     1       2.148   5.524  -1.338  0.00  0.00    +0.166 C 
ATOM      5  H   UNL     1       0.847   6.058  -2.798  0.00  0.00    +0.163 HD
ATOM      6  H   UNL     1       2.726   6.949   0.028  0.00  0.00    +0.159 HD
ATOM      7  H   UNL     1       1.649   7.517  -1.192  0.00  0.00    +0.159 HD
ATOM      8  H   UNL     1       2.903   3.619  -1.121  0.00  0.00    +0.159 HD
ATOM      9  H   UNL     1       3.434   4.745   0.066  0.00  0.00    +0.159 HD
ENDROOT
BRANCH   1  10
ATOM     10  C   UNL     1       1.352   4.015  -3.130  0.00  0.00    +0.151 C 
BRANCH  10  11
ATOM     11  C   UNL     1       0.064   3.929  -3.901  0.00  0.00    -0.028 A 
ATOM     12  C   UNL     1      -0.345   2.715  -4.471  0.00  0.00    +0.005 A 
ATOM     13  C   UNL     1      -0.754   5.058  -4.061  0.00  0.00    +0.005 A 
ATOM     14  C   UNL     1      -1.556   2.627  -5.161  0.00  0.00    +0.000 A 
ATOM     15  C   UNL     1      -1.962   4.967  -4.752  0.00  0.00    +0.000 A 
ATOM     16  C   UNL     1      -2.364   3.751  -5.300  0.00  0.00    +0.000 A 
ENDBRANCH  10  11
ENDBRANCH   1  10
TORSDOF 2
ENDMDL
MODEL 7
REMARK VINA RESULT:    -3.913     12.949     14.520
REMARK INTER + INTRA:          -4.465
REMARK INTER:                  -4.340
REMARK INTRA:                  -0.125
REMARK UNBOUND:                -0.094
REMARK  Name = 1550473
REMARK  2 active torsions:
REMARK  status: ('A' for Active; 'I' for Inactive)
REMARK    1  A    between atoms: N_1  and  C_4
REMARK    2  A    between atoms: C_4  and  C_5
REMARK                            x       y       z     vdW  Elec       q    Type
REMARK                         _______ _______ _______ _____ _____    ______ ____
ROOT
ATOM      1  N   UNL     1      -7.093  -8.434 -27.237  0.00  0.00    -0.354 N 
ATOM      2  N   UNL     1      -5.874  -7.111 -25.779  0.00  0.00    -0.372 N 
ATOM      3  N   UNL     1      -4.769  -8.670 -27.050  0.00  0.00    -0.372 N 
ATOM      4  C   UNL     1      -5.918  -8.082 -26.699  0.00  0.00    +0.166 C 
ATOM      5  H   UNL     1      -7.932  -7.971 -26.906  0.00  0.00    +0.163 HD
ATOM      6  H   UNL     1      -5.001  -6.821 -25.358  0.00  0.00    +0.159 HD
ATOM      7  H   UNL     1      -6.708  -6.618 -25.484  0.00  0.00    +0.159 HD
ATOM      8  H   UNL     1      -4.736  -9.413 -27.735  0.00  0.00    +0.159 HD
ATOM      9  H   UNL     1      -3.887  -8.401 -26.632  0.00  0.00    +0.159 HD
ENDROOT
BRANCH   1  10
ATOM     10  C   UNL     1      -7.244  -9.442 -28.285  0.00  0.00    +0.151 C 
BRANCH  10  11
ATOM     11  C   UNL     1      -8.671  -9.916 -28.310  0.00  0.00    -0.028 A 
ATOM     12  C   UNL     1      -9.045 -11.010 -29.104  0.00  0.00    +0.005 A 
ATOM     13  C   UNL     1      -9.654  -9.278 -27.537  0.00  0.00    +0.005 A 
ATOM     14  C   UNL     1     -10.364 -11.469 -29.105  0.00  0.00    +0.000 A 
ATOM     15  C   UNL     1     -10.970  -9.739 -27.540  0.00  0.00    +0.000 A 
ATOM     16  C   UNL     1     -11.324 -10.836 -28.323  0.00  0.00    +0.000 A 
ENDBRANCH  10  11
ENDBRANCH   1  10
TORSDOF 2
ENDMDL
MODEL 8
REMARK VINA RESULT:    -3.913     81.997     82.810
REMARK INTER + INTRA:          -4.464
REMARK INTER:                  -4.315
REMARK INTRA:                  -0.149
REMARK UNBOUND:                -0.094
REMARK  Name = 1550473
REMARK  2 active torsions:
REMARK  status: ('A' for Active; 'I' for Inactive)
REMARK    1  A    between atoms: N_1  and  C_4
REMARK    2  A    between atoms: C_4  and  C_5
REMARK                            x       y       z     vdW  Elec       q    Type
REMARK                         _______ _______ _______ _____ _____    ______ ____
ROOT
ATOM      1  N   UNL     1       9.611  19.382  34.975  0.00  0.00    -0.354 N 
ATOM      2  N   UNL     1       8.932  20.178  37.041  0.00  0.00    -0.372 N 
ATOM      3  N   UNL     1       7.356  19.323  35.609  0.00  0.00    -0.372 N 
ATOM      4  C   UNL     1       8.635  19.622  35.861  0.00  0.00    +0.166 C 
ATOM      5  H   UNL     1      10.556  19.659  35.214  0.00  0.00    +0.163 HD
ATOM      6  H   UNL     1       8.217  20.368  37.730  0.00  0.00    +0.159 HD
ATOM      7  H   UNL     1       9.884  20.412  37.296  0.00  0.00    +0.159 HD
ATOM      8  H   UNL     1       7.065  18.907  34.734  0.00  0.00    +0.159 HD
ATOM      9  H   UNL     1       6.624  19.517  36.281  0.00  0.00    +0.159 HD
ENDROOT
BRANCH   1  10
ATOM     10  C   UNL     1       9.402  18.730  33.683  0.00  0.00    +0.151 C 
BRANCH  10  11
ATOM     11  C   UNL     1       9.813  19.673  32.586  0.00  0.00    -0.028 A 
ATOM     12  C   UNL     1       8.857  20.465  31.933  0.00  0.00    +0.005 A 
ATOM     13  C   UNL     1      11.157  19.783  32.199  0.00  0.00    +0.005 A 
ATOM     14  C   UNL     1       9.243  21.362  30.934  0.00  0.00    +0.000 A 
ATOM     15  C   UNL     1      11.538  20.679  31.201  0.00  0.00    +0.000 A 
ATOM     16  C   UNL     1      10.581  21.471  30.570  0.00  0.00    +0.000 A 
ENDBRANCH  10  11
ENDBRANCH   1  10
TORSDOF 2
ENDMDL
MODEL 9
REMARK VINA RESULT:    -3.827     52.431     53.570
REMARK INTER + INTRA:          -4.368
REMARK INTER:                  -4.230
REMARK INTRA:                  -0.138
REMARK UNBOUND:                -0.094
REMARK  Name = 1550473
REMARK  2 active torsions:
REMARK  status: ('A' for Active; 'I' for Inactive)
REMARK    1  A    between atoms: N_1  and  C_4
REMARK    2  A    between atoms: C_4  and  C_5
REMARK                            x       y       z     vdW  Elec       q    Type
REMARK                         _______ _______ _______ _____ _____    ______ ____
ROOT
ATOM      1  N   UNL     1      -1.348  16.579   2.983  0.00  0.00    -0.354 N 
ATOM      2  N   UNL     1       0.531  17.113   4.228  0.00  0.00    -0.372 N 
ATOM      3  N   UNL     1       0.285  14.966   3.456  0.00  0.00    -0.372 N 
ATOM      4  C   UNL     1      -0.189  16.213   3.547  0.00  0.00    +0.166 C 
ATOM      5  H   UNL     1      -1.667  17.532   3.114  0.00  0.00    +0.163 HD
ATOM      6  H   UNL     1       1.410  16.867   4.662  0.00  0.00    +0.159 HD
ATOM      7  H   UNL     1       0.232  18.076   4.318  0.00  0.00    +0.159 HD
ATOM      8  H   UNL     1      -0.213  14.238   2.962  0.00  0.00    +0.159 HD
ATOM      9  H   UNL     1       1.158  14.698   3.893  0.00  0.00    +0.159 HD
ENDROOT
BRANCH   1  10
ATOM     10  C   UNL     1      -2.181  15.690   2.176  0.00  0.00    +0.151 C 
BRANCH  10  11
ATOM     11  C   UNL     1      -3.618  15.853   2.589  0.00  0.00    -0.028 A 
ATOM     12  C   UNL     1      -4.008  16.931   3.397  0.00  0.00    +0.005 A 
ATOM     13  C   UNL     1      -4.595  14.936   2.171  0.00  0.00    +0.005 A 
ATOM     14  C   UNL     1      -5.348  17.100   3.756  0.00  0.00    +0.000 A 
ATOM     15  C   UNL     1      -5.931  15.108   2.533  0.00  0.00    +0.000 A 
ATOM     16  C   UNL     1      -6.307  16.191   3.323  0.00  0.00    +0.000 A 
ENDBRANCH  10  11
ENDBRANCH   1  10
TORSDOF 2
ENDMDL
