MODEL 1
REMARK VINA RESULT:    -5.376      0.000      0.000
REMARK INTER + INTRA:          -6.128
REMARK INTER:                  -6.004
REMARK INTRA:                  -0.124
REMARK UNBOUND:                -0.124
REMARK  Name = 1550473
REMARK  2 active torsions:
REMARK  status: ('A' for Active; 'I' for Inactive)
REMARK    1  A    between atoms: N_1  and  C_4
REMARK    2  A    between atoms: C_4  and  C_5
REMARK                            x       y       z     vdW  Elec       q    Type
REMARK                         _______ _______ _______ _____ _____    ______ ____
ROOT
ATOM      1  N   UNL     1      -4.046  14.783   1.076  0.00  0.00    -0.354 N 
ATOM      2  N   UNL     1      -3.549  15.871   3.059  0.00  0.00    -0.372 N 
ATOM      3  N   UNL     1      -2.514  16.556   1.129  0.00  0.00    -0.372 N 
ATOM      4  C   UNL     1      -3.371  15.731   1.740  0.00  0.00    +0.166 C 
ATOM      5  H   UNL     1      -4.658  14.170   1.602  0.00  0.00    +0.163 HD
ATOM      6  H   UNL     1      -3.056  16.579   3.586  0.00  0.00    +0.159 HD
ATOM      7  H   UNL     1      -4.196  15.287   3.574  0.00  0.00    +0.159 HD
ATOM      8  H   UNL     1      -2.331  16.498   0.136  0.00  0.00    +0.159 HD
ATOM      9  H   UNL     1      -2.003  17.263   1.641  0.00  0.00    +0.159 HD
ENDROOT
BRANCH   1  10
ATOM     10  C   UNL     1      -3.965  14.582  -0.370  0.00  0.00    +0.151 C 
BRANCH  10  11
ATOM     11  C   UNL     1      -5.004  13.577  -0.786  0.00  0.00    -0.028 A 
ATOM     12  C   UNL     1      -5.785  12.922   0.177  0.00  0.00    +0.005 A 
ATOM     13  C   UNL     1      -5.215  13.281  -2.141  0.00  0.00    +0.005 A 
ATOM     14  C   UNL     1      -6.771  12.011  -0.210  0.00  0.00    +0.000 A 
ATOM     15  C   UNL     1      -6.200  12.369  -2.523  0.00  0.00    +0.000 A 
ATOM     16  C   UNL     1      -6.979  11.737  -1.558  0.00  0.00    +0.000 A 
ENDBRANCH  10  11
ENDBRANCH   1  10
TORSDOF 2
ENDMDL
MODEL 2
REMARK VINA RESULT:    -5.098     19.194     20.652
REMARK INTER + INTRA:          -5.818
REMARK INTER:                  -5.676
REMARK INTRA:                  -0.142
REMARK UNBOUND:                -0.124
REMARK  Name = 1550473
REMARK  2 active torsions:
REMARK  status: ('A' for Active; 'I' for Inactive)
REMARK    1  A    between atoms: N_1  and  C_4
REMARK    2  A    between atoms: C_4  and  C_5
REMARK                            x       y       z     vdW  Elec       q    Type
REMARK                         _______ _______ _______ _____ _____    ______ ____
ROOT
ATOM      1  N   UNL     1      -8.161  -4.736   4.441  0.00  0.00    -0.354 N 
ATOM      2  N   UNL     1      -8.806  -3.809   2.419  0.00  0.00    -0.372 N 
ATOM      3  N   UNL     1      -8.359  -2.415   4.186  0.00  0.00    -0.372 N 
ATOM      4  C   UNL     1      -8.438  -3.657   3.697  0.00  0.00    +0.166 C 
ATOM      5  H   UNL     1      -8.269  -5.652   4.020  0.00  0.00    +0.163 HD
ATOM      6  H   UNL     1      -9.018  -3.013   1.832  0.00  0.00    +0.159 HD
ATOM      7  H   UNL     1      -8.869  -4.723   1.987  0.00  0.00    +0.159 HD
ATOM      8  H   UNL     1      -8.092  -2.233   5.144  0.00  0.00    +0.159 HD
ATOM      9  H   UNL     1      -8.578  -1.606   3.618  0.00  0.00    +0.159 HD
ENDROOT
BRANCH   1  10
ATOM     10  C   UNL     1      -7.699  -4.677   5.826  0.00  0.00    +0.151 C 
BRANCH  10  11
ATOM     11  C   UNL     1      -8.700  -5.373   6.708  0.00  0.00    -0.028 A 
ATOM     12  C   UNL     1      -9.174  -4.753   7.873  0.00  0.00    +0.005 A 
ATOM     13  C   UNL     1      -9.182  -6.649   6.380  0.00  0.00    +0.005 A 
ATOM     14  C   UNL     1     -10.126  -5.386   8.676  0.00  0.00    +0.000 A 
ATOM     15  C   UNL     1     -10.131  -7.278   7.185  0.00  0.00    +0.000 A 
ATOM     16  C   UNL     1     -10.605  -6.646   8.331  0.00  0.00    +0.000 A 
ENDBRANCH  10  11
ENDBRANCH   1  10
TORSDOF 2
ENDMDL
MODEL 3
REMARK VINA RESULT:    -5.003      4.201      5.772
REMARK INTER + INTRA:          -5.711
REMARK INTER:                  -5.575
REMARK INTRA:                  -0.137
REMARK UNBOUND:                -0.124
REMARK  Name = 1550473
REMARK  2 active torsions:
REMARK  status: ('A' for Active; 'I' for Inactive)
REMARK    1  A    between atoms: N_1  and  C_4
REMARK    2  A    between atoms: C_4  and  C_5
REMARK                            x       y       z     vdW  Elec       q    Type
REMARK                         _______ _______ _______ _____ _____    ______ ____
ROOT
ATOM      1  N   UNL     1      -9.468  11.939  -0.589  0.00  0.00    -0.354 N 
ATOM      2  N   UNL     1     -11.240  12.292   0.859  0.00  0.00    -0.372 N 
ATOM      3  N   UNL     1     -10.346  10.186   0.694  0.00  0.00    -0.372 N 
ATOM      4  C   UNL     1     -10.339  11.467   0.312  0.00  0.00    +0.166 C 
ATOM      5  H   UNL     1      -9.534  12.914  -0.859  0.00  0.00    +0.163 HD
ATOM      6  H   UNL     1     -11.909  11.966   1.544  0.00  0.00    +0.159 HD
ATOM      7  H   UNL     1     -11.275  13.276   0.622  0.00  0.00    +0.159 HD
ATOM      8  H   UNL     1      -9.695   9.511   0.315  0.00  0.00    +0.159 HD
ATOM      9  H   UNL     1     -11.014   9.837   1.370  0.00  0.00    +0.159 HD
ENDROOT
BRANCH   1  10
ATOM     10  C   UNL     1      -8.412  11.136  -1.204  0.00  0.00    +0.151 C 
BRANCH  10  11
ATOM     11  C   UNL     1      -7.111  11.885  -1.116  0.00  0.00    -0.028 A 
ATOM     12  C   UNL     1      -6.406  12.226  -2.280  0.00  0.00    +0.005 A 
ATOM     13  C   UNL     1      -6.581  12.262   0.127  0.00  0.00    +0.005 A 
ATOM     14  C   UNL     1      -5.213  12.948  -2.201  0.00  0.00    +0.000 A 
ATOM     15  C   UNL     1      -5.389  12.983   0.202  0.00  0.00    +0.000 A 
ATOM     16  C   UNL     1      -4.706  13.327  -0.963  0.00  0.00    +0.000 A 
ENDBRANCH  10  11
ENDBRANCH   1  10
TORSDOF 2
ENDMDL
MODEL 4
REMARK VINA RESULT:    -4.967     19.502     20.940
REMARK INTER + INTRA:          -5.671
REMARK INTER:                  -5.510
REMARK INTRA:                  -0.161
REMARK UNBOUND:                -0.124
REMARK  Name = 1550473
REMARK  2 active torsions:
REMARK  status: ('A' for Active; 'I' for Inactive)
REMARK    1  A    between atoms: N_1  and  C_4
REMARK    2  A    between atoms: C_4  and  C_5
REMARK                            x       y       z     vdW  Elec       q    Type
REMARK                         _______ _______ _______ _____ _____    ______ ____
ROOT
ATOM      1  N   UNL     1      -8.649  -4.140   5.701  0.00  0.00    -0.354 N 
ATOM      2  N   UNL     1      -8.320  -2.409   4.198  0.00  0.00    -0.372 N 
ATOM      3  N   UNL     1      -7.714  -4.537   3.589  0.00  0.00    -0.372 N 
ATOM      4  C   UNL     1      -8.229  -3.709   4.504  0.00  0.00    +0.166 C 
ATOM      5  H   UNL     1      -9.002  -3.457   6.362  0.00  0.00    +0.163 HD
ATOM      6  H   UNL     1      -8.014  -2.055   3.301  0.00  0.00    +0.159 HD
ATOM      7  H   UNL     1      -8.715  -1.736   4.843  0.00  0.00    +0.159 HD
ATOM      8  H   UNL     1      -7.613  -5.529   3.761  0.00  0.00    +0.159 HD
ATOM      9  H   UNL     1      -7.392  -4.200   2.691  0.00  0.00    +0.159 HD
ENDROOT
BRANCH   1  10
ATOM     10  C   UNL     1      -8.644  -5.543   6.113  0.00  0.00    +0.151 C 
BRANCH  10  11
ATOM     11  C   UNL     1     -10.061  -6.043   6.174  0.00  0.00    -0.028 A 
ATOM     12  C   UNL     1     -10.990  -5.446   7.038  0.00  0.00    +0.005 A 
ATOM     13  C   UNL     1     -10.482  -7.109   5.365  0.00  0.00    +0.005 A 
ATOM     14  C   UNL     1     -12.314  -5.891   7.073  0.00  0.00    +0.000 A 
ATOM     15  C   UNL     1     -11.804  -7.551   5.403  0.00  0.00    +0.000 A 
ATOM     16  C   UNL     1     -12.721  -6.939   6.256  0.00  0.00    +0.000 A 
ENDBRANCH  10  11
ENDBRANCH   1  10
TORSDOF 2
ENDMDL
MODEL 5
REMARK VINA RESULT:    -4.915     19.752     21.215
REMARK INTER + INTRA:          -5.613
REMARK INTER:                  -5.485
REMARK INTRA:                  -0.128
REMARK UNBOUND:                -0.124
REMARK  Name = 1550473
REMARK  2 active torsions:
REMARK  status: ('A' for Active; 'I' for Inactive)
REMARK    1  A    between atoms: N_1  and  C_4
REMARK    2  A    between atoms: C_4  and  C_5
REMARK                            x       y       z     vdW  Elec       q    Type
REMARK                         _______ _______ _______ _____ _____    ______ ____
ROOT
ATOM      1  N   UNL     1      -3.154  -2.821 -10.276  0.00  0.00    -0.354 N 
ATOM      2  N   UNL     1      -1.351  -1.393 -10.007  0.00  0.00    -0.372 N 
ATOM      3  N   UNL     1      -1.304  -3.444  -8.979  0.00  0.00    -0.372 N 
ATOM      4  C   UNL     1      -1.947  -2.564  -9.754  0.00  0.00    +0.166 C 
ATOM      5  H   UNL     1      -3.602  -2.100 -10.830  0.00  0.00    +0.163 HD
ATOM      6  H   UNL     1      -0.439  -1.172  -9.629  0.00  0.00    +0.159 HD
ATOM      7  H   UNL     1      -1.780  -0.693 -10.599  0.00  0.00    +0.159 HD
ATOM      8  H   UNL     1      -1.703  -4.344  -8.746  0.00  0.00    +0.159 HD
ATOM      9  H   UNL     1      -0.396  -3.237  -8.583  0.00  0.00    +0.159 HD
ENDROOT
BRANCH   1  10
ATOM     10  C   UNL     1      -3.866  -4.086 -10.106  0.00  0.00    +0.151 C 
BRANCH  10  11
ATOM     11  C   UNL     1      -4.527  -4.456 -11.405  0.00  0.00    -0.028 A 
ATOM     12  C   UNL     1      -5.903  -4.727 -11.452  0.00  0.00    +0.005 A 
ATOM     13  C   UNL     1      -3.785  -4.533 -12.593  0.00  0.00    +0.005 A 
ATOM     14  C   UNL     1      -6.523  -5.042 -12.664  0.00  0.00    +0.000 A 
ATOM     15  C   UNL     1      -4.407  -4.848 -13.801  0.00  0.00    +0.000 A 
ATOM     16  C   UNL     1      -5.776  -5.100 -13.836  0.00  0.00    +0.000 A 
ENDBRANCH  10  11
ENDBRANCH   1  10
TORSDOF 2
ENDMDL
MODEL 6
REMARK VINA RESULT:    -4.793     20.999     22.385
REMARK INTER + INTRA:          -5.477
REMARK INTER:                  -5.355
REMARK INTRA:                  -0.121
REMARK UNBOUND:                -0.124
REMARK  Name = 1550473
REMARK  2 active torsions:
REMARK  status: ('A' for Active; 'I' for Inactive)
REMARK    1  A    between atoms: N_1  and  C_4
REMARK    2  A    between atoms: C_4  and  C_5
REMARK                            x       y       z     vdW  Elec       q    Type
REMARK                         _______ _______ _______ _____ _____    ______ ____
ROOT
ATOM      1  N   UNL     1      -3.238  -4.891 -11.122  0.00  0.00    -0.354 N 
ATOM      2  N   UNL     1      -0.996  -5.065 -10.571  0.00  0.00    -0.372 N 
ATOM      3  N   UNL     1      -2.245  -3.392  -9.619  0.00  0.00    -0.372 N 
ATOM      4  C   UNL     1      -2.175  -4.446 -10.439  0.00  0.00    +0.166 C 
ATOM      5  H   UNL     1      -3.113  -5.675 -11.751  0.00  0.00    +0.163 HD
ATOM      6  H   UNL     1      -0.176  -4.754 -10.066  0.00  0.00    +0.159 HD
ATOM      7  H   UNL     1      -0.884  -5.878 -11.165  0.00  0.00    +0.159 HD
ATOM      8  H   UNL     1      -3.104  -2.877  -9.480  0.00  0.00    +0.159 HD
ATOM      9  H   UNL     1      -1.433  -3.059  -9.114  0.00  0.00    +0.159 HD
ENDROOT
BRANCH   1  10
ATOM     10  C   UNL     1      -4.580  -4.320 -11.009  0.00  0.00    +0.151 C 
BRANCH  10  11
ATOM     11  C   UNL     1      -5.385  -4.716 -12.215  0.00  0.00    -0.028 A 
ATOM     12  C   UNL     1      -4.776  -4.823 -13.474  0.00  0.00    +0.005 A 
ATOM     13  C   UNL     1      -6.757  -4.991 -12.105  0.00  0.00    +0.005 A 
ATOM     14  C   UNL     1      -5.517  -5.219 -14.590  0.00  0.00    +0.000 A 
ATOM     15  C   UNL     1      -7.494  -5.386 -13.222  0.00  0.00    +0.000 A 
ATOM     16  C   UNL     1      -6.873  -5.502 -14.463  0.00  0.00    +0.000 A 
ENDBRANCH  10  11
ENDBRANCH   1  10
TORSDOF 2
ENDMDL
MODEL 7
REMARK VINA RESULT:    -4.647     13.234     14.428
REMARK INTER + INTRA:          -5.313
REMARK INTER:                  -5.175
REMARK INTRA:                  -0.138
REMARK UNBOUND:                -0.124
REMARK  Name = 1550473
REMARK  2 active torsions:
REMARK  status: ('A' for Active; 'I' for Inactive)
REMARK    1  A    between atoms: N_1  and  C_4
REMARK    2  A    between atoms: C_4  and  C_5
REMARK                            x       y       z     vdW  Elec       q    Type
REMARK                         _______ _______ _______ _____ _____    ______ ____
ROOT
ATOM      1  N   UNL     1       7.028  16.987   4.318  0.00  0.00    -0.354 N 
ATOM      2  N   UNL     1       6.351  14.843   4.872  0.00  0.00    -0.372 N 
ATOM      3  N   UNL     1       8.314  15.647   5.747  0.00  0.00    -0.372 N 
ATOM      4  C   UNL     1       7.238  15.840   4.976  0.00  0.00    +0.166 C 
ATOM      5  H   UNL     1       6.208  17.059   3.726  0.00  0.00    +0.163 HD
ATOM      6  H   UNL     1       6.481  13.967   5.360  0.00  0.00    +0.159 HD
ATOM      7  H   UNL     1       5.509  14.934   4.317  0.00  0.00    +0.159 HD
ATOM      8  H   UNL     1       9.024  16.358   5.862  0.00  0.00    +0.159 HD
ATOM      9  H   UNL     1       8.468  14.773   6.234  0.00  0.00    +0.159 HD
ENDROOT
BRANCH   1  10
ATOM     10  C   UNL     1       7.905  18.153   4.406  0.00  0.00    +0.151 C 
BRANCH  10  11
ATOM     11  C   UNL     1       8.326  18.558   3.021  0.00  0.00    -0.028 A 
ATOM     12  C   UNL     1       9.606  19.085   2.790  0.00  0.00    +0.005 A 
ATOM     13  C   UNL     1       7.452  18.412   1.932  0.00  0.00    +0.005 A 
ATOM     14  C   UNL     1      10.008  19.433   1.499  0.00  0.00    +0.000 A 
ATOM     15  C   UNL     1       7.857  18.761   0.644  0.00  0.00    +0.000 A 
ATOM     16  C   UNL     1       9.136  19.269   0.427  0.00  0.00    +0.000 A 
ENDBRANCH  10  11
ENDBRANCH   1  10
TORSDOF 2
ENDMDL
MODEL 8
REMARK VINA RESULT:    -4.520     24.095     25.541
REMARK INTER + INTRA:          -5.172
REMARK INTER:                  -5.050
REMARK INTRA:                  -0.122
REMARK UNBOUND:                -0.124
REMARK  Name = 1550473
REMARK  2 active torsions:
REMARK  status: ('A' for Active; 'I' for Inactive)
REMARK    1  A    between atoms: N_1  and  C_4
REMARK    2  A    between atoms: C_4  and  C_5
REMARK                            x       y       z     vdW  Elec       q    Type
REMARK                         _______ _______ _______ _____ _____    ______ ____
ROOT
ATOM      1  N   UNL     1      -2.075  -7.897 -10.739  0.00  0.00    -0.354 N 
ATOM      2  N   UNL     1      -0.038  -6.814 -10.948  0.00  0.00    -0.372 N 
ATOM      3  N   UNL     1      -1.944  -5.735 -11.633  0.00  0.00    -0.372 N 
ATOM      4  C   UNL     1      -1.367  -6.821 -11.107  0.00  0.00    +0.166 C 
ATOM      5  H   UNL     1      -1.575  -8.700 -10.374  0.00  0.00    +0.163 HD
ATOM      6  H   UNL     1       0.521  -6.015 -11.214  0.00  0.00    +0.159 HD
ATOM      7  H   UNL     1       0.453  -7.600 -10.541  0.00  0.00    +0.159 HD
ATOM      8  H   UNL     1      -2.942  -5.679 -11.784  0.00  0.00    +0.159 HD
ATOM      9  H   UNL     1      -1.399  -4.930 -11.916  0.00  0.00    +0.159 HD
ENDROOT
BRANCH   1  10
ATOM     10  C   UNL     1      -3.532  -7.985 -10.819  0.00  0.00    +0.151 C 
BRANCH  10  11
ATOM     11  C   UNL     1      -3.949  -9.417 -10.626  0.00  0.00    -0.028 A 
ATOM     12  C   UNL     1      -3.064 -10.463 -10.924  0.00  0.00    +0.005 A 
ATOM     13  C   UNL     1      -5.227  -9.734 -10.141  0.00  0.00    +0.005 A 
ATOM     14  C   UNL     1      -3.441 -11.792 -10.717  0.00  0.00    +0.000 A 
ATOM     15  C   UNL     1      -5.600 -11.062  -9.936  0.00  0.00    +0.000 A 
ATOM     16  C   UNL     1      -4.705 -12.091 -10.222  0.00  0.00    +0.000 A 
ENDBRANCH  10  11
ENDBRANCH   1  10
TORSDOF 2
ENDMDL
MODEL 9
REMARK VINA RESULT:    -4.485     22.533     23.546
REMARK INTER + INTRA:          -5.133
REMARK INTER:                  -4.992
REMARK INTRA:                  -0.141
REMARK UNBOUND:                -0.124
REMARK  Name = 1550473
REMARK  2 active torsions:
REMARK  status: ('A' for Active; 'I' for Inactive)
REMARK    1  A    between atoms: N_1  and  C_4
REMARK    2  A    between atoms: C_4  and  C_5
REMARK                            x       y       z     vdW  Elec       q    Type
REMARK                         _______ _______ _______ _____ _____    ______ ____
ROOT
ATOM      1  N   UNL     1      -2.292  -4.708 -14.976  0.00  0.00    -0.354 N 
ATOM      2  N   UNL     1      -1.188  -4.537 -17.005  0.00  0.00    -0.372 N 
ATOM      3  N   UNL     1      -1.344  -2.679 -15.667  0.00  0.00    -0.372 N 
ATOM      4  C   UNL     1      -1.615  -3.973 -15.868  0.00  0.00    +0.166 C 
ATOM      5  H   UNL     1      -2.491  -5.676 -15.202  0.00  0.00    +0.163 HD
ATOM      6  H   UNL     1      -0.672  -4.008 -17.695  0.00  0.00    +0.159 HD
ATOM      7  H   UNL     1      -1.349  -5.516 -17.207  0.00  0.00    +0.159 HD
ATOM      8  H   UNL     1      -1.644  -2.193 -14.832  0.00  0.00    +0.159 HD
ATOM      9  H   UNL     1      -0.839  -2.130 -16.351  0.00  0.00    +0.159 HD
ENDROOT
BRANCH   1  10
ATOM     10  C   UNL     1      -2.755  -4.204 -13.684  0.00  0.00    +0.151 C 
BRANCH  10  11
ATOM     11  C   UNL     1      -4.192  -4.601 -13.488  0.00  0.00    -0.028 A 
ATOM     12  C   UNL     1      -4.779  -4.541 -12.216  0.00  0.00    +0.005 A 
ATOM     13  C   UNL     1      -4.973  -5.033 -14.571  0.00  0.00    +0.005 A 
ATOM     14  C   UNL     1      -6.123  -4.882 -12.038  0.00  0.00    +0.000 A 
ATOM     15  C   UNL     1      -6.313  -5.373 -14.389  0.00  0.00    +0.000 A 
ATOM     16  C   UNL     1      -6.888  -5.294 -13.123  0.00  0.00    +0.000 A 
ENDBRANCH  10  11
ENDBRANCH   1  10
TORSDOF 2
ENDMDL
