MODEL 1
REMARK VINA RESULT:    -4.875      0.000      0.000
REMARK INTER + INTRA:          -5.609
REMARK INTER:                  -5.445
REMARK INTRA:                  -0.164
REMARK UNBOUND:                -0.164
REMARK  Name = 1550473
REMARK  2 active torsions:
REMARK  status: ('A' for Active; 'I' for Inactive)
REMARK    1  A    between atoms: N_1  and  C_4
REMARK    2  A    between atoms: C_4  and  C_5
REMARK                            x       y       z     vdW  Elec       q    Type
REMARK                         _______ _______ _______ _____ _____    ______ ____
ROOT
ATOM      1  N   UNL     1     -15.750 -23.850 -21.831  0.00  0.00    -0.354 N 
ATOM      2  N   UNL     1     -14.105 -22.236 -21.594  0.00  0.00    -0.372 N 
ATOM      3  N   UNL     1     -14.859 -22.751 -23.700  0.00  0.00    -0.372 N 
ATOM      4  C   UNL     1     -14.916 -22.956 -22.379  0.00  0.00    +0.166 C 
ATOM      5  H   UNL     1     -15.723 -23.980 -20.826  0.00  0.00    +0.163 HD
ATOM      6  H   UNL     1     -13.468 -21.552 -21.979  0.00  0.00    +0.159 HD
ATOM      7  H   UNL     1     -14.114 -22.335 -20.587  0.00  0.00    +0.159 HD
ATOM      8  H   UNL     1     -15.440 -23.266 -24.347  0.00  0.00    +0.159 HD
ATOM      9  H   UNL     1     -14.219 -22.079 -24.105  0.00  0.00    +0.159 HD
ENDROOT
BRANCH   1  10
ATOM     10  C   UNL     1     -16.711 -24.646 -22.593  0.00  0.00    +0.151 C 
BRANCH  10  11
ATOM     11  C   UNL     1     -18.012 -23.897 -22.677  0.00  0.00    -0.028 A 
ATOM     12  C   UNL     1     -18.556 -23.553 -23.923  0.00  0.00    +0.005 A 
ATOM     13  C   UNL     1     -18.709 -23.534 -21.514  0.00  0.00    +0.005 A 
ATOM     14  C   UNL     1     -19.780 -22.883 -24.002  0.00  0.00    +0.000 A 
ATOM     15  C   UNL     1     -19.930 -22.865 -21.598  0.00  0.00    +0.000 A 
ATOM     16  C   UNL     1     -20.466 -22.542 -22.842  0.00  0.00    +0.000 A 
ENDBRANCH  10  11
ENDBRANCH   1  10
TORSDOF 2
ENDMDL
MODEL 2
REMARK VINA RESULT:    -4.560      1.870      2.858
REMARK INTER + INTRA:          -5.257
REMARK INTER:                  -5.115
REMARK INTRA:                  -0.142
REMARK UNBOUND:                -0.164
REMARK  Name = 1550473
REMARK  2 active torsions:
REMARK  status: ('A' for Active; 'I' for Inactive)
REMARK    1  A    between atoms: N_1  and  C_4
REMARK    2  A    between atoms: C_4  and  C_5
REMARK                            x       y       z     vdW  Elec       q    Type
REMARK                         _______ _______ _______ _____ _____    ______ ____
ROOT
ATOM      1  N   UNL     1     -16.017 -24.599 -24.077  0.00  0.00    -0.354 N 
ATOM      2  N   UNL     1     -15.076 -25.709 -25.879  0.00  0.00    -0.372 N 
ATOM      3  N   UNL     1     -15.264 -26.809 -23.874  0.00  0.00    -0.372 N 
ATOM      4  C   UNL     1     -15.458 -25.700 -24.596  0.00  0.00    +0.166 C 
ATOM      5  H   UNL     1     -16.109 -23.781 -24.668  0.00  0.00    +0.163 HD
ATOM      6  H   UNL     1     -14.655 -26.526 -26.299  0.00  0.00    +0.159 HD
ATOM      7  H   UNL     1     -15.211 -24.905 -26.480  0.00  0.00    +0.159 HD
ATOM      8  H   UNL     1     -15.525 -26.865 -22.899  0.00  0.00    +0.159 HD
ATOM      9  H   UNL     1     -14.833 -27.633 -24.274  0.00  0.00    +0.159 HD
ENDROOT
BRANCH   1  10
ATOM     10  C   UNL     1     -16.516 -24.504 -22.706  0.00  0.00    +0.151 C 
BRANCH  10  11
ATOM     11  C   UNL     1     -17.883 -23.877 -22.724  0.00  0.00    -0.028 A 
ATOM     12  C   UNL     1     -18.552 -23.593 -21.524  0.00  0.00    +0.005 A 
ATOM     13  C   UNL     1     -18.513 -23.561 -23.937  0.00  0.00    +0.005 A 
ATOM     14  C   UNL     1     -19.809 -22.984 -21.539  0.00  0.00    +0.000 A 
ATOM     15  C   UNL     1     -19.769 -22.953 -23.948  0.00  0.00    +0.000 A 
ATOM     16  C   UNL     1     -20.415 -22.663 -22.749  0.00  0.00    +0.000 A 
ENDBRANCH  10  11
ENDBRANCH   1  10
TORSDOF 2
ENDMDL
MODEL 3
REMARK VINA RESULT:    -4.454      1.738      2.169
REMARK INTER + INTRA:          -5.138
REMARK INTER:                  -5.012
REMARK INTRA:                  -0.126
REMARK UNBOUND:                -0.164
REMARK  Name = 1550473
REMARK  2 active torsions:
REMARK  status: ('A' for Active; 'I' for Inactive)
REMARK    1  A    between atoms: N_1  and  C_4
REMARK    2  A    between atoms: C_4  and  C_5
REMARK                            x       y       z     vdW  Elec       q    Type
REMARK                         _______ _______ _______ _____ _____    ______ ____
ROOT
ATOM      1  N   UNL     1     -15.335 -24.323 -24.388  0.00  0.00    -0.354 N 
ATOM      2  N   UNL     1     -13.029 -24.157 -24.249  0.00  0.00    -0.372 N 
ATOM      3  N   UNL     1     -14.065 -23.590 -26.217  0.00  0.00    -0.372 N 
ATOM      4  C   UNL     1     -14.158 -24.024 -24.955  0.00  0.00    +0.166 C 
ATOM      5  H   UNL     1     -15.335 -24.676 -23.438  0.00  0.00    +0.163 HD
ATOM      6  H   UNL     1     -12.127 -23.936 -24.649  0.00  0.00    +0.159 HD
ATOM      7  H   UNL     1     -13.036 -24.466 -23.285  0.00  0.00    +0.159 HD
ATOM      8  H   UNL     1     -14.880 -23.474 -26.804  0.00  0.00    +0.159 HD
ATOM      9  H   UNL     1     -13.170 -23.375 -26.638  0.00  0.00    +0.159 HD
ENDROOT
BRANCH   1  10
ATOM     10  C   UNL     1     -16.627 -24.162 -25.052  0.00  0.00    +0.151 C 
BRANCH  10  11
ATOM     11  C   UNL     1     -17.667 -23.810 -24.024  0.00  0.00    -0.028 A 
ATOM     12  C   UNL     1     -18.882 -23.227 -24.412  0.00  0.00    +0.005 A 
ATOM     13  C   UNL     1     -17.446 -24.064 -22.662  0.00  0.00    +0.005 A 
ATOM     14  C   UNL     1     -19.861 -22.928 -23.460  0.00  0.00    +0.000 A 
ATOM     15  C   UNL     1     -18.425 -23.763 -21.715  0.00  0.00    +0.000 A 
ATOM     16  C   UNL     1     -19.633 -23.198 -22.115  0.00  0.00    +0.000 A 
ENDBRANCH  10  11
ENDBRANCH   1  10
TORSDOF 2
ENDMDL
MODEL 4
REMARK VINA RESULT:    -4.408      9.549     10.617
REMARK INTER + INTRA:          -5.087
REMARK INTER:                  -4.907
REMARK INTRA:                  -0.180
REMARK UNBOUND:                -0.164
REMARK  Name = 1550473
REMARK  2 active torsions:
REMARK  status: ('A' for Active; 'I' for Inactive)
REMARK    1  A    between atoms: N_1  and  C_4
REMARK    2  A    between atoms: C_4  and  C_5
REMARK                            x       y       z     vdW  Elec       q    Type
REMARK                         _______ _______ _______ _____ _____    ______ ____
ROOT
ATOM      1  N   UNL     1      -9.963 -16.982 -28.749  0.00  0.00    -0.354 N 
ATOM      2  N   UNL     1      -9.306 -16.440 -26.595  0.00  0.00    -0.372 N 
ATOM      3  N   UNL     1     -10.901 -15.152 -27.625  0.00  0.00    -0.372 N 
ATOM      4  C   UNL     1     -10.063 -16.193 -27.671  0.00  0.00    +0.166 C 
ATOM      5  H   UNL     1      -9.287 -17.737 -28.732  0.00  0.00    +0.163 HD
ATOM      6  H   UNL     1      -9.362 -15.864 -25.766  0.00  0.00    +0.159 HD
ATOM      7  H   UNL     1      -8.664 -17.223 -26.564  0.00  0.00    +0.159 HD
ATOM      8  H   UNL     1     -11.496 -14.908 -28.406  0.00  0.00    +0.159 HD
ATOM      9  H   UNL     1     -10.963 -14.556 -26.809  0.00  0.00    +0.159 HD
ENDROOT
BRANCH   1  10
ATOM     10  C   UNL     1     -10.781 -16.831 -29.951  0.00  0.00    +0.151 C 
BRANCH  10  11
ATOM     11  C   UNL     1     -11.851 -17.888 -29.953  0.00  0.00    -0.028 A 
ATOM     12  C   UNL     1     -13.177 -17.559 -29.637  0.00  0.00    +0.005 A 
ATOM     13  C   UNL     1     -11.546 -19.219 -30.276  0.00  0.00    +0.005 A 
ATOM     14  C   UNL     1     -14.177 -18.534 -29.668  0.00  0.00    +0.000 A 
ATOM     15  C   UNL     1     -12.547 -20.190 -30.305  0.00  0.00    +0.000 A 
ATOM     16  C   UNL     1     -13.863 -19.846 -30.004  0.00  0.00    +0.000 A 
ENDBRANCH  10  11
ENDBRANCH   1  10
TORSDOF 2
ENDMDL
MODEL 5
REMARK VINA RESULT:    -4.389     34.585     35.477
REMARK INTER + INTRA:          -5.067
REMARK INTER:                  -4.943
REMARK INTRA:                  -0.124
REMARK UNBOUND:                -0.164
REMARK  Name = 1550473
REMARK  2 active torsions:
REMARK  status: ('A' for Active; 'I' for Inactive)
REMARK    1  A    between atoms: N_1  and  C_4
REMARK    2  A    between atoms: C_4  and  C_5
REMARK                            x       y       z     vdW  Elec       q    Type
REMARK                         _______ _______ _______ _____ _____    ______ ____
ROOT
ATOM      1  N   UNL     1     -12.649   9.249  -5.722  0.00  0.00    -0.354 N 
ATOM      2  N   UNL     1     -10.815  10.662  -5.684  0.00  0.00    -0.372 N 
ATOM      3  N   UNL     1     -11.019   9.066  -4.048  0.00  0.00    -0.372 N 
ATOM      4  C   UNL     1     -11.506   9.648  -5.149  0.00  0.00    +0.166 C 
ATOM      5  H   UNL     1     -12.980   9.751  -6.538  0.00  0.00    +0.163 HD
ATOM      6  H   UNL     1      -9.947  10.984  -5.276  0.00  0.00    +0.159 HD
ATOM      7  H   UNL     1     -11.124  11.132  -6.526  0.00  0.00    +0.159 HD
ATOM      8  H   UNL     1     -11.496   8.300  -3.592  0.00  0.00    +0.159 HD
ATOM      9  H   UNL     1     -10.159   9.381  -3.618  0.00  0.00    +0.159 HD
ENDROOT
BRANCH   1  10
ATOM     10  C   UNL     1     -13.449   8.120  -5.250  0.00  0.00    +0.151 C 
BRANCH  10  11
ATOM     11  C   UNL     1     -14.110   7.459  -6.428  0.00  0.00    -0.028 A 
ATOM     12  C   UNL     1     -15.476   7.145  -6.395  0.00  0.00    +0.005 A 
ATOM     13  C   UNL     1     -13.376   7.150  -7.584  0.00  0.00    +0.005 A 
ATOM     14  C   UNL     1     -16.097   6.559  -7.501  0.00  0.00    +0.000 A 
ATOM     15  C   UNL     1     -13.999   6.563  -8.685  0.00  0.00    +0.000 A 
ATOM     16  C   UNL     1     -15.360   6.270  -8.644  0.00  0.00    +0.000 A 
ENDBRANCH  10  11
ENDBRANCH   1  10
TORSDOF 2
ENDMDL
MODEL 6
REMARK VINA RESULT:    -4.387     20.633     21.792
REMARK INTER + INTRA:          -5.063
REMARK INTER:                  -4.951
REMARK INTRA:                  -0.112
REMARK UNBOUND:                -0.164
REMARK  Name = 1550473
REMARK  2 active torsions:
REMARK  status: ('A' for Active; 'I' for Inactive)
REMARK    1  A    between atoms: N_1  and  C_4
REMARK    2  A    between atoms: C_4  and  C_5
REMARK                            x       y       z     vdW  Elec       q    Type
REMARK                         _______ _______ _______ _____ _____    ______ ____
ROOT
ATOM      1  N   UNL     1     -26.504  -3.845 -14.660  0.00  0.00    -0.354 N 
ATOM      2  N   UNL     1     -25.735  -1.790 -13.919  0.00  0.00    -0.372 N 
ATOM      3  N   UNL     1     -25.784  -2.208 -16.175  0.00  0.00    -0.372 N 
ATOM      4  C   UNL     1     -26.012  -2.628 -14.926  0.00  0.00    +0.166 C 
ATOM      5  H   UNL     1     -26.625  -4.114 -13.691  0.00  0.00    +0.163 HD
ATOM      6  H   UNL     1     -25.366  -0.864 -14.088  0.00  0.00    +0.159 HD
ATOM      7  H   UNL     1     -25.900  -2.045 -12.953  0.00  0.00    +0.159 HD
ATOM      8  H   UNL     1     -25.967  -2.794 -16.978  0.00  0.00    +0.159 HD
ATOM      9  H   UNL     1     -25.405  -1.288 -16.364  0.00  0.00    +0.159 HD
ENDROOT
BRANCH   1  10
ATOM     10  C   UNL     1     -26.889  -4.812 -15.686  0.00  0.00    +0.151 C 
BRANCH  10  11
ATOM     11  C   UNL     1     -27.069  -6.162 -15.046  0.00  0.00    -0.028 A 
ATOM     12  C   UNL     1     -26.689  -7.328 -15.726  0.00  0.00    +0.005 A 
ATOM     13  C   UNL     1     -27.614  -6.280 -13.758  0.00  0.00    +0.005 A 
ATOM     14  C   UNL     1     -26.828  -8.579 -15.120  0.00  0.00    +0.000 A 
ATOM     15  C   UNL     1     -27.751  -7.531 -13.158  0.00  0.00    +0.000 A 
ATOM     16  C   UNL     1     -27.356  -8.680 -13.838  0.00  0.00    +0.000 A 
ENDBRANCH  10  11
ENDBRANCH   1  10
TORSDOF 2
ENDMDL
MODEL 7
REMARK VINA RESULT:    -4.336     60.374     61.884
REMARK INTER + INTRA:          -5.007
REMARK INTER:                  -4.849
REMARK INTRA:                  -0.158
REMARK UNBOUND:                -0.164
REMARK  Name = 1550473
REMARK  2 active torsions:
REMARK  status: ('A' for Active; 'I' for Inactive)
REMARK    1  A    between atoms: N_1  and  C_4
REMARK    2  A    between atoms: C_4  and  C_5
REMARK                            x       y       z     vdW  Elec       q    Type
REMARK                         _______ _______ _______ _____ _____    ______ ____
ROOT
ATOM      1  N   UNL     1      19.796  -1.028  23.795  0.00  0.00    -0.354 N 
ATOM      2  N   UNL     1      18.421   0.629  24.646  0.00  0.00    -0.372 N 
ATOM      3  N   UNL     1      17.547  -1.462  24.287  0.00  0.00    -0.372 N 
ATOM      4  C   UNL     1      18.595  -0.633  24.237  0.00  0.00    +0.166 C 
ATOM      5  H   UNL     1      20.543  -0.344  23.753  0.00  0.00    +0.163 HD
ATOM      6  H   UNL     1      17.527   0.955  24.988  0.00  0.00    +0.159 HD
ATOM      7  H   UNL     1      19.180   1.299  24.646  0.00  0.00    +0.159 HD
ATOM      8  H   UNL     1      17.611  -2.425  23.987  0.00  0.00    +0.159 HD
ATOM      9  H   UNL     1      16.641  -1.151  24.615  0.00  0.00    +0.159 HD
ENDROOT
BRANCH   1  10
ATOM     10  C   UNL     1      20.105  -2.395  23.378  0.00  0.00    +0.151 C 
BRANCH  10  11
ATOM     11  C   UNL     1      19.996  -2.488  21.881  0.00  0.00    -0.028 A 
ATOM     12  C   UNL     1      19.480  -3.643  21.275  0.00  0.00    +0.005 A 
ATOM     13  C   UNL     1      20.401  -1.422  21.063  0.00  0.00    +0.005 A 
ATOM     14  C   UNL     1      19.350  -3.718  19.886  0.00  0.00    +0.000 A 
ATOM     15  C   UNL     1      20.270  -1.501  19.676  0.00  0.00    +0.000 A 
ATOM     16  C   UNL     1      19.743  -2.648  19.089  0.00  0.00    +0.000 A 
ENDBRANCH  10  11
ENDBRANCH   1  10
TORSDOF 2
ENDMDL
MODEL 8
REMARK VINA RESULT:    -4.305      3.341      5.387
REMARK INTER + INTRA:          -4.972
REMARK INTER:                  -4.844
REMARK INTRA:                  -0.128
REMARK UNBOUND:                -0.164
REMARK  Name = 1550473
REMARK  2 active torsions:
REMARK  status: ('A' for Active; 'I' for Inactive)
REMARK    1  A    between atoms: N_1  and  C_4
REMARK    2  A    between atoms: C_4  and  C_5
REMARK                            x       y       z     vdW  Elec       q    Type
REMARK                         _______ _______ _______ _____ _____    ______ ____
ROOT
ATOM      1  N   UNL     1     -17.774 -23.963 -23.707  0.00  0.00    -0.354 N 
ATOM      2  N   UNL     1     -19.675 -23.667 -22.418  0.00  0.00    -0.372 N 
ATOM      3  N   UNL     1     -19.688 -22.946 -24.596  0.00  0.00    -0.372 N 
ATOM      4  C   UNL     1     -19.034 -23.526 -23.585  0.00  0.00    +0.166 C 
ATOM      5  H   UNL     1     -17.323 -24.367 -22.894  0.00  0.00    +0.163 HD
ATOM      6  H   UNL     1     -20.627 -23.349 -22.296  0.00  0.00    +0.159 HD
ATOM      7  H   UNL     1     -19.238 -24.112 -21.620  0.00  0.00    +0.159 HD
ATOM      8  H   UNL     1     -19.259 -22.804 -25.501  0.00  0.00    +0.159 HD
ATOM      9  H   UNL     1     -20.638 -22.611 -24.491  0.00  0.00    +0.159 HD
ENDROOT
BRANCH   1  10
ATOM     10  C   UNL     1     -17.006 -23.906 -24.950  0.00  0.00    +0.151 C 
BRANCH  10  11
ATOM     11  C   UNL     1     -15.895 -24.919 -24.888  0.00  0.00    -0.028 A 
ATOM     12  C   UNL     1     -15.787 -25.790 -23.794  0.00  0.00    +0.005 A 
ATOM     13  C   UNL     1     -14.952 -25.015 -25.922  0.00  0.00    +0.005 A 
ATOM     14  C   UNL     1     -14.773 -26.750 -23.750  0.00  0.00    +0.000 A 
ATOM     15  C   UNL     1     -13.941 -25.975 -25.874  0.00  0.00    +0.000 A 
ATOM     16  C   UNL     1     -13.854 -26.844 -24.790  0.00  0.00    +0.000 A 
ENDBRANCH  10  11
ENDBRANCH   1  10
TORSDOF 2
ENDMDL
MODEL 9
REMARK VINA RESULT:    -4.272     31.206     32.103
REMARK INTER + INTRA:          -4.935
REMARK INTER:                  -4.802
REMARK INTRA:                  -0.133
REMARK UNBOUND:                -0.164
REMARK  Name = 1550473
REMARK  2 active torsions:
REMARK  status: ('A' for Active; 'I' for Inactive)
REMARK    1  A    between atoms: N_1  and  C_4
REMARK    2  A    between atoms: C_4  and  C_5
REMARK                            x       y       z     vdW  Elec       q    Type
REMARK                         _______ _______ _______ _____ _____    ______ ____
ROOT
ATOM      1  N   UNL     1     -15.603   2.763  -5.418  0.00  0.00    -0.354 N 
ATOM      2  N   UNL     1     -16.580   0.664  -5.338  0.00  0.00    -0.372 N 
ATOM      3  N   UNL     1     -14.417   0.910  -4.610  0.00  0.00    -0.372 N 
ATOM      4  C   UNL     1     -15.524   1.459  -5.121  0.00  0.00    +0.166 C 
ATOM      5  H   UNL     1     -16.461   3.112  -5.831  0.00  0.00    +0.163 HD
ATOM      6  H   UNL     1     -16.551  -0.323  -5.121  0.00  0.00    +0.159 HD
ATOM      7  H   UNL     1     -17.451   1.024  -5.708  0.00  0.00    +0.159 HD
ATOM      8  H   UNL     1     -13.585   1.454  -4.429  0.00  0.00    +0.159 HD
ATOM      9  H   UNL     1     -14.365  -0.078  -4.397  0.00  0.00    +0.159 HD
ENDROOT
BRANCH   1  10
ATOM     10  C   UNL     1     -14.530   3.724  -5.171  0.00  0.00    +0.151 C 
BRANCH  10  11
ATOM     11  C   UNL     1     -14.557   4.777  -6.243  0.00  0.00    -0.028 A 
ATOM     12  C   UNL     1     -13.703   5.888  -6.173  0.00  0.00    +0.005 A 
ATOM     13  C   UNL     1     -15.430   4.668  -7.336  0.00  0.00    +0.005 A 
ATOM     14  C   UNL     1     -13.707   6.851  -7.184  0.00  0.00    +0.000 A 
ATOM     15  C   UNL     1     -15.432   5.632  -8.344  0.00  0.00    +0.000 A 
ATOM     16  C   UNL     1     -14.568   6.722  -8.269  0.00  0.00    +0.000 A 
ENDBRANCH  10  11
ENDBRANCH   1  10
TORSDOF 2
ENDMDL
