MODEL 1
REMARK VINA RESULT:    -6.314      0.000      0.000
REMARK INTER + INTRA:          -7.228
REMARK INTER:                  -7.052
REMARK INTRA:                  -0.175
REMARK UNBOUND:                -0.175
REMARK  Name = 1550473
REMARK  2 active torsions:
REMARK  status: ('A' for Active; 'I' for Inactive)
REMARK    1  A    between atoms: N_1  and  C_4
REMARK    2  A    between atoms: C_4  and  C_5
REMARK                            x       y       z     vdW  Elec       q    Type
REMARK                         _______ _______ _______ _____ _____    ______ ____
ROOT
ATOM      1  N   UNL     1      -2.602   1.727  15.120  0.00  0.00    -0.354 N 
ATOM      2  N   UNL     1      -2.868  -0.137  13.771  0.00  0.00    -0.372 N 
ATOM      3  N   UNL     1      -4.530   0.402  15.259  0.00  0.00    -0.372 N 
ATOM      4  C   UNL     1      -3.334   0.676  14.727  0.00  0.00    +0.166 C 
ATOM      5  H   UNL     1      -1.690   1.863  14.700  0.00  0.00    +0.163 HD
ATOM      6  H   UNL     1      -3.399  -0.935  13.452  0.00  0.00    +0.159 HD
ATOM      7  H   UNL     1      -1.976   0.028  13.320  0.00  0.00    +0.159 HD
ATOM      8  H   UNL     1      -4.935   0.973  15.988  0.00  0.00    +0.159 HD
ATOM      9  H   UNL     1      -5.071  -0.400  14.960  0.00  0.00    +0.159 HD
ENDROOT
BRANCH   1  10
ATOM     10  C   UNL     1      -3.042   2.703  16.115  0.00  0.00    +0.151 C 
BRANCH  10  11
ATOM     11  C   UNL     1      -3.415   3.982  15.418  0.00  0.00    -0.028 A 
ATOM     12  C   UNL     1      -4.719   4.178  14.939  0.00  0.00    +0.005 A 
ATOM     13  C   UNL     1      -2.471   5.004  15.237  0.00  0.00    +0.005 A 
ATOM     14  C   UNL     1      -5.074   5.378  14.317  0.00  0.00    +0.000 A 
ATOM     15  C   UNL     1      -2.829   6.200  14.615  0.00  0.00    +0.000 A 
ATOM     16  C   UNL     1      -4.131   6.388  14.157  0.00  0.00    +0.000 A 
ENDBRANCH  10  11
ENDBRANCH   1  10
TORSDOF 2
ENDMDL
MODEL 2
REMARK VINA RESULT:    -6.105      3.574      5.100
REMARK INTER + INTRA:          -6.995
REMARK INTER:                  -7.013
REMARK INTRA:                   0.018
REMARK UNBOUND:                -0.175
REMARK  Name = 1550473
REMARK  2 active torsions:
REMARK  status: ('A' for Active; 'I' for Inactive)
REMARK    1  A    between atoms: N_1  and  C_4
REMARK    2  A    between atoms: C_4  and  C_5
REMARK                            x       y       z     vdW  Elec       q    Type
REMARK                         _______ _______ _______ _____ _____    ______ ____
ROOT
ATOM      1  N   UNL     1      -5.628   6.500  15.328  0.00  0.00    -0.354 N 
ATOM      2  N   UNL     1      -5.354   8.331  16.719  0.00  0.00    -0.372 N 
ATOM      3  N   UNL     1      -3.583   7.640  15.435  0.00  0.00    -0.372 N 
ATOM      4  C   UNL     1      -4.854   7.478  15.817  0.00  0.00    +0.166 C 
ATOM      5  H   UNL     1      -6.574   6.412  15.681  0.00  0.00    +0.163 HD
ATOM      6  H   UNL     1      -4.796   9.081  17.103  0.00  0.00    +0.159 HD
ATOM      7  H   UNL     1      -6.314   8.269  17.036  0.00  0.00    +0.159 HD
ATOM      8  H   UNL     1      -3.144   7.026  14.762  0.00  0.00    +0.159 HD
ATOM      9  H   UNL     1      -3.004   8.377  15.817  0.00  0.00    +0.159 HD
ENDROOT
BRANCH   1  10
ATOM     10  C   UNL     1      -5.196   5.551  14.302  0.00  0.00    +0.151 C 
BRANCH  10  11
ATOM     11  C   UNL     1      -4.304   4.518  14.933  0.00  0.00    -0.028 A 
ATOM     12  C   UNL     1      -4.652   3.929  16.158  0.00  0.00    +0.005 A 
ATOM     13  C   UNL     1      -3.113   4.119  14.308  0.00  0.00    +0.005 A 
ATOM     14  C   UNL     1      -3.838   2.948  16.730  0.00  0.00    +0.000 A 
ATOM     15  C   UNL     1      -2.303   3.139  14.883  0.00  0.00    +0.000 A 
ATOM     16  C   UNL     1      -2.667   2.552  16.092  0.00  0.00    +0.000 A 
ENDBRANCH  10  11
ENDBRANCH   1  10
TORSDOF 2
ENDMDL
MODEL 3
REMARK VINA RESULT:    -5.607      2.878      4.960
REMARK INTER + INTRA:          -6.438
REMARK INTER:                  -6.300
REMARK INTRA:                  -0.139
REMARK UNBOUND:                -0.175
REMARK  Name = 1550473
REMARK  2 active torsions:
REMARK  status: ('A' for Active; 'I' for Inactive)
REMARK    1  A    between atoms: N_1  and  C_4
REMARK    2  A    between atoms: C_4  and  C_5
REMARK                            x       y       z     vdW  Elec       q    Type
REMARK                         _______ _______ _______ _____ _____    ______ ____
ROOT
ATOM      1  N   UNL     1      -2.817   5.460  15.301  0.00  0.00    -0.354 N 
ATOM      2  N   UNL     1      -2.343   7.509  14.331  0.00  0.00    -0.372 N 
ATOM      3  N   UNL     1      -4.536   6.911  14.643  0.00  0.00    -0.372 N 
ATOM      4  C   UNL     1      -3.238   6.613  14.764  0.00  0.00    +0.166 C 
ATOM      5  H   UNL     1      -1.820   5.282  15.337  0.00  0.00    +0.163 HD
ATOM      6  H   UNL     1      -2.630   8.389  13.925  0.00  0.00    +0.159 HD
ATOM      7  H   UNL     1      -1.346   7.348  14.410  0.00  0.00    +0.159 HD
ATOM      8  H   UNL     1      -5.262   6.275  14.945  0.00  0.00    +0.159 HD
ATOM      9  H   UNL     1      -4.843   7.782  14.228  0.00  0.00    +0.159 HD
ENDROOT
BRANCH   1  10
ATOM     10  C   UNL     1      -3.709   4.441  15.852  0.00  0.00    +0.151 C 
BRANCH  10  11
ATOM     11  C   UNL     1      -3.209   3.081  15.450  0.00  0.00    -0.028 A 
ATOM     12  C   UNL     1      -2.161   2.952  14.527  0.00  0.00    +0.005 A 
ATOM     13  C   UNL     1      -3.775   1.918  15.993  0.00  0.00    +0.005 A 
ATOM     14  C   UNL     1      -1.676   1.690  14.175  0.00  0.00    +0.000 A 
ATOM     15  C   UNL     1      -3.288   0.659  15.639  0.00  0.00    +0.000 A 
ATOM     16  C   UNL     1      -2.237   0.546  14.732  0.00  0.00    +0.000 A 
ENDBRANCH  10  11
ENDBRANCH   1  10
TORSDOF 2
ENDMDL
MODEL 4
REMARK VINA RESULT:    -5.381     20.440     21.356
REMARK INTER + INTRA:          -6.186
REMARK INTER:                  -6.017
REMARK INTRA:                  -0.168
REMARK UNBOUND:                -0.175
REMARK  Name = 1550473
REMARK  2 active torsions:
REMARK  status: ('A' for Active; 'I' for Inactive)
REMARK    1  A    between atoms: N_1  and  C_4
REMARK    2  A    between atoms: C_4  and  C_5
REMARK                            x       y       z     vdW  Elec       q    Type
REMARK                         _______ _______ _______ _____ _____    ______ ____
ROOT
ATOM      1  N   UNL     1       8.514   5.636  -1.522  0.00  0.00    -0.354 N 
ATOM      2  N   UNL     1       7.541   5.014  -3.529  0.00  0.00    -0.372 N 
ATOM      3  N   UNL     1       9.328   6.452  -3.562  0.00  0.00    -0.372 N 
ATOM      4  C   UNL     1       8.469   5.706  -2.859  0.00  0.00    +0.166 C 
ATOM      5  H   UNL     1       7.816   5.076  -1.046  0.00  0.00    +0.163 HD
ATOM      6  H   UNL     1       7.484   5.045  -4.538  0.00  0.00    +0.159 HD
ATOM      7  H   UNL     1       6.873   4.419  -3.054  0.00  0.00    +0.159 HD
ATOM      8  H   UNL     1      10.049   7.003  -3.116  0.00  0.00    +0.159 HD
ATOM      9  H   UNL     1       9.281   6.505  -4.572  0.00  0.00    +0.159 HD
ENDROOT
BRANCH   1  10
ATOM     10  C   UNL     1       9.519   6.308  -0.701  0.00  0.00    +0.151 C 
BRANCH  10  11
ATOM     11  C   UNL     1      10.459   5.280  -0.135  0.00  0.00    -0.028 A 
ATOM     12  C   UNL     1      11.510   4.771  -0.912  0.00  0.00    +0.005 A 
ATOM     13  C   UNL     1      10.308   4.814   1.180  0.00  0.00    +0.005 A 
ATOM     14  C   UNL     1      12.402   3.838  -0.376  0.00  0.00    +0.000 A 
ATOM     15  C   UNL     1      11.199   3.881   1.711  0.00  0.00    +0.000 A 
ATOM     16  C   UNL     1      12.248   3.396   0.933  0.00  0.00    +0.000 A 
ENDBRANCH  10  11
ENDBRANCH   1  10
TORSDOF 2
ENDMDL
MODEL 5
REMARK VINA RESULT:    -4.924     13.045     14.847
REMARK INTER + INTRA:          -5.675
REMARK INTER:                  -5.545
REMARK INTRA:                  -0.130
REMARK UNBOUND:                -0.175
REMARK  Name = 1550473
REMARK  2 active torsions:
REMARK  status: ('A' for Active; 'I' for Inactive)
REMARK    1  A    between atoms: N_1  and  C_4
REMARK    2  A    between atoms: C_4  and  C_5
REMARK                            x       y       z     vdW  Elec       q    Type
REMARK                         _______ _______ _______ _____ _____    ______ ____
ROOT
ATOM      1  N   UNL     1     -13.836  -2.605   8.419  0.00  0.00    -0.354 N 
ATOM      2  N   UNL     1     -13.172  -1.240  10.168  0.00  0.00    -0.372 N 
ATOM      3  N   UNL     1     -12.834  -0.525   8.014  0.00  0.00    -0.372 N 
ATOM      4  C   UNL     1     -13.284  -1.464   8.853  0.00  0.00    +0.166 C 
ATOM      5  H   UNL     1     -14.129  -3.290   9.105  0.00  0.00    +0.163 HD
ATOM      6  H   UNL     1     -12.764  -0.387  10.526  0.00  0.00    +0.159 HD
ATOM      7  H   UNL     1     -13.509  -1.907  10.853  0.00  0.00    +0.159 HD
ATOM      8  H   UNL     1     -12.884  -0.636   7.010  0.00  0.00    +0.159 HD
ATOM      9  H   UNL     1     -12.412   0.330   8.353  0.00  0.00    +0.159 HD
ENDROOT
BRANCH   1  10
ATOM     10  C   UNL     1     -14.053  -2.923   7.008  0.00  0.00    +0.151 C 
BRANCH  10  11
ATOM     11  C   UNL     1     -13.349  -4.211   6.681  0.00  0.00    -0.028 A 
ATOM     12  C   UNL     1     -12.159  -4.558   7.336  0.00  0.00    +0.005 A 
ATOM     13  C   UNL     1     -13.870  -5.090   5.719  0.00  0.00    +0.005 A 
ATOM     14  C   UNL     1     -11.520  -5.768   7.054  0.00  0.00    +0.000 A 
ATOM     15  C   UNL     1     -13.229  -6.297   5.440  0.00  0.00    +0.000 A 
ATOM     16  C   UNL     1     -12.055  -6.637   6.109  0.00  0.00    +0.000 A 
ENDBRANCH  10  11
ENDBRANCH   1  10
TORSDOF 2
ENDMDL
MODEL 6
REMARK VINA RESULT:    -4.887     12.871     14.657
REMARK INTER + INTRA:          -5.633
REMARK INTER:                  -5.503
REMARK INTRA:                  -0.130
REMARK UNBOUND:                -0.175
REMARK  Name = 1550473
REMARK  2 active torsions:
REMARK  status: ('A' for Active; 'I' for Inactive)
REMARK    1  A    between atoms: N_1  and  C_4
REMARK    2  A    between atoms: C_4  and  C_5
REMARK                            x       y       z     vdW  Elec       q    Type
REMARK                         _______ _______ _______ _____ _____    ______ ____
ROOT
ATOM      1  N   UNL     1      -5.516  16.820   7.348  0.00  0.00    -0.354 N 
ATOM      2  N   UNL     1      -4.396  18.261   5.921  0.00  0.00    -0.372 N 
ATOM      3  N   UNL     1      -5.397  16.390   5.047  0.00  0.00    -0.372 N 
ATOM      4  C   UNL     1      -5.111  17.145   6.113  0.00  0.00    +0.166 C 
ATOM      5  H   UNL     1      -5.240  17.419   8.118  0.00  0.00    +0.163 HD
ATOM      6  H   UNL     1      -4.080  18.533   5.000  0.00  0.00    +0.159 HD
ATOM      7  H   UNL     1      -4.162  18.881   6.686  0.00  0.00    +0.159 HD
ATOM      8  H   UNL     1      -5.928  15.532   5.126  0.00  0.00    +0.159 HD
ATOM      9  H   UNL     1      -5.079  16.640   4.119  0.00  0.00    +0.159 HD
ENDROOT
BRANCH   1  10
ATOM     10  C   UNL     1      -6.344  15.656   7.657  0.00  0.00    +0.151 C 
BRANCH  10  11
ATOM     11  C   UNL     1      -5.876  15.049   8.951  0.00  0.00    -0.028 A 
ATOM     12  C   UNL     1      -5.132  15.810   9.865  0.00  0.00    +0.005 A 
ATOM     13  C   UNL     1      -6.178  13.717   9.271  0.00  0.00    +0.005 A 
ATOM     14  C   UNL     1      -4.722  15.256  11.081  0.00  0.00    +0.000 A 
ATOM     15  C   UNL     1      -5.766  13.168  10.486  0.00  0.00    +0.000 A 
ATOM     16  C   UNL     1      -5.041  13.938  11.391  0.00  0.00    +0.000 A 
ENDBRANCH  10  11
ENDBRANCH   1  10
TORSDOF 2
ENDMDL
MODEL 7
REMARK VINA RESULT:    -4.861     15.085     16.673
REMARK INTER + INTRA:          -5.605
REMARK INTER:                  -5.467
REMARK INTRA:                  -0.138
REMARK UNBOUND:                -0.175
REMARK  Name = 1550473
REMARK  2 active torsions:
REMARK  status: ('A' for Active; 'I' for Inactive)
REMARK    1  A    between atoms: N_1  and  C_4
REMARK    2  A    between atoms: C_4  and  C_5
REMARK                            x       y       z     vdW  Elec       q    Type
REMARK                         _______ _______ _______ _____ _____    ______ ____
ROOT
ATOM      1  N   UNL     1     -12.432  -7.573   3.846  0.00  0.00    -0.354 N 
ATOM      2  N   UNL     1     -10.976  -8.247   2.176  0.00  0.00    -0.372 N 
ATOM      3  N   UNL     1     -12.764  -6.921   1.620  0.00  0.00    -0.372 N 
ATOM      4  C   UNL     1     -12.069  -7.575   2.557  0.00  0.00    +0.166 C 
ATOM      5  H   UNL     1     -11.880  -8.113   4.502  0.00  0.00    +0.163 HD
ATOM      6  H   UNL     1     -10.675  -8.264   1.211  0.00  0.00    +0.159 HD
ATOM      7  H   UNL     1     -10.400  -8.748   2.841  0.00  0.00    +0.159 HD
ATOM      8  H   UNL     1     -13.601  -6.399   1.841  0.00  0.00    +0.159 HD
ATOM      9  H   UNL     1     -12.486  -6.935   0.647  0.00  0.00    +0.159 HD
ENDROOT
BRANCH   1  10
ATOM     10  C   UNL     1     -13.574  -6.828   4.373  0.00  0.00    +0.151 C 
BRANCH  10  11
ATOM     11  C   UNL     1     -13.118  -5.984   5.531  0.00  0.00    -0.028 A 
ATOM     12  C   UNL     1     -13.798  -4.803   5.863  0.00  0.00    +0.005 A 
ATOM     13  C   UNL     1     -12.010  -6.363   6.305  0.00  0.00    +0.005 A 
ATOM     14  C   UNL     1     -13.394  -4.035   6.957  0.00  0.00    +0.000 A 
ATOM     15  C   UNL     1     -11.609  -5.592   7.396  0.00  0.00    +0.000 A 
ATOM     16  C   UNL     1     -12.302  -4.430   7.723  0.00  0.00    +0.000 A 
ENDBRANCH  10  11
ENDBRANCH   1  10
TORSDOF 2
ENDMDL
MODEL 8
REMARK VINA RESULT:    -4.845     17.986     20.113
REMARK INTER + INTRA:          -5.587
REMARK INTER:                  -5.464
REMARK INTRA:                  -0.123
REMARK UNBOUND:                -0.175
REMARK  Name = 1550473
REMARK  2 active torsions:
REMARK  status: ('A' for Active; 'I' for Inactive)
REMARK    1  A    between atoms: N_1  and  C_4
REMARK    2  A    between atoms: C_4  and  C_5
REMARK                            x       y       z     vdW  Elec       q    Type
REMARK                         _______ _______ _______ _____ _____    ______ ____
ROOT
ATOM      1  N   UNL     1       6.092 -12.580  14.861  0.00  0.00    -0.354 N 
ATOM      2  N   UNL     1       4.626 -11.945  16.538  0.00  0.00    -0.372 N 
ATOM      3  N   UNL     1       6.818 -11.280  16.671  0.00  0.00    -0.372 N 
ATOM      4  C   UNL     1       5.857 -11.938  16.014  0.00  0.00    +0.166 C 
ATOM      5  H   UNL     1       5.328 -13.085  14.427  0.00  0.00    +0.163 HD
ATOM      6  H   UNL     1       4.418 -11.467  17.404  0.00  0.00    +0.159 HD
ATOM      7  H   UNL     1       3.854 -12.413  16.079  0.00  0.00    +0.159 HD
ATOM      8  H   UNL     1       7.770 -11.242  16.331  0.00  0.00    +0.159 HD
ATOM      9  H   UNL     1       6.632 -10.806  17.546  0.00  0.00    +0.159 HD
ENDROOT
BRANCH   1  10
ATOM     10  C   UNL     1       7.385 -12.588  14.178  0.00  0.00    +0.151 C 
BRANCH  10  11
ATOM     11  C   UNL     1       7.303 -13.496  12.983  0.00  0.00    -0.028 A 
ATOM     12  C   UNL     1       8.363 -13.564  12.066  0.00  0.00    +0.005 A 
ATOM     13  C   UNL     1       6.171 -14.295  12.763  0.00  0.00    +0.005 A 
ATOM     14  C   UNL     1       8.300 -14.430  10.972  0.00  0.00    +0.000 A 
ATOM     15  C   UNL     1       6.112 -15.158  11.668  0.00  0.00    +0.000 A 
ATOM     16  C   UNL     1       7.177 -15.226  10.774  0.00  0.00    +0.000 A 
ENDBRANCH  10  11
ENDBRANCH   1  10
TORSDOF 2
ENDMDL
MODEL 9
REMARK VINA RESULT:    -4.625     21.939     22.886
REMARK INTER + INTRA:          -5.341
REMARK INTER:                  -5.223
REMARK INTRA:                  -0.118
REMARK UNBOUND:                -0.175
REMARK  Name = 1550473
REMARK  2 active torsions:
REMARK  status: ('A' for Active; 'I' for Inactive)
REMARK    1  A    between atoms: N_1  and  C_4
REMARK    2  A    between atoms: C_4  and  C_5
REMARK                            x       y       z     vdW  Elec       q    Type
REMARK                         _______ _______ _______ _____ _____    ______ ____
ROOT
ATOM      1  N   UNL     1       9.788   6.720  -1.730  0.00  0.00    -0.354 N 
ATOM      2  N   UNL     1       7.601   6.849  -0.978  0.00  0.00    -0.372 N 
ATOM      3  N   UNL     1       9.201   5.966   0.410  0.00  0.00    -0.372 N 
ATOM      4  C   UNL     1       8.879   6.510  -0.769  0.00  0.00    +0.166 C 
ATOM      5  H   UNL     1       9.474   7.108  -2.612  0.00  0.00    +0.163 HD
ATOM      6  H   UNL     1       6.894   6.706  -0.270  0.00  0.00    +0.159 HD
ATOM      7  H   UNL     1       7.299   7.279  -1.843  0.00  0.00    +0.159 HD
ATOM      8  H   UNL     1      10.147   5.682   0.628  0.00  0.00    +0.159 HD
ATOM      9  H   UNL     1       8.505   5.803   1.127  0.00  0.00    +0.159 HD
ENDROOT
BRANCH   1  10
ATOM     10  C   UNL     1      11.214   6.436  -1.583  0.00  0.00    +0.151 C 
BRANCH  10  11
ATOM     11  C   UNL     1      12.004   7.608  -2.096  0.00  0.00    -0.028 A 
ATOM     12  C   UNL     1      12.359   7.691  -3.450  0.00  0.00    +0.005 A 
ATOM     13  C   UNL     1      12.396   8.643  -1.233  0.00  0.00    +0.005 A 
ATOM     14  C   UNL     1      13.067   8.794  -3.932  0.00  0.00    +0.000 A 
ATOM     15  C   UNL     1      13.104   9.743  -1.718  0.00  0.00    +0.000 A 
ATOM     16  C   UNL     1      13.437   9.819  -3.068  0.00  0.00    +0.000 A 
ENDBRANCH  10  11
ENDBRANCH   1  10
TORSDOF 2
ENDMDL
