MODEL 1
REMARK VINA RESULT:    -5.567      0.000      0.000
REMARK INTER + INTRA:          -6.312
REMARK INTER:                  -6.218
REMARK INTRA:                  -0.094
REMARK UNBOUND:                -0.094
REMARK  Name = 1550473
REMARK  2 active torsions:
REMARK  status: ('A' for Active; 'I' for Inactive)
REMARK    1  A    between atoms: N_1  and  C_4
REMARK    2  A    between atoms: C_4  and  C_5
REMARK                            x       y       z     vdW  Elec       q    Type
REMARK                         _______ _______ _______ _____ _____    ______ ____
ROOT
ATOM      1  N   UNL     1       1.907   4.780  -6.453  0.00  0.00    -0.354 N 
ATOM      2  N   UNL     1       3.994   4.264  -5.591  0.00  0.00    -0.372 N 
ATOM      3  N   UNL     1       2.138   3.274  -4.673  0.00  0.00    -0.372 N 
ATOM      4  C   UNL     1       2.664   4.108  -5.576  0.00  0.00    +0.166 C 
ATOM      5  H   UNL     1       2.365   5.420  -7.092  0.00  0.00    +0.163 HD
ATOM      6  H   UNL     1       4.591   3.767  -4.944  0.00  0.00    +0.159 HD
ATOM      7  H   UNL     1       4.452   4.869  -6.261  0.00  0.00    +0.159 HD
ATOM      8  H   UNL     1       1.142   3.117  -4.605  0.00  0.00    +0.159 HD
ATOM      9  H   UNL     1       2.719   2.777  -4.009  0.00  0.00    +0.159 HD
ENDROOT
BRANCH   1  10
ATOM     10  C   UNL     1       0.456   4.641  -6.555  0.00  0.00    +0.151 C 
BRANCH  10  11
ATOM     11  C   UNL     1      -0.001   5.214  -7.869  0.00  0.00    -0.028 A 
ATOM     12  C   UNL     1      -0.421   6.549  -7.955  0.00  0.00    +0.005 A 
ATOM     13  C   UNL     1      -0.011   4.428  -9.031  0.00  0.00    +0.005 A 
ATOM     14  C   UNL     1      -0.817   7.090  -9.181  0.00  0.00    +0.000 A 
ATOM     15  C   UNL     1      -0.407   4.972 -10.253  0.00  0.00    +0.000 A 
ATOM     16  C   UNL     1      -0.808   6.304 -10.328  0.00  0.00    +0.000 A 
ENDBRANCH  10  11
ENDBRANCH   1  10
TORSDOF 2
ENDMDL
MODEL 2
REMARK VINA RESULT:    -5.455     17.821     18.682
REMARK INTER + INTRA:          -6.187
REMARK INTER:                  -6.087
REMARK INTRA:                  -0.100
REMARK UNBOUND:                -0.094
REMARK  Name = 1550473
REMARK  2 active torsions:
REMARK  status: ('A' for Active; 'I' for Inactive)
REMARK    1  A    between atoms: N_1  and  C_4
REMARK    2  A    between atoms: C_4  and  C_5
REMARK                            x       y       z     vdW  Elec       q    Type
REMARK                         _______ _______ _______ _____ _____    ______ ____
ROOT
ATOM      1  N   UNL     1      -3.682  13.840   9.469  0.00  0.00    -0.354 N 
ATOM      2  N   UNL     1      -3.383  12.946  11.584  0.00  0.00    -0.372 N 
ATOM      3  N   UNL     1      -5.408  12.672  10.541  0.00  0.00    -0.372 N 
ATOM      4  C   UNL     1      -4.162  13.158  10.517  0.00  0.00    +0.166 C 
ATOM      5  H   UNL     1      -2.740  14.208   9.524  0.00  0.00    +0.163 HD
ATOM      6  H   UNL     1      -3.716  12.432  12.389  0.00  0.00    +0.159 HD
ATOM      7  H   UNL     1      -2.425  13.275  11.618  0.00  0.00    +0.159 HD
ATOM      8  H   UNL     1      -6.049  12.803   9.770  0.00  0.00    +0.159 HD
ATOM      9  H   UNL     1      -5.764  12.165  11.342  0.00  0.00    +0.159 HD
ENDROOT
BRANCH   1  10
ATOM     10  C   UNL     1      -4.432  14.079   8.236  0.00  0.00    +0.151 C 
BRANCH  10  11
ATOM     11  C   UNL     1      -3.485  14.558   7.171  0.00  0.00    -0.028 A 
ATOM     12  C   UNL     1      -3.544  15.881   6.709  0.00  0.00    +0.005 A 
ATOM     13  C   UNL     1      -2.523  13.696   6.623  0.00  0.00    +0.005 A 
ATOM     14  C   UNL     1      -2.645  16.335   5.741  0.00  0.00    +0.000 A 
ATOM     15  C   UNL     1      -1.628  14.153   5.656  0.00  0.00    +0.000 A 
ATOM     16  C   UNL     1      -1.687  15.473   5.217  0.00  0.00    +0.000 A 
ENDBRANCH  10  11
ENDBRANCH   1  10
TORSDOF 2
ENDMDL
MODEL 3
REMARK VINA RESULT:    -5.388      1.235      2.162
REMARK INTER + INTRA:          -6.112
REMARK INTER:                  -5.982
REMARK INTRA:                  -0.129
REMARK UNBOUND:                -0.094
REMARK  Name = 1550473
REMARK  2 active torsions:
REMARK  status: ('A' for Active; 'I' for Inactive)
REMARK    1  A    between atoms: N_1  and  C_4
REMARK    2  A    between atoms: C_4  and  C_5
REMARK                            x       y       z     vdW  Elec       q    Type
REMARK                         _______ _______ _______ _____ _____    ______ ____
ROOT
ATOM      1  N   UNL     1       0.711   3.469  -6.520  0.00  0.00    -0.354 N 
ATOM      2  N   UNL     1       0.278   2.658  -4.394  0.00  0.00    -0.372 N 
ATOM      3  N   UNL     1       2.378   3.449  -4.873  0.00  0.00    -0.372 N 
ATOM      4  C   UNL     1       1.128   3.198  -5.276  0.00  0.00    +0.166 C 
ATOM      5  H   UNL     1      -0.241   3.227  -6.772  0.00  0.00    +0.163 HD
ATOM      6  H   UNL     1       0.563   2.446  -3.448  0.00  0.00    +0.159 HD
ATOM      7  H   UNL     1      -0.686   2.460  -4.635  0.00  0.00    +0.159 HD
ATOM      8  H   UNL     1       3.069   3.850  -5.492  0.00  0.00    +0.159 HD
ATOM      9  H   UNL     1       2.685   3.233  -3.933  0.00  0.00    +0.159 HD
ENDROOT
BRANCH   1  10
ATOM     10  C   UNL     1       1.541   4.106  -7.540  0.00  0.00    +0.151 C 
BRANCH  10  11
ATOM     11  C   UNL     1       0.722   5.135  -8.269  0.00  0.00    -0.028 A 
ATOM     12  C   UNL     1       0.553   5.057  -9.659  0.00  0.00    +0.005 A 
ATOM     13  C   UNL     1       0.106   6.188  -7.574  0.00  0.00    +0.005 A 
ATOM     14  C   UNL     1      -0.233   5.995 -10.332  0.00  0.00    +0.000 A 
ATOM     15  C   UNL     1      -0.677   7.123  -8.250  0.00  0.00    +0.000 A 
ATOM     16  C   UNL     1      -0.849   7.025  -9.629  0.00  0.00    +0.000 A 
ENDBRANCH  10  11
ENDBRANCH   1  10
TORSDOF 2
ENDMDL
MODEL 4
REMARK VINA RESULT:    -5.250     18.852     19.746
REMARK INTER + INTRA:          -5.958
REMARK INTER:                  -5.819
REMARK INTRA:                  -0.139
REMARK UNBOUND:                -0.094
REMARK  Name = 1550473
REMARK  2 active torsions:
REMARK  status: ('A' for Active; 'I' for Inactive)
REMARK    1  A    between atoms: N_1  and  C_4
REMARK    2  A    between atoms: C_4  and  C_5
REMARK                            x       y       z     vdW  Elec       q    Type
REMARK                         _______ _______ _______ _____ _____    ______ ____
ROOT
ATOM      1  N   UNL     1      -4.731  13.122   9.519  0.00  0.00    -0.354 N 
ATOM      2  N   UNL     1      -3.711  13.155  11.598  0.00  0.00    -0.372 N 
ATOM      3  N   UNL     1      -2.489  13.763   9.754  0.00  0.00    -0.372 N 
ATOM      4  C   UNL     1      -3.648  13.347  10.275  0.00  0.00    +0.166 C 
ATOM      5  H   UNL     1      -5.571  12.779   9.971  0.00  0.00    +0.163 HD
ATOM      6  H   UNL     1      -2.911  13.320  12.195  0.00  0.00    +0.159 HD
ATOM      7  H   UNL     1      -4.565  12.856  12.053  0.00  0.00    +0.159 HD
ATOM      8  H   UNL     1      -2.375  13.922   8.761  0.00  0.00    +0.159 HD
ATOM      9  H   UNL     1      -1.674  13.923  10.333  0.00  0.00    +0.159 HD
ENDROOT
BRANCH   1  10
ATOM     10  C   UNL     1      -4.784  13.353   8.077  0.00  0.00    +0.151 C 
BRANCH  10  11
ATOM     11  C   UNL     1      -5.987  14.197   7.758  0.00  0.00    -0.028 A 
ATOM     12  C   UNL     1      -6.745  13.949   6.604  0.00  0.00    +0.005 A 
ATOM     13  C   UNL     1      -6.376  15.243   8.608  0.00  0.00    +0.005 A 
ATOM     14  C   UNL     1      -7.880  14.713   6.323  0.00  0.00    +0.000 A 
ATOM     15  C   UNL     1      -7.509  16.005   8.323  0.00  0.00    +0.000 A 
ATOM     16  C   UNL     1      -8.262  15.738   7.182  0.00  0.00    +0.000 A 
ENDBRANCH  10  11
ENDBRANCH   1  10
TORSDOF 2
ENDMDL
MODEL 5
REMARK VINA RESULT:    -5.140     28.596     30.116
REMARK INTER + INTRA:          -5.835
REMARK INTER:                  -5.754
REMARK INTRA:                  -0.081
REMARK UNBOUND:                -0.094
REMARK  Name = 1550473
REMARK  2 active torsions:
REMARK  status: ('A' for Active; 'I' for Inactive)
REMARK    1  A    between atoms: N_1  and  C_4
REMARK    2  A    between atoms: C_4  and  C_5
REMARK                            x       y       z     vdW  Elec       q    Type
REMARK                         _______ _______ _______ _____ _____    ______ ____
ROOT
ATOM      1  N   UNL     1      19.856  -1.495  17.106  0.00  0.00    -0.354 N 
ATOM      2  N   UNL     1      19.327  -3.198  18.584  0.00  0.00    -0.372 N 
ATOM      3  N   UNL     1      19.336  -3.646  16.334  0.00  0.00    -0.372 N 
ATOM      4  C   UNL     1      19.509  -2.770  17.329  0.00  0.00    +0.166 C 
ATOM      5  H   UNL     1      19.942  -0.873  17.902  0.00  0.00    +0.163 HD
ATOM      6  H   UNL     1      19.068  -4.155  18.784  0.00  0.00    +0.159 HD
ATOM      7  H   UNL     1      19.459  -2.586  19.381  0.00  0.00    +0.159 HD
ATOM      8  H   UNL     1      19.452  -3.384  15.364  0.00  0.00    +0.159 HD
ATOM      9  H   UNL     1      19.065  -4.605  16.513  0.00  0.00    +0.159 HD
ENDROOT
BRANCH   1  10
ATOM     10  C   UNL     1      20.131  -0.943  15.781  0.00  0.00    +0.151 C 
BRANCH  10  11
ATOM     11  C   UNL     1      18.941  -0.143  15.326  0.00  0.00    -0.028 A 
ATOM     12  C   UNL     1      18.912   0.420  14.042  0.00  0.00    +0.005 A 
ATOM     13  C   UNL     1      17.838   0.050  16.171  0.00  0.00    +0.005 A 
ATOM     14  C   UNL     1      17.794   1.138  13.607  0.00  0.00    +0.000 A 
ATOM     15  C   UNL     1      16.725   0.767  15.734  0.00  0.00    +0.000 A 
ATOM     16  C   UNL     1      16.702   1.309  14.452  0.00  0.00    +0.000 A 
ENDBRANCH  10  11
ENDBRANCH   1  10
TORSDOF 2
ENDMDL
MODEL 6
REMARK VINA RESULT:    -5.112      3.702      4.587
REMARK INTER + INTRA:          -5.804
REMARK INTER:                  -5.632
REMARK INTRA:                  -0.172
REMARK UNBOUND:                -0.094
REMARK  Name = 1550473
REMARK  2 active torsions:
REMARK  status: ('A' for Active; 'I' for Inactive)
REMARK    1  A    between atoms: N_1  and  C_4
REMARK    2  A    between atoms: C_4  and  C_5
REMARK                            x       y       z     vdW  Elec       q    Type
REMARK                         _______ _______ _______ _____ _____    ______ ____
ROOT
ATOM      1  N   UNL     1       0.798   4.023 -12.030  0.00  0.00    -0.354 N 
ATOM      2  N   UNL     1       2.694   2.853 -12.665  0.00  0.00    -0.372 N 
ATOM      3  N   UNL     1       1.029   1.743 -11.540  0.00  0.00    -0.372 N 
ATOM      4  C   UNL     1       1.493   2.878 -12.073  0.00  0.00    +0.166 C 
ATOM      5  H   UNL     1       1.218   4.856 -12.426  0.00  0.00    +0.163 HD
ATOM      6  H   UNL     1       3.240   2.003 -12.715  0.00  0.00    +0.159 HD
ATOM      7  H   UNL     1       3.091   3.676 -13.099  0.00  0.00    +0.159 HD
ATOM      8  H   UNL     1       0.133   1.697 -11.074  0.00  0.00    +0.159 HD
ATOM      9  H   UNL     1       1.566   0.885 -11.571  0.00  0.00    +0.159 HD
ENDROOT
BRANCH   1  10
ATOM     10  C   UNL     1      -0.541   4.145 -11.457  0.00  0.00    +0.151 C 
BRANCH  10  11
ATOM     11  C   UNL     1      -0.462   4.955 -10.192  0.00  0.00    -0.028 A 
ATOM     12  C   UNL     1      -0.596   6.351 -10.231  0.00  0.00    +0.005 A 
ATOM     13  C   UNL     1      -0.258   4.332  -8.951  0.00  0.00    +0.005 A 
ATOM     14  C   UNL     1      -0.553   7.101  -9.053  0.00  0.00    +0.000 A 
ATOM     15  C   UNL     1      -0.214   5.085  -7.778  0.00  0.00    +0.000 A 
ATOM     16  C   UNL     1      -0.364   6.468  -7.829  0.00  0.00    +0.000 A 
ENDBRANCH  10  11
ENDBRANCH   1  10
TORSDOF 2
ENDMDL
MODEL 7
REMARK VINA RESULT:    -4.803     16.165     16.807
REMARK INTER + INTRA:          -5.459
REMARK INTER:                  -5.332
REMARK INTRA:                  -0.127
REMARK UNBOUND:                -0.094
REMARK  Name = 1550473
REMARK  2 active torsions:
REMARK  status: ('A' for Active; 'I' for Inactive)
REMARK    1  A    between atoms: N_1  and  C_4
REMARK    2  A    between atoms: C_4  and  C_5
REMARK                            x       y       z     vdW  Elec       q    Type
REMARK                         _______ _______ _______ _____ _____    ______ ____
ROOT
ATOM      1  N   UNL     1     -12.758   1.538   1.545  0.00  0.00    -0.354 N 
ATOM      2  N   UNL     1     -10.766   2.205   2.520  0.00  0.00    -0.372 N 
ATOM      3  N   UNL     1     -11.732   0.239   3.203  0.00  0.00    -0.372 N 
ATOM      4  C   UNL     1     -11.766   1.321   2.418  0.00  0.00    +0.166 C 
ATOM      5  H   UNL     1     -12.741   2.392   0.999  0.00  0.00    +0.163 HD
ATOM      6  H   UNL     1     -10.002   2.067   3.168  0.00  0.00    +0.159 HD
ATOM      7  H   UNL     1     -10.728   3.036   1.942  0.00  0.00    +0.159 HD
ATOM      8  H   UNL     1     -12.459  -0.464   3.179  0.00  0.00    +0.159 HD
ATOM      9  H   UNL     1     -10.982   0.088   3.866  0.00  0.00    +0.159 HD
ENDROOT
BRANCH   1  10
ATOM     10  C   UNL     1     -13.865   0.610   1.317  0.00  0.00    +0.151 C 
BRANCH  10  11
ATOM     11  C   UNL     1     -14.190   0.584  -0.151  0.00  0.00    -0.028 A 
ATOM     12  C   UNL     1     -15.503   0.806  -0.593  0.00  0.00    +0.005 A 
ATOM     13  C   UNL     1     -13.190   0.345  -1.105  0.00  0.00    +0.005 A 
ATOM     14  C   UNL     1     -15.800   0.812  -1.958  0.00  0.00    +0.000 A 
ATOM     15  C   UNL     1     -13.491   0.351  -2.467  0.00  0.00    +0.000 A 
ATOM     16  C   UNL     1     -14.796   0.587  -2.893  0.00  0.00    +0.000 A 
ENDBRANCH  10  11
ENDBRANCH   1  10
TORSDOF 2
ENDMDL
MODEL 8
REMARK VINA RESULT:    -4.606     14.137     15.316
REMARK INTER + INTRA:          -5.239
REMARK INTER:                  -5.064
REMARK INTRA:                  -0.175
REMARK UNBOUND:                -0.094
REMARK  Name = 1550473
REMARK  2 active torsions:
REMARK  status: ('A' for Active; 'I' for Inactive)
REMARK    1  A    between atoms: N_1  and  C_4
REMARK    2  A    between atoms: C_4  and  C_5
REMARK                            x       y       z     vdW  Elec       q    Type
REMARK                         _______ _______ _______ _____ _____    ______ ____
ROOT
ATOM      1  N   UNL     1      -5.788  -3.385   2.056  0.00  0.00    -0.354 N 
ATOM      2  N   UNL     1      -4.770  -4.620   3.730  0.00  0.00    -0.372 N 
ATOM      3  N   UNL     1      -5.626  -5.718   1.906  0.00  0.00    -0.372 N 
ATOM      4  C   UNL     1      -5.402  -4.569   2.551  0.00  0.00    +0.166 C 
ATOM      5  H   UNL     1      -5.616  -2.553   2.608  0.00  0.00    +0.163 HD
ATOM      6  H   UNL     1      -4.464  -5.498   4.127  0.00  0.00    +0.159 HD
ATOM      7  H   UNL     1      -4.558  -3.782   4.258  0.00  0.00    +0.159 HD
ATOM      8  H   UNL     1      -6.103  -5.748   1.015  0.00  0.00    +0.159 HD
ATOM      9  H   UNL     1      -5.338  -6.608   2.293  0.00  0.00    +0.159 HD
ENDROOT
BRANCH   1  10
ATOM     10  C   UNL     1      -6.435  -3.214   0.756  0.00  0.00    +0.151 C 
BRANCH  10  11
ATOM     11  C   UNL     1      -7.913  -3.030   0.964  0.00  0.00    -0.028 A 
ATOM     12  C   UNL     1      -8.834  -3.839   0.283  0.00  0.00    +0.005 A 
ATOM     13  C   UNL     1      -8.398  -2.051   1.844  0.00  0.00    +0.005 A 
ATOM     14  C   UNL     1     -10.206  -3.688   0.499  0.00  0.00    +0.000 A 
ATOM     15  C   UNL     1      -9.769  -1.902   2.056  0.00  0.00    +0.000 A 
ATOM     16  C   UNL     1     -10.672  -2.722   1.385  0.00  0.00    +0.000 A 
ENDBRANCH  10  11
ENDBRANCH   1  10
TORSDOF 2
ENDMDL
MODEL 9
REMARK VINA RESULT:    -4.563      1.599      2.449
REMARK INTER + INTRA:          -5.191
REMARK INTER:                  -5.012
REMARK INTRA:                  -0.180
REMARK UNBOUND:                -0.094
REMARK  Name = 1550473
REMARK  2 active torsions:
REMARK  status: ('A' for Active; 'I' for Inactive)
REMARK    1  A    between atoms: N_1  and  C_4
REMARK    2  A    between atoms: C_4  and  C_5
REMARK                            x       y       z     vdW  Elec       q    Type
REMARK                         _______ _______ _______ _____ _____    ______ ____
ROOT
ATOM      1  N   UNL     1       0.820   3.585  -7.635  0.00  0.00    -0.354 N 
ATOM      2  N   UNL     1       2.439   4.342  -6.161  0.00  0.00    -0.372 N 
ATOM      3  N   UNL     1       0.676   5.718  -6.675  0.00  0.00    -0.372 N 
ATOM      4  C   UNL     1       1.299   4.546  -6.834  0.00  0.00    +0.166 C 
ATOM      5  H   UNL     1       1.356   2.731  -7.736  0.00  0.00    +0.163 HD
ATOM      6  H   UNL     1       2.823   5.047  -5.547  0.00  0.00    +0.159 HD
ATOM      7  H   UNL     1       2.948   3.469  -6.229  0.00  0.00    +0.159 HD
ATOM      8  H   UNL     1      -0.185   5.936  -7.158  0.00  0.00    +0.159 HD
ATOM      9  H   UNL     1       1.051   6.441  -6.073  0.00  0.00    +0.159 HD
ENDROOT
BRANCH   1  10
ATOM     10  C   UNL     1      -0.439   3.686  -8.370  0.00  0.00    +0.151 C 
BRANCH  10  11
ATOM     11  C   UNL     1      -0.149   4.080  -9.792  0.00  0.00    -0.028 A 
ATOM     12  C   UNL     1      -0.392   5.390 -10.231  0.00  0.00    +0.005 A 
ATOM     13  C   UNL     1       0.374   3.150 -10.703  0.00  0.00    +0.005 A 
ATOM     14  C   UNL     1      -0.094   5.764 -11.544  0.00  0.00    +0.000 A 
ATOM     15  C   UNL     1       0.670   3.528 -12.013  0.00  0.00    +0.000 A 
ATOM     16  C   UNL     1       0.438   4.835 -12.432  0.00  0.00    +0.000 A 
ENDBRANCH  10  11
ENDBRANCH   1  10
TORSDOF 2
ENDMDL
