MODEL 1
REMARK VINA RESULT:    -6.709      0.000      0.000
REMARK INTER + INTRA:          -7.600
REMARK INTER:                  -7.493
REMARK INTRA:                  -0.106
REMARK UNBOUND:                -0.106
REMARK  Name = 1550473
REMARK  2 active torsions:
REMARK  status: ('A' for Active; 'I' for Inactive)
REMARK    1  A    between atoms: N_1  and  C_4
REMARK    2  A    between atoms: C_4  and  C_5
REMARK                            x       y       z     vdW  Elec       q    Type
REMARK                         _______ _______ _______ _____ _____    ______ ____
ROOT
ATOM      1  N   UNL     1     -21.329  -1.258  -4.800  0.00  0.00    -0.354 N 
ATOM      2  N   UNL     1     -20.187   0.529  -3.869  0.00  0.00    -0.372 N 
ATOM      3  N   UNL     1     -21.241  -0.959  -2.477  0.00  0.00    -0.372 N 
ATOM      4  C   UNL     1     -20.927  -0.575  -3.719  0.00  0.00    +0.166 C 
ATOM      5  H   UNL     1     -21.084  -0.898  -5.715  0.00  0.00    +0.163 HD
ATOM      6  H   UNL     1     -19.866   1.063  -3.072  0.00  0.00    +0.159 HD
ATOM      7  H   UNL     1     -19.904   0.861  -4.784  0.00  0.00    +0.159 HD
ATOM      8  H   UNL     1     -21.802  -1.781  -2.296  0.00  0.00    +0.159 HD
ATOM      9  H   UNL     1     -20.939  -0.432  -1.668  0.00  0.00    +0.159 HD
ENDROOT
BRANCH   1  10
ATOM     10  C   UNL     1     -22.094  -2.502  -4.744  0.00  0.00    +0.151 C 
BRANCH  10  11
ATOM     11  C   UNL     1     -22.780  -2.717  -6.065  0.00  0.00    -0.028 A 
ATOM     12  C   UNL     1     -22.471  -3.834  -6.854  0.00  0.00    +0.005 A 
ATOM     13  C   UNL     1     -23.745  -1.810  -6.529  0.00  0.00    +0.005 A 
ATOM     14  C   UNL     1     -23.130  -4.050  -8.067  0.00  0.00    +0.000 A 
ATOM     15  C   UNL     1     -24.400  -2.029  -7.741  0.00  0.00    +0.000 A 
ATOM     16  C   UNL     1     -24.094  -3.150  -8.508  0.00  0.00    +0.000 A 
ENDBRANCH  10  11
ENDBRANCH   1  10
TORSDOF 2
ENDMDL
MODEL 2
REMARK VINA RESULT:    -5.602      4.577      5.855
REMARK INTER + INTRA:          -6.363
REMARK INTER:                  -6.216
REMARK INTRA:                  -0.147
REMARK UNBOUND:                -0.106
REMARK  Name = 1550473
REMARK  2 active torsions:
REMARK  status: ('A' for Active; 'I' for Inactive)
REMARK    1  A    between atoms: N_1  and  C_4
REMARK    2  A    between atoms: C_4  and  C_5
REMARK                            x       y       z     vdW  Elec       q    Type
REMARK                         _______ _______ _______ _____ _____    ______ ____
ROOT
ATOM      1  N   UNL     1     -23.076  -4.794 -10.546  0.00  0.00    -0.354 N 
ATOM      2  N   UNL     1     -22.153  -4.453 -12.642  0.00  0.00    -0.372 N 
ATOM      3  N   UNL     1     -20.858  -5.400 -11.002  0.00  0.00    -0.372 N 
ATOM      4  C   UNL     1     -22.032  -4.885 -11.382  0.00  0.00    +0.166 C 
ATOM      5  H   UNL     1     -23.929  -4.366 -10.886  0.00  0.00    +0.163 HD
ATOM      6  H   UNL     1     -21.384  -4.512 -13.297  0.00  0.00    +0.159 HD
ATOM      7  H   UNL     1     -23.021  -4.068 -12.993  0.00  0.00    +0.159 HD
ATOM      8  H   UNL     1     -20.701  -5.739 -10.062  0.00  0.00    +0.159 HD
ATOM      9  H   UNL     1     -20.073  -5.457 -11.639  0.00  0.00    +0.159 HD
ENDROOT
BRANCH   1  10
ATOM     10  C   UNL     1     -23.066  -5.285  -9.169  0.00  0.00    +0.151 C 
BRANCH  10  11
ATOM     11  C   UNL     1     -23.241  -4.123  -8.231  0.00  0.00    -0.028 A 
ATOM     12  C   UNL     1     -22.470  -4.028  -7.063  0.00  0.00    +0.005 A 
ATOM     13  C   UNL     1     -24.172  -3.110  -8.508  0.00  0.00    +0.005 A 
ATOM     14  C   UNL     1     -22.612  -2.933  -6.207  0.00  0.00    +0.000 A 
ATOM     15  C   UNL     1     -24.310  -2.019  -7.651  0.00  0.00    +0.000 A 
ATOM     16  C   UNL     1     -23.528  -1.929  -6.502  0.00  0.00    +0.000 A 
ENDBRANCH  10  11
ENDBRANCH   1  10
TORSDOF 2
ENDMDL
MODEL 3
REMARK VINA RESULT:    -5.588      4.679      6.053
REMARK INTER + INTRA:          -6.348
REMARK INTER:                  -6.174
REMARK INTRA:                  -0.174
REMARK UNBOUND:                -0.106
REMARK  Name = 1550473
REMARK  2 active torsions:
REMARK  status: ('A' for Active; 'I' for Inactive)
REMARK    1  A    between atoms: N_1  and  C_4
REMARK    2  A    between atoms: C_4  and  C_5
REMARK                            x       y       z     vdW  Elec       q    Type
REMARK                         _______ _______ _______ _____ _____    ______ ____
ROOT
ATOM      1  N   UNL     1     -23.471  -4.649 -10.694  0.00  0.00    -0.354 N 
ATOM      2  N   UNL     1     -22.229  -4.411 -12.635  0.00  0.00    -0.372 N 
ATOM      3  N   UNL     1     -21.376  -5.675 -10.920  0.00  0.00    -0.372 N 
ATOM      4  C   UNL     1     -22.365  -4.915 -11.402  0.00  0.00    +0.166 C 
ATOM      5  H   UNL     1     -24.171  -4.041 -11.105  0.00  0.00    +0.163 HD
ATOM      6  H   UNL     1     -21.407  -4.597 -13.193  0.00  0.00    +0.159 HD
ATOM      7  H   UNL     1     -22.950  -3.842 -13.060  0.00  0.00    +0.159 HD
ATOM      8  H   UNL     1     -21.415  -6.080  -9.994  0.00  0.00    +0.159 HD
ATOM      9  H   UNL     1     -20.541  -5.863 -11.459  0.00  0.00    +0.159 HD
ENDROOT
BRANCH   1  10
ATOM     10  C   UNL     1     -23.741  -5.193  -9.365  0.00  0.00    +0.151 C 
BRANCH  10  11
ATOM     11  C   UNL     1     -23.504  -4.120  -8.338  0.00  0.00    -0.028 A 
ATOM     12  C   UNL     1     -24.223  -2.917  -8.386  0.00  0.00    +0.005 A 
ATOM     13  C   UNL     1     -22.565  -4.303  -7.311  0.00  0.00    +0.005 A 
ATOM     14  C   UNL     1     -24.025  -1.932  -7.415  0.00  0.00    +0.000 A 
ATOM     15  C   UNL     1     -22.369  -3.317  -6.344  0.00  0.00    +0.000 A 
ATOM     16  C   UNL     1     -23.101  -2.133  -6.395  0.00  0.00    +0.000 A 
ENDBRANCH  10  11
ENDBRANCH   1  10
TORSDOF 2
ENDMDL
MODEL 4
REMARK VINA RESULT:    -5.528     32.893     33.384
REMARK INTER + INTRA:          -6.281
REMARK INTER:                  -6.170
REMARK INTRA:                  -0.110
REMARK UNBOUND:                -0.106
REMARK  Name = 1550473
REMARK  2 active torsions:
REMARK  status: ('A' for Active; 'I' for Inactive)
REMARK    1  A    between atoms: N_1  and  C_4
REMARK    2  A    between atoms: C_4  and  C_5
REMARK                            x       y       z     vdW  Elec       q    Type
REMARK                         _______ _______ _______ _____ _____    ______ ____
ROOT
ATOM      1  N   UNL     1       7.133   1.223  10.838  0.00  0.00    -0.354 N 
ATOM      2  N   UNL     1       8.578   2.313   9.394  0.00  0.00    -0.372 N 
ATOM      3  N   UNL     1       6.664   1.373   8.547  0.00  0.00    -0.372 N 
ATOM      4  C   UNL     1       7.447   1.628   9.601  0.00  0.00    +0.166 C 
ATOM      5  H   UNL     1       7.783   1.422  11.590  0.00  0.00    +0.163 HD
ATOM      6  H   UNL     1       8.840   2.635   8.472  0.00  0.00    +0.159 HD
ATOM      7  H   UNL     1       9.204   2.550  10.154  0.00  0.00    +0.159 HD
ATOM      8  H   UNL     1       5.800   0.856   8.635  0.00  0.00    +0.159 HD
ATOM      9  H   UNL     1       6.915   1.677   7.614  0.00  0.00    +0.159 HD
ENDROOT
BRANCH   1  10
ATOM     10  C   UNL     1       5.898   0.518  11.179  0.00  0.00    +0.151 C 
BRANCH  10  11
ATOM     11  C   UNL     1       5.071   1.386  12.087  0.00  0.00    -0.028 A 
ATOM     12  C   UNL     1       4.928   2.756  11.825  0.00  0.00    +0.005 A 
ATOM     13  C   UNL     1       4.423   0.842  13.207  0.00  0.00    +0.005 A 
ATOM     14  C   UNL     1       4.135   3.557  12.651  0.00  0.00    +0.000 A 
ATOM     15  C   UNL     1       3.634   1.645  14.029  0.00  0.00    +0.000 A 
ATOM     16  C   UNL     1       3.488   3.002  13.750  0.00  0.00    +0.000 A 
ENDBRANCH  10  11
ENDBRANCH   1  10
TORSDOF 2
ENDMDL
MODEL 5
REMARK VINA RESULT:    -5.506     32.694     33.378
REMARK INTER + INTRA:          -6.256
REMARK INTER:                  -6.098
REMARK INTRA:                  -0.158
REMARK UNBOUND:                -0.106
REMARK  Name = 1550473
REMARK  2 active torsions:
REMARK  status: ('A' for Active; 'I' for Inactive)
REMARK    1  A    between atoms: N_1  and  C_4
REMARK    2  A    between atoms: C_4  and  C_5
REMARK                            x       y       z     vdW  Elec       q    Type
REMARK                         _______ _______ _______ _____ _____    ______ ____
ROOT
ATOM      1  N   UNL     1       6.571   2.359   9.612  0.00  0.00    -0.354 N 
ATOM      2  N   UNL     1       6.943   0.882   7.867  0.00  0.00    -0.372 N 
ATOM      3  N   UNL     1       8.268   0.747   9.735  0.00  0.00    -0.372 N 
ATOM      4  C   UNL     1       7.260   1.338   9.084  0.00  0.00    +0.166 C 
ATOM      5  H   UNL     1       5.838   2.783   9.055  0.00  0.00    +0.163 HD
ATOM      6  H   UNL     1       7.443   0.111   7.444  0.00  0.00    +0.159 HD
ATOM      7  H   UNL     1       6.180   1.278   7.332  0.00  0.00    +0.159 HD
ATOM      8  H   UNL     1       8.561   1.048  10.655  0.00  0.00    +0.159 HD
ATOM      9  H   UNL     1       8.788  -0.018   9.324  0.00  0.00    +0.159 HD
ENDROOT
BRANCH   1  10
ATOM     10  C   UNL     1       6.802   2.895  10.952  0.00  0.00    +0.151 C 
BRANCH  10  11
ATOM     11  C   UNL     1       5.667   2.483  11.848  0.00  0.00    -0.028 A 
ATOM     12  C   UNL     1       5.591   1.173  12.344  0.00  0.00    +0.005 A 
ATOM     13  C   UNL     1       4.667   3.399  12.210  0.00  0.00    +0.005 A 
ATOM     14  C   UNL     1       4.554   0.798  13.201  0.00  0.00    +0.000 A 
ATOM     15  C   UNL     1       3.632   3.020  13.065  0.00  0.00    +0.000 A 
ATOM     16  C   UNL     1       3.578   1.720  13.562  0.00  0.00    +0.000 A 
ENDBRANCH  10  11
ENDBRANCH   1  10
TORSDOF 2
ENDMDL
MODEL 6
REMARK VINA RESULT:    -5.421     31.646     32.984
REMARK INTER + INTRA:          -6.161
REMARK INTER:                  -6.003
REMARK INTRA:                  -0.158
REMARK UNBOUND:                -0.106
REMARK  Name = 1550473
REMARK  2 active torsions:
REMARK  status: ('A' for Active; 'I' for Inactive)
REMARK    1  A    between atoms: N_1  and  C_4
REMARK    2  A    between atoms: C_4  and  C_5
REMARK                            x       y       z     vdW  Elec       q    Type
REMARK                         _______ _______ _______ _____ _____    ______ ____
ROOT
ATOM      1  N   UNL     1       6.272 -12.156   2.479  0.00  0.00    -0.354 N 
ATOM      2  N   UNL     1       4.676 -10.991   1.270  0.00  0.00    -0.372 N 
ATOM      3  N   UNL     1       6.887 -10.431   1.016  0.00  0.00    -0.372 N 
ATOM      4  C   UNL     1       5.958 -11.199   1.596  0.00  0.00    +0.166 C 
ATOM      5  H   UNL     1       5.519 -12.683   2.905  0.00  0.00    +0.163 HD
ATOM      6  H   UNL     1       4.409 -10.278   0.605  0.00  0.00    +0.159 HD
ATOM      7  H   UNL     1       3.929 -11.550   1.664  0.00  0.00    +0.159 HD
ATOM      8  H   UNL     1       7.871 -10.534   1.223  0.00  0.00    +0.159 HD
ATOM      9  H   UNL     1       6.638  -9.705   0.356  0.00  0.00    +0.159 HD
ENDROOT
BRANCH   1  10
ATOM     10  C   UNL     1       7.641 -12.499   2.861  0.00  0.00    +0.151 C 
BRANCH  10  11
ATOM     11  C   UNL     1       7.981 -13.853   2.303  0.00  0.00    -0.028 A 
ATOM     12  C   UNL     1       8.236 -14.015   0.933  0.00  0.00    +0.005 A 
ATOM     13  C   UNL     1       8.058 -14.977   3.139  0.00  0.00    +0.005 A 
ATOM     14  C   UNL     1       8.582 -15.267   0.419  0.00  0.00    +0.000 A 
ATOM     15  C   UNL     1       8.403 -16.226   2.622  0.00  0.00    +0.000 A 
ATOM     16  C   UNL     1       8.667 -16.370   1.262  0.00  0.00    +0.000 A 
ENDBRANCH  10  11
ENDBRANCH   1  10
TORSDOF 2
ENDMDL
MODEL 7
REMARK VINA RESULT:    -5.380      1.399      2.357
REMARK INTER + INTRA:          -6.115
REMARK INTER:                  -5.992
REMARK INTRA:                  -0.124
REMARK UNBOUND:                -0.106
REMARK  Name = 1550473
REMARK  2 active torsions:
REMARK  status: ('A' for Active; 'I' for Inactive)
REMARK    1  A    between atoms: N_1  and  C_4
REMARK    2  A    between atoms: C_4  and  C_5
REMARK                            x       y       z     vdW  Elec       q    Type
REMARK                         _______ _______ _______ _____ _____    ______ ____
ROOT
ATOM      1  N   UNL     1     -21.580  -2.005  -5.900  0.00  0.00    -0.354 N 
ATOM      2  N   UNL     1     -20.325  -2.001  -3.953  0.00  0.00    -0.372 N 
ATOM      3  N   UNL     1     -22.582  -1.611  -3.819  0.00  0.00    -0.372 N 
ATOM      4  C   UNL     1     -21.506  -1.872  -4.569  0.00  0.00    +0.166 C 
ATOM      5  H   UNL     1     -20.723  -2.173  -6.415  0.00  0.00    +0.163 HD
ATOM      6  H   UNL     1     -20.239  -1.909  -2.950  0.00  0.00    +0.159 HD
ATOM      7  H   UNL     1     -19.478  -2.214  -4.465  0.00  0.00    +0.159 HD
ATOM      8  H   UNL     1     -23.502  -1.495  -4.223  0.00  0.00    +0.159 HD
ATOM      9  H   UNL     1     -22.514  -1.503  -2.814  0.00  0.00    +0.159 HD
ENDROOT
BRANCH   1  10
ATOM     10  C   UNL     1     -22.826  -1.936  -6.661  0.00  0.00    +0.151 C 
BRANCH  10  11
ATOM     11  C   UNL     1     -23.031  -3.237  -7.386  0.00  0.00    -0.028 A 
ATOM     12  C   UNL     1     -23.971  -3.334  -8.423  0.00  0.00    +0.005 A 
ATOM     13  C   UNL     1     -22.286  -4.376  -7.045  0.00  0.00    +0.005 A 
ATOM     14  C   UNL     1     -24.141  -4.534  -9.117  0.00  0.00    +0.000 A 
ATOM     15  C   UNL     1     -22.459  -5.573  -7.740  0.00  0.00    +0.000 A 
ATOM     16  C   UNL     1     -23.385  -5.651  -8.777  0.00  0.00    +0.000 A 
ENDBRANCH  10  11
ENDBRANCH   1  10
TORSDOF 2
ENDMDL
MODEL 8
REMARK VINA RESULT:    -5.362     35.268     37.181
REMARK INTER + INTRA:          -6.096
REMARK INTER:                  -5.947
REMARK INTRA:                  -0.149
REMARK UNBOUND:                -0.106
REMARK  Name = 1550473
REMARK  2 active torsions:
REMARK  status: ('A' for Active; 'I' for Inactive)
REMARK    1  A    between atoms: N_1  and  C_4
REMARK    2  A    between atoms: C_4  and  C_5
REMARK                            x       y       z     vdW  Elec       q    Type
REMARK                         _______ _______ _______ _____ _____    ______ ____
ROOT
ATOM      1  N   UNL     1       9.304  -9.274  15.378  0.00  0.00    -0.354 N 
ATOM      2  N   UNL     1       9.736  -9.972  17.543  0.00  0.00    -0.372 N 
ATOM      3  N   UNL     1      10.086 -11.439  15.814  0.00  0.00    -0.372 N 
ATOM      4  C   UNL     1       9.706 -10.226  16.229  0.00  0.00    +0.166 C 
ATOM      5  H   UNL     1       8.999  -8.385  15.758  0.00  0.00    +0.163 HD
ATOM      6  H   UNL     1      10.038 -10.670  18.209  0.00  0.00    +0.159 HD
ATOM      7  H   UNL     1       9.475  -9.068  17.917  0.00  0.00    +0.159 HD
ATOM      8  H   UNL     1      10.081 -11.696  14.836  0.00  0.00    +0.159 HD
ATOM      9  H   UNL     1      10.381 -12.155  16.466  0.00  0.00    +0.159 HD
ENDROOT
BRANCH   1  10
ATOM     10  C   UNL     1       9.286  -9.430  13.924  0.00  0.00    +0.151 C 
BRANCH  10  11
ATOM     11  C   UNL     1       7.889  -9.190  13.421  0.00  0.00    -0.028 A 
ATOM     12  C   UNL     1       6.808  -9.911  13.950  0.00  0.00    +0.005 A 
ATOM     13  C   UNL     1       7.639  -8.238  12.421  0.00  0.00    +0.005 A 
ATOM     14  C   UNL     1       5.507  -9.666  13.504  0.00  0.00    +0.000 A 
ATOM     15  C   UNL     1       6.339  -7.998  11.978  0.00  0.00    +0.000 A 
ATOM     16  C   UNL     1       5.273  -8.710  12.522  0.00  0.00    +0.000 A 
ENDBRANCH  10  11
ENDBRANCH   1  10
TORSDOF 2
ENDMDL
MODEL 9
REMARK VINA RESULT:    -5.297     30.536     32.082
REMARK INTER + INTRA:          -6.023
REMARK INTER:                  -5.916
REMARK INTRA:                  -0.107
REMARK UNBOUND:                -0.106
REMARK  Name = 1550473
REMARK  2 active torsions:
REMARK  status: ('A' for Active; 'I' for Inactive)
REMARK    1  A    between atoms: N_1  and  C_4
REMARK    2  A    between atoms: C_4  and  C_5
REMARK                            x       y       z     vdW  Elec       q    Type
REMARK                         _______ _______ _______ _____ _____    ______ ____
ROOT
ATOM      1  N   UNL     1       4.650  15.743   2.812  0.00  0.00    -0.354 N 
ATOM      2  N   UNL     1       5.057  17.752   3.890  0.00  0.00    -0.372 N 
ATOM      3  N   UNL     1       3.898  16.112   5.001  0.00  0.00    -0.372 N 
ATOM      4  C   UNL     1       4.530  16.521   3.896  0.00  0.00    +0.166 C 
ATOM      5  H   UNL     1       5.115  16.123   1.996  0.00  0.00    +0.163 HD
ATOM      6  H   UNL     1       4.986  18.361   4.695  0.00  0.00    +0.159 HD
ATOM      7  H   UNL     1       5.561  18.112   3.089  0.00  0.00    +0.159 HD
ATOM      8  H   UNL     1       3.473  15.197   5.067  0.00  0.00    +0.159 HD
ATOM      9  H   UNL     1       3.806  16.711   5.812  0.00  0.00    +0.159 HD
ENDROOT
BRANCH   1  10
ATOM     10  C   UNL     1       4.159  14.368   2.735  0.00  0.00    +0.151 C 
BRANCH  10  11
ATOM     11  C   UNL     1       3.695  14.090   1.332  0.00  0.00    -0.028 A 
ATOM     12  C   UNL     1       2.388  13.645   1.089  0.00  0.00    +0.005 A 
ATOM     13  C   UNL     1       4.557  14.276   0.239  0.00  0.00    +0.005 A 
ATOM     14  C   UNL     1       1.947  13.415  -0.216  0.00  0.00    +0.000 A 
ATOM     15  C   UNL     1       4.113  14.045  -1.063  0.00  0.00    +0.000 A 
ATOM     16  C   UNL     1       2.807  13.617  -1.290  0.00  0.00    +0.000 A 
ENDBRANCH  10  11
ENDBRANCH   1  10
TORSDOF 2
ENDMDL
