MODEL 1
REMARK VINA RESULT:    -5.264      0.000      0.000
REMARK INTER + INTRA:          -6.015
REMARK INTER:                  -5.879
REMARK INTRA:                  -0.135
REMARK UNBOUND:                -0.135
REMARK  Name = 1550473
REMARK  2 active torsions:
REMARK  status: ('A' for Active; 'I' for Inactive)
REMARK    1  A    between atoms: N_1  and  C_4
REMARK    2  A    between atoms: C_4  and  C_5
REMARK                            x       y       z     vdW  Elec       q    Type
REMARK                         _______ _______ _______ _____ _____    ______ ____
ROOT
ATOM      1  N   UNL     1      11.372   8.541   5.275  0.00  0.00    -0.354 N 
ATOM      2  N   UNL     1      10.135  10.454   4.858  0.00  0.00    -0.372 N 
ATOM      3  N   UNL     1      11.337  10.314   6.808  0.00  0.00    -0.372 N 
ATOM      4  C   UNL     1      10.957   9.758   5.652  0.00  0.00    +0.166 C 
ATOM      5  H   UNL     1      11.024   8.163   4.402  0.00  0.00    +0.163 HD
ATOM      6  H   UNL     1       9.808  11.376   5.115  0.00  0.00    +0.159 HD
ATOM      7  H   UNL     1       9.825  10.093   3.964  0.00  0.00    +0.159 HD
ATOM      8  H   UNL     1      11.952   9.838   7.454  0.00  0.00    +0.159 HD
ATOM      9  H   UNL     1      11.011  11.231   7.087  0.00  0.00    +0.159 HD
ENDROOT
BRANCH   1  10
ATOM     10  C   UNL     1      12.310   7.724   6.042  0.00  0.00    +0.151 C 
BRANCH  10  11
ATOM     11  C   UNL     1      13.462   7.336   5.156  0.00  0.00    -0.028 A 
ATOM     12  C   UNL     1      13.246   7.014   3.808  0.00  0.00    +0.005 A 
ATOM     13  C   UNL     1      14.772   7.295   5.657  0.00  0.00    +0.005 A 
ATOM     14  C   UNL     1      14.320   6.683   2.977  0.00  0.00    +0.000 A 
ATOM     15  C   UNL     1      15.841   6.964   4.824  0.00  0.00    +0.000 A 
ATOM     16  C   UNL     1      15.615   6.660   3.484  0.00  0.00    +0.000 A 
ENDBRANCH  10  11
ENDBRANCH   1  10
TORSDOF 2
ENDMDL
MODEL 2
REMARK VINA RESULT:    -4.912      1.781      2.545
REMARK INTER + INTRA:          -5.622
REMARK INTER:                  -5.485
REMARK INTRA:                  -0.137
REMARK UNBOUND:                -0.135
REMARK  Name = 1550473
REMARK  2 active torsions:
REMARK  status: ('A' for Active; 'I' for Inactive)
REMARK    1  A    between atoms: N_1  and  C_4
REMARK    2  A    between atoms: C_4  and  C_5
REMARK                            x       y       z     vdW  Elec       q    Type
REMARK                         _______ _______ _______ _____ _____    ______ ____
ROOT
ATOM      1  N   UNL     1      12.922  10.896   5.747  0.00  0.00    -0.354 N 
ATOM      2  N   UNL     1      12.622  11.222   8.020  0.00  0.00    -0.372 N 
ATOM      3  N   UNL     1      10.775  11.083   6.666  0.00  0.00    -0.372 N 
ATOM      4  C   UNL     1      12.105  11.066   6.795  0.00  0.00    +0.166 C 
ATOM      5  H   UNL     1      13.923  10.923   5.907  0.00  0.00    +0.163 HD
ATOM      6  H   UNL     1      12.031  11.348   8.830  0.00  0.00    +0.159 HD
ATOM      7  H   UNL     1      13.621  11.202   8.183  0.00  0.00    +0.159 HD
ATOM      8  H   UNL     1      10.322  10.976   5.768  0.00  0.00    +0.159 HD
ATOM      9  H   UNL     1      10.166  11.220   7.463  0.00  0.00    +0.159 HD
ENDROOT
BRANCH   1  10
ATOM     10  C   UNL     1      12.460  10.664   4.379  0.00  0.00    +0.151 C 
BRANCH  10  11
ATOM     11  C   UNL     1      12.975   9.332   3.907  0.00  0.00    -0.028 A 
ATOM     12  C   UNL     1      13.644   9.222   2.679  0.00  0.00    +0.005 A 
ATOM     13  C   UNL     1      12.802   8.177   4.685  0.00  0.00    +0.005 A 
ATOM     14  C   UNL     1      14.149   7.991   2.254  0.00  0.00    +0.000 A 
ATOM     15  C   UNL     1      13.307   6.950   4.256  0.00  0.00    +0.000 A 
ATOM     16  C   UNL     1      13.983   6.858   3.042  0.00  0.00    +0.000 A 
ENDBRANCH  10  11
ENDBRANCH   1  10
TORSDOF 2
ENDMDL
MODEL 3
REMARK VINA RESULT:    -4.839     15.180     16.337
REMARK INTER + INTRA:          -5.541
REMARK INTER:                  -5.391
REMARK INTRA:                  -0.150
REMARK UNBOUND:                -0.135
REMARK  Name = 1550473
REMARK  2 active torsions:
REMARK  status: ('A' for Active; 'I' for Inactive)
REMARK    1  A    between atoms: N_1  and  C_4
REMARK    2  A    between atoms: C_4  and  C_5
REMARK                            x       y       z     vdW  Elec       q    Type
REMARK                         _______ _______ _______ _____ _____    ______ ____
ROOT
ATOM      1  N   UNL     1       7.545  19.501  12.278  0.00  0.00    -0.354 N 
ATOM      2  N   UNL     1       8.895  20.956  11.085  0.00  0.00    -0.372 N 
ATOM      3  N   UNL     1       8.661  21.262  13.347  0.00  0.00    -0.372 N 
ATOM      4  C   UNL     1       8.358  20.565  12.247  0.00  0.00    +0.166 C 
ATOM      5  H   UNL     1       7.331  19.033  11.405  0.00  0.00    +0.163 HD
ATOM      6  H   UNL     1       9.515  21.753  11.032  0.00  0.00    +0.159 HD
ATOM      7  H   UNL     1       8.716  20.459  10.221  0.00  0.00    +0.159 HD
ATOM      8  H   UNL     1       8.284  21.022  14.254  0.00  0.00    +0.159 HD
ATOM      9  H   UNL     1       9.270  22.070  13.312  0.00  0.00    +0.159 HD
ENDROOT
BRANCH   1  10
ATOM     10  C   UNL     1       6.951  18.960  13.500  0.00  0.00    +0.151 C 
BRANCH  10  11
ATOM     11  C   UNL     1       5.454  19.045  13.397  0.00  0.00    -0.028 A 
ATOM     12  C   UNL     1       4.732  18.066  12.698  0.00  0.00    +0.005 A 
ATOM     13  C   UNL     1       4.750  20.097  14.002  0.00  0.00    +0.005 A 
ATOM     14  C   UNL     1       3.338  18.128  12.628  0.00  0.00    +0.000 A 
ATOM     15  C   UNL     1       3.358  20.156  13.929  0.00  0.00    +0.000 A 
ATOM     16  C   UNL     1       2.652  19.170  13.244  0.00  0.00    +0.000 A 
ENDBRANCH  10  11
ENDBRANCH   1  10
TORSDOF 2
ENDMDL
MODEL 4
REMARK VINA RESULT:    -4.805     19.528     20.787
REMARK INTER + INTRA:          -5.502
REMARK INTER:                  -5.367
REMARK INTRA:                  -0.135
REMARK UNBOUND:                -0.135
REMARK  Name = 1550473
REMARK  2 active torsions:
REMARK  status: ('A' for Active; 'I' for Inactive)
REMARK    1  A    between atoms: N_1  and  C_4
REMARK    2  A    between atoms: C_4  and  C_5
REMARK                            x       y       z     vdW  Elec       q    Type
REMARK                         _______ _______ _______ _____ _____    ______ ____
ROOT
ATOM      1  N   UNL     1      -5.935  10.659  14.975  0.00  0.00    -0.354 N 
ATOM      2  N   UNL     1      -5.369  12.854  15.451  0.00  0.00    -0.372 N 
ATOM      3  N   UNL     1      -6.019  11.479  17.169  0.00  0.00    -0.372 N 
ATOM      4  C   UNL     1      -5.779  11.649  15.865  0.00  0.00    +0.166 C 
ATOM      5  H   UNL     1      -5.766  10.861  13.996  0.00  0.00    +0.163 HD
ATOM      6  H   UNL     1      -5.239  13.619  16.100  0.00  0.00    +0.159 HD
ATOM      7  H   UNL     1      -5.156  13.040  14.479  0.00  0.00    +0.159 HD
ATOM      8  H   UNL     1      -6.337  10.595  17.544  0.00  0.00    +0.159 HD
ATOM      9  H   UNL     1      -5.906  12.236  17.832  0.00  0.00    +0.159 HD
ENDROOT
BRANCH   1  10
ATOM     10  C   UNL     1      -6.326   9.296  15.329  0.00  0.00    +0.151 C 
BRANCH  10  11
ATOM     11  C   UNL     1      -5.268   8.341  14.848  0.00  0.00    -0.028 A 
ATOM     12  C   UNL     1      -4.364   7.766  15.752  0.00  0.00    +0.005 A 
ATOM     13  C   UNL     1      -5.169   8.004  13.489  0.00  0.00    +0.005 A 
ATOM     14  C   UNL     1      -3.400   6.856  15.310  0.00  0.00    +0.000 A 
ATOM     15  C   UNL     1      -4.205   7.096  13.052  0.00  0.00    +0.000 A 
ATOM     16  C   UNL     1      -3.322   6.520  13.963  0.00  0.00    +0.000 A 
ENDBRANCH  10  11
ENDBRANCH   1  10
TORSDOF 2
ENDMDL
MODEL 5
REMARK VINA RESULT:    -4.780     18.923     21.105
REMARK INTER + INTRA:          -5.474
REMARK INTER:                  -5.336
REMARK INTRA:                  -0.138
REMARK UNBOUND:                -0.135
REMARK  Name = 1550473
REMARK  2 active torsions:
REMARK  status: ('A' for Active; 'I' for Inactive)
REMARK    1  A    between atoms: N_1  and  C_4
REMARK    2  A    between atoms: C_4  and  C_5
REMARK                            x       y       z     vdW  Elec       q    Type
REMARK                         _______ _______ _______ _____ _____    ______ ____
ROOT
ATOM      1  N   UNL     1      -3.843   7.269  13.438  0.00  0.00    -0.354 N 
ATOM      2  N   UNL     1      -4.083   7.352  11.136  0.00  0.00    -0.372 N 
ATOM      3  N   UNL     1      -5.183   5.714  12.308  0.00  0.00    -0.372 N 
ATOM      4  C   UNL     1      -4.369   6.776  12.310  0.00  0.00    +0.166 C 
ATOM      5  H   UNL     1      -3.209   8.057  13.370  0.00  0.00    +0.163 HD
ATOM      6  H   UNL     1      -4.469   7.005  10.269  0.00  0.00    +0.159 HD
ATOM      7  H   UNL     1      -3.486   8.168  11.075  0.00  0.00    +0.159 HD
ATOM      8  H   UNL     1      -5.433   5.230  13.160  0.00  0.00    +0.159 HD
ATOM      9  H   UNL     1      -5.569   5.344  11.449  0.00  0.00    +0.159 HD
ENDROOT
BRANCH   1  10
ATOM     10  C   UNL     1      -4.134   6.748  14.773  0.00  0.00    +0.151 C 
BRANCH  10  11
ATOM     11  C   UNL     1      -5.013   7.726  15.502  0.00  0.00    -0.028 A 
ATOM     12  C   UNL     1      -5.703   7.338  16.659  0.00  0.00    +0.005 A 
ATOM     13  C   UNL     1      -5.155   9.045  15.043  0.00  0.00    +0.005 A 
ATOM     14  C   UNL     1      -6.496   8.255  17.353  0.00  0.00    +0.000 A 
ATOM     15  C   UNL     1      -5.948   9.957  15.738  0.00  0.00    +0.000 A 
ATOM     16  C   UNL     1      -6.617   9.563  16.895  0.00  0.00    +0.000 A 
ENDBRANCH  10  11
ENDBRANCH   1  10
TORSDOF 2
ENDMDL
MODEL 6
REMARK VINA RESULT:    -4.767     19.150     20.633
REMARK INTER + INTRA:          -5.460
REMARK INTER:                  -5.285
REMARK INTRA:                  -0.175
REMARK UNBOUND:                -0.135
REMARK  Name = 1550473
REMARK  2 active torsions:
REMARK  status: ('A' for Active; 'I' for Inactive)
REMARK    1  A    between atoms: N_1  and  C_4
REMARK    2  A    between atoms: C_4  and  C_5
REMARK                            x       y       z     vdW  Elec       q    Type
REMARK                         _______ _______ _______ _____ _____    ______ ____
ROOT
ATOM      1  N   UNL     1      -4.513   7.697  14.144  0.00  0.00    -0.354 N 
ATOM      2  N   UNL     1      -3.640   7.476  12.011  0.00  0.00    -0.372 N 
ATOM      3  N   UNL     1      -5.153   5.920  12.757  0.00  0.00    -0.372 N 
ATOM      4  C   UNL     1      -4.443   7.030  12.985  0.00  0.00    +0.166 C 
ATOM      5  H   UNL     1      -3.927   8.515  14.266  0.00  0.00    +0.163 HD
ATOM      6  H   UNL     1      -3.569   6.995  11.124  0.00  0.00    +0.159 HD
ATOM      7  H   UNL     1      -3.090   8.319  12.118  0.00  0.00    +0.159 HD
ATOM      8  H   UNL     1      -5.773   5.529  13.454  0.00  0.00    +0.159 HD
ATOM      9  H   UNL     1      -5.086   5.418  11.880  0.00  0.00    +0.159 HD
ENDROOT
BRANCH   1  10
ATOM     10  C   UNL     1      -5.396   7.326  15.249  0.00  0.00    +0.151 C 
BRANCH  10  11
ATOM     11  C   UNL     1      -4.587   6.644  16.317  0.00  0.00    -0.028 A 
ATOM     12  C   UNL     1      -3.494   7.295  16.907  0.00  0.00    +0.005 A 
ATOM     13  C   UNL     1      -4.912   5.348  16.747  0.00  0.00    +0.005 A 
ATOM     14  C   UNL     1      -2.760   6.673  17.920  0.00  0.00    +0.000 A 
ATOM     15  C   UNL     1      -4.176   4.730  17.758  0.00  0.00    +0.000 A 
ATOM     16  C   UNL     1      -3.102   5.394  18.346  0.00  0.00    +0.000 A 
ENDBRANCH  10  11
ENDBRANCH   1  10
TORSDOF 2
ENDMDL
MODEL 7
REMARK VINA RESULT:    -4.671      1.372      2.052
REMARK INTER + INTRA:          -5.353
REMARK INTER:                  -5.232
REMARK INTRA:                  -0.120
REMARK UNBOUND:                -0.135
REMARK  Name = 1550473
REMARK  2 active torsions:
REMARK  status: ('A' for Active; 'I' for Inactive)
REMARK    1  A    between atoms: N_1  and  C_4
REMARK    2  A    between atoms: C_4  and  C_5
REMARK                            x       y       z     vdW  Elec       q    Type
REMARK                         _______ _______ _______ _____ _____    ______ ____
ROOT
ATOM      1  N   UNL     1      12.291   9.901   5.812  0.00  0.00    -0.354 N 
ATOM      2  N   UNL     1      10.769  11.346   6.791  0.00  0.00    -0.372 N 
ATOM      3  N   UNL     1      10.189  10.276   4.846  0.00  0.00    -0.372 N 
ATOM      4  C   UNL     1      11.092  10.498   5.807  0.00  0.00    +0.166 C 
ATOM      5  H   UNL     1      12.942  10.134   6.553  0.00  0.00    +0.163 HD
ATOM      6  H   UNL     1       9.870  11.809   6.816  0.00  0.00    +0.159 HD
ATOM      7  H   UNL     1      11.404  11.542   7.555  0.00  0.00    +0.159 HD
ATOM      8  H   UNL     1      10.373   9.652   4.072  0.00  0.00    +0.159 HD
ATOM      9  H   UNL     1       9.289  10.739   4.847  0.00  0.00    +0.159 HD
ENDROOT
BRANCH   1  10
ATOM     10  C   UNL     1      12.720   8.920   4.817  0.00  0.00    +0.151 C 
BRANCH  10  11
ATOM     11  C   UNL     1      13.864   8.120   5.376  0.00  0.00    -0.028 A 
ATOM     12  C   UNL     1      14.915   7.704   4.546  0.00  0.00    +0.005 A 
ATOM     13  C   UNL     1      13.907   7.781   6.737  0.00  0.00    +0.005 A 
ATOM     14  C   UNL     1      15.993   6.987   5.071  0.00  0.00    +0.000 A 
ATOM     15  C   UNL     1      14.984   7.065   7.257  0.00  0.00    +0.000 A 
ATOM     16  C   UNL     1      16.028   6.670   6.424  0.00  0.00    +0.000 A 
ENDBRANCH  10  11
ENDBRANCH   1  10
TORSDOF 2
ENDMDL
MODEL 8
REMARK VINA RESULT:    -4.526     48.075     48.832
REMARK INTER + INTRA:          -5.190
REMARK INTER:                  -5.065
REMARK INTRA:                  -0.125
REMARK UNBOUND:                -0.135
REMARK  Name = 1550473
REMARK  2 active torsions:
REMARK  status: ('A' for Active; 'I' for Inactive)
REMARK    1  A    between atoms: N_1  and  C_4
REMARK    2  A    between atoms: C_4  and  C_5
REMARK                            x       y       z     vdW  Elec       q    Type
REMARK                         _______ _______ _______ _____ _____    ______ ____
ROOT
ATOM      1  N   UNL     1     -10.571 -28.518 -17.440  0.00  0.00    -0.354 N 
ATOM      2  N   UNL     1      -9.314 -30.440 -17.145  0.00  0.00    -0.372 N 
ATOM      3  N   UNL     1      -8.229 -28.439 -17.433  0.00  0.00    -0.372 N 
ATOM      4  C   UNL     1      -9.377 -29.118 -17.342  0.00  0.00    +0.166 C 
ATOM      5  H   UNL     1     -11.404 -29.093 -17.392  0.00  0.00    +0.163 HD
ATOM      6  H   UNL     1      -8.427 -30.920 -17.063  0.00  0.00    +0.159 HD
ATOM      7  H   UNL     1     -10.149 -31.006 -17.051  0.00  0.00    +0.159 HD
ATOM      8  H   UNL     1      -8.208 -27.440 -17.588  0.00  0.00    +0.159 HD
ATOM      9  H   UNL     1      -7.332 -28.903 -17.366  0.00  0.00    +0.159 HD
ENDROOT
BRANCH   1  10
ATOM     10  C   UNL     1     -10.750 -27.076 -17.601  0.00  0.00    +0.151 C 
BRANCH  10  11
ATOM     11  C   UNL     1     -12.149 -26.706 -17.190  0.00  0.00    -0.028 A 
ATOM     12  C   UNL     1     -12.738 -25.521 -17.656  0.00  0.00    +0.005 A 
ATOM     13  C   UNL     1     -12.892 -27.539 -16.340  0.00  0.00    +0.005 A 
ATOM     14  C   UNL     1     -14.048 -25.192 -17.299  0.00  0.00    +0.000 A 
ATOM     15  C   UNL     1     -14.200 -27.206 -15.985  0.00  0.00    +0.000 A 
ATOM     16  C   UNL     1     -14.778 -26.034 -16.467  0.00  0.00    +0.000 A 
ENDBRANCH  10  11
ENDBRANCH   1  10
TORSDOF 2
ENDMDL
MODEL 9
REMARK VINA RESULT:    -4.341     15.574     17.380
REMARK INTER + INTRA:          -4.983
REMARK INTER:                  -4.830
REMARK INTRA:                  -0.153
REMARK UNBOUND:                -0.135
REMARK  Name = 1550473
REMARK  2 active torsions:
REMARK  status: ('A' for Active; 'I' for Inactive)
REMARK    1  A    between atoms: N_1  and  C_4
REMARK    2  A    between atoms: C_4  and  C_5
REMARK                            x       y       z     vdW  Elec       q    Type
REMARK                         _______ _______ _______ _____ _____    ______ ____
ROOT
ATOM      1  N   UNL     1       4.830  21.495  14.935  0.00  0.00    -0.354 N 
ATOM      2  N   UNL     1       4.155  21.983  17.096  0.00  0.00    -0.372 N 
ATOM      3  N   UNL     1       2.715  22.410  15.361  0.00  0.00    -0.372 N 
ATOM      4  C   UNL     1       3.902  21.961  15.782  0.00  0.00    +0.166 C 
ATOM      5  H   UNL     1       5.721  21.197  15.314  0.00  0.00    +0.163 HD
ATOM      6  H   UNL     1       3.473  22.326  17.759  0.00  0.00    +0.159 HD
ATOM      7  H   UNL     1       5.029  21.642  17.476  0.00  0.00    +0.159 HD
ATOM      8  H   UNL     1       2.465  22.425  14.381  0.00  0.00    +0.159 HD
ATOM      9  H   UNL     1       2.024  22.768  16.008  0.00  0.00    +0.159 HD
ENDROOT
BRANCH   1  10
ATOM     10  C   UNL     1       4.634  21.377  13.491  0.00  0.00    +0.151 C 
BRANCH  10  11
ATOM     11  C   UNL     1       4.747  19.931  13.096  0.00  0.00    -0.028 A 
ATOM     12  C   UNL     1       3.621  19.094  13.127  0.00  0.00    +0.005 A 
ATOM     13  C   UNL     1       5.975  19.392  12.685  0.00  0.00    +0.005 A 
ATOM     14  C   UNL     1       3.719  17.758  12.731  0.00  0.00    +0.000 A 
ATOM     15  C   UNL     1       6.069  18.057  12.291  0.00  0.00    +0.000 A 
ATOM     16  C   UNL     1       4.941  17.241  12.312  0.00  0.00    +0.000 A 
ENDBRANCH  10  11
ENDBRANCH   1  10
TORSDOF 2
ENDMDL
