MODEL 1
REMARK VINA RESULT:    -6.357      0.000      0.000
REMARK INTER + INTRA:          -7.234
REMARK INTER:                  -7.100
REMARK INTRA:                  -0.134
REMARK UNBOUND:                -0.134
REMARK  Name = 1550473
REMARK  2 active torsions:
REMARK  status: ('A' for Active; 'I' for Inactive)
REMARK    1  A    between atoms: N_1  and  C_4
REMARK    2  A    between atoms: C_4  and  C_5
REMARK                            x       y       z     vdW  Elec       q    Type
REMARK                         _______ _______ _______ _____ _____    ______ ____
ROOT
ATOM      1  N   UNL     1       0.448 -10.501  -5.270  0.00  0.00    -0.354 N 
ATOM      2  N   UNL     1       2.598 -10.412  -4.415  0.00  0.00    -0.372 N 
ATOM      3  N   UNL     1       1.483  -8.448  -4.819  0.00  0.00    -0.372 N 
ATOM      4  C   UNL     1       1.495  -9.785  -4.841  0.00  0.00    +0.166 C 
ATOM      5  H   UNL     1       0.531 -11.511  -5.290  0.00  0.00    +0.163 HD
ATOM      6  H   UNL     1       3.403  -9.898  -4.082  0.00  0.00    +0.159 HD
ATOM      7  H   UNL     1       2.662 -11.422  -4.393  0.00  0.00    +0.159 HD
ATOM      8  H   UNL     1       0.683  -7.914  -5.132  0.00  0.00    +0.159 HD
ATOM      9  H   UNL     1       2.283  -7.915  -4.500  0.00  0.00    +0.159 HD
ENDROOT
BRANCH   1  10
ATOM     10  C   UNL     1      -0.820  -9.917  -5.704  0.00  0.00    +0.151 C 
BRANCH  10  11
ATOM     11  C   UNL     1      -1.396 -10.758  -6.809  0.00  0.00    -0.028 A 
ATOM     12  C   UNL     1      -0.586 -11.662  -7.512  0.00  0.00    +0.005 A 
ATOM     13  C   UNL     1      -2.753 -10.660  -7.155  0.00  0.00    +0.005 A 
ATOM     14  C   UNL     1      -1.127 -12.465  -8.519  0.00  0.00    +0.000 A 
ATOM     15  C   UNL     1      -3.289 -11.463  -8.162  0.00  0.00    +0.000 A 
ATOM     16  C   UNL     1      -2.477 -12.367  -8.841  0.00  0.00    +0.000 A 
ENDBRANCH  10  11
ENDBRANCH   1  10
TORSDOF 2
ENDMDL
MODEL 2
REMARK VINA RESULT:    -5.844      4.645      5.469
REMARK INTER + INTRA:          -6.661
REMARK INTER:                  -6.528
REMARK INTRA:                  -0.133
REMARK UNBOUND:                -0.134
REMARK  Name = 1550473
REMARK  2 active torsions:
REMARK  status: ('A' for Active; 'I' for Inactive)
REMARK    1  A    between atoms: N_1  and  C_4
REMARK    2  A    between atoms: C_4  and  C_5
REMARK                            x       y       z     vdW  Elec       q    Type
REMARK                         _______ _______ _______ _____ _____    ______ ____
ROOT
ATOM      1  N   UNL     1      -2.617  -6.347  -9.011  0.00  0.00    -0.354 N 
ATOM      2  N   UNL     1      -1.749  -4.815 -10.516  0.00  0.00    -0.372 N 
ATOM      3  N   UNL     1      -3.956  -4.648  -9.912  0.00  0.00    -0.372 N 
ATOM      4  C   UNL     1      -2.782  -5.279  -9.803  0.00  0.00    +0.166 C 
ATOM      5  H   UNL     1      -1.710  -6.799  -8.996  0.00  0.00    +0.163 HD
ATOM      6  H   UNL     1      -1.842  -4.010 -11.120  0.00  0.00    +0.159 HD
ATOM      7  H   UNL     1      -0.831  -5.241 -10.464  0.00  0.00    +0.159 HD
ATOM      8  H   UNL     1      -4.776  -4.952  -9.406  0.00  0.00    +0.159 HD
ATOM      9  H   UNL     1      -4.072  -3.847 -10.521  0.00  0.00    +0.159 HD
ENDROOT
BRANCH   1  10
ATOM     10  C   UNL     1      -3.664  -6.898  -8.153  0.00  0.00    +0.151 C 
BRANCH  10  11
ATOM     11  C   UNL     1      -3.544  -8.397  -8.133  0.00  0.00    -0.028 A 
ATOM     12  C   UNL     1      -3.108  -9.091  -9.271  0.00  0.00    +0.005 A 
ATOM     13  C   UNL     1      -3.860  -9.128  -6.978  0.00  0.00    +0.005 A 
ATOM     14  C   UNL     1      -2.968 -10.481  -9.244  0.00  0.00    +0.000 A 
ATOM     15  C   UNL     1      -3.719 -10.516  -6.955  0.00  0.00    +0.000 A 
ATOM     16  C   UNL     1      -3.271 -11.191  -8.087  0.00  0.00    +0.000 A 
ENDBRANCH  10  11
ENDBRANCH   1  10
TORSDOF 2
ENDMDL
MODEL 3
REMARK VINA RESULT:    -5.620      4.935      6.447
REMARK INTER + INTRA:          -6.410
REMARK INTER:                  -6.297
REMARK INTRA:                  -0.114
REMARK UNBOUND:                -0.134
REMARK  Name = 1550473
REMARK  2 active torsions:
REMARK  status: ('A' for Active; 'I' for Inactive)
REMARK    1  A    between atoms: N_1  and  C_4
REMARK    2  A    between atoms: C_4  and  C_5
REMARK                            x       y       z     vdW  Elec       q    Type
REMARK                         _______ _______ _______ _____ _____    ______ ____
ROOT
ATOM      1  N   UNL     1      -3.598 -12.659 -10.509  0.00  0.00    -0.354 N 
ATOM      2  N   UNL     1      -4.954 -13.918 -11.902  0.00  0.00    -0.372 N 
ATOM      3  N   UNL     1      -3.417 -12.494 -12.839  0.00  0.00    -0.372 N 
ATOM      4  C   UNL     1      -3.979 -13.014 -11.743  0.00  0.00    +0.166 C 
ATOM      5  H   UNL     1      -4.084 -13.067  -9.718  0.00  0.00    +0.163 HD
ATOM      6  H   UNL     1      -5.260 -14.208 -12.821  0.00  0.00    +0.159 HD
ATOM      7  H   UNL     1      -5.406 -14.358 -11.110  0.00  0.00    +0.159 HD
ATOM      8  H   UNL     1      -2.681 -11.803 -12.788  0.00  0.00    +0.159 HD
ATOM      9  H   UNL     1      -3.719 -12.763 -13.768  0.00  0.00    +0.159 HD
ENDROOT
BRANCH   1  10
ATOM     10  C   UNL     1      -2.510 -11.724 -10.226  0.00  0.00    +0.151 C 
BRANCH  10  11
ATOM     11  C   UNL     1      -2.950 -10.770  -9.150  0.00  0.00    -0.028 A 
ATOM     12  C   UNL     1      -3.043  -9.395  -9.412  0.00  0.00    +0.005 A 
ATOM     13  C   UNL     1      -3.279 -11.235  -7.868  0.00  0.00    +0.005 A 
ATOM     14  C   UNL     1      -3.480  -8.512  -8.421  0.00  0.00    +0.000 A 
ATOM     15  C   UNL     1      -3.714 -10.350  -6.881  0.00  0.00    +0.000 A 
ATOM     16  C   UNL     1      -3.817  -8.989  -7.159  0.00  0.00    +0.000 A 
ENDBRANCH  10  11
ENDBRANCH   1  10
TORSDOF 2
ENDMDL
MODEL 4
REMARK VINA RESULT:    -5.233     22.202     23.810
REMARK INTER + INTRA:          -5.978
REMARK INTER:                  -5.809
REMARK INTRA:                  -0.170
REMARK UNBOUND:                -0.134
REMARK  Name = 1550473
REMARK  2 active torsions:
REMARK  status: ('A' for Active; 'I' for Inactive)
REMARK    1  A    between atoms: N_1  and  C_4
REMARK    2  A    between atoms: C_4  and  C_5
REMARK                            x       y       z     vdW  Elec       q    Type
REMARK                         _______ _______ _______ _____ _____    ______ ____
ROOT
ATOM      1  N   UNL     1      -0.471   5.515   8.745  0.00  0.00    -0.354 N 
ATOM      2  N   UNL     1      -2.582   5.224   9.653  0.00  0.00    -0.372 N 
ATOM      3  N   UNL     1      -2.390   6.174   7.573  0.00  0.00    -0.372 N 
ATOM      4  C   UNL     1      -1.802   5.641   8.649  0.00  0.00    +0.166 C 
ATOM      5  H   UNL     1      -0.085   5.130   9.600  0.00  0.00    +0.163 HD
ATOM      6  H   UNL     1      -3.589   5.303   9.607  0.00  0.00    +0.159 HD
ATOM      7  H   UNL     1      -2.196   4.798  10.487  0.00  0.00    +0.159 HD
ATOM      8  H   UNL     1      -1.857   6.513   6.783  0.00  0.00    +0.159 HD
ATOM      9  H   UNL     1      -3.396   6.273   7.513  0.00  0.00    +0.159 HD
ENDROOT
BRANCH   1  10
ATOM     10  C   UNL     1       0.464   5.888   7.686  0.00  0.00    +0.151 C 
BRANCH  10  11
ATOM     11  C   UNL     1       0.982   7.274   7.954  0.00  0.00    -0.028 A 
ATOM     12  C   UNL     1       1.943   7.495   8.952  0.00  0.00    +0.005 A 
ATOM     13  C   UNL     1       0.521   8.370   7.209  0.00  0.00    +0.005 A 
ATOM     14  C   UNL     1       2.446   8.777   9.181  0.00  0.00    +0.000 A 
ATOM     15  C   UNL     1       1.026   9.650   7.441  0.00  0.00    +0.000 A 
ATOM     16  C   UNL     1       1.990   9.852   8.425  0.00  0.00    +0.000 A 
ENDBRANCH  10  11
ENDBRANCH   1  10
TORSDOF 2
ENDMDL
MODEL 5
REMARK VINA RESULT:    -5.198     22.171     22.758
REMARK INTER + INTRA:          -5.939
REMARK INTER:                  -5.815
REMARK INTRA:                  -0.125
REMARK UNBOUND:                -0.134
REMARK  Name = 1550473
REMARK  2 active torsions:
REMARK  status: ('A' for Active; 'I' for Inactive)
REMARK    1  A    between atoms: N_1  and  C_4
REMARK    2  A    between atoms: C_4  and  C_5
REMARK                            x       y       z     vdW  Elec       q    Type
REMARK                         _______ _______ _______ _____ _____    ______ ____
ROOT
ATOM      1  N   UNL     1       1.573   4.947   8.505  0.00  0.00    -0.354 N 
ATOM      2  N   UNL     1       2.369   3.339   9.968  0.00  0.00    -0.372 N 
ATOM      3  N   UNL     1       3.814   4.943   9.191  0.00  0.00    -0.372 N 
ATOM      4  C   UNL     1       2.582   4.422   9.211  0.00  0.00    +0.166 C 
ATOM      5  H   UNL     1       0.671   4.487   8.539  0.00  0.00    +0.163 HD
ATOM      6  H   UNL     1       3.111   2.922  10.515  0.00  0.00    +0.159 HD
ATOM      7  H   UNL     1       1.455   2.908  10.037  0.00  0.00    +0.159 HD
ATOM      8  H   UNL     1       4.041   5.757   8.636  0.00  0.00    +0.159 HD
ATOM      9  H   UNL     1       4.572   4.534   9.723  0.00  0.00    +0.159 HD
ENDROOT
BRANCH   1  10
ATOM     10  C   UNL     1       1.687   6.157   7.692  0.00  0.00    +0.151 C 
BRANCH  10  11
ATOM     11  C   UNL     1       0.358   6.860   7.669  0.00  0.00    -0.028 A 
ATOM     12  C   UNL     1       0.278   8.221   7.338  0.00  0.00    +0.005 A 
ATOM     13  C   UNL     1      -0.826   6.170   7.972  0.00  0.00    +0.005 A 
ATOM     14  C   UNL     1      -0.960   8.867   7.288  0.00  0.00    +0.000 A 
ATOM     15  C   UNL     1      -2.060   6.819   7.921  0.00  0.00    +0.000 A 
ATOM     16  C   UNL     1      -2.126   8.167   7.577  0.00  0.00    +0.000 A 
ENDBRANCH  10  11
ENDBRANCH   1  10
TORSDOF 2
ENDMDL
MODEL 6
REMARK VINA RESULT:    -4.965     22.420     23.220
REMARK INTER + INTRA:          -5.680
REMARK INTER:                  -5.573
REMARK INTRA:                  -0.107
REMARK UNBOUND:                -0.134
REMARK  Name = 1550473
REMARK  2 active torsions:
REMARK  status: ('A' for Active; 'I' for Inactive)
REMARK    1  A    between atoms: N_1  and  C_4
REMARK    2  A    between atoms: C_4  and  C_5
REMARK                            x       y       z     vdW  Elec       q    Type
REMARK                         _______ _______ _______ _____ _____    ______ ____
ROOT
ATOM      1  N   UNL     1      -0.574   5.287   9.144  0.00  0.00    -0.354 N 
ATOM      2  N   UNL     1      -2.849   5.273   9.575  0.00  0.00    -0.372 N 
ATOM      3  N   UNL     1      -2.077   6.402   7.733  0.00  0.00    -0.372 N 
ATOM      4  C   UNL     1      -1.818   5.656   8.812  0.00  0.00    +0.166 C 
ATOM      5  H   UNL     1      -0.441   4.747   9.991  0.00  0.00    +0.163 HD
ATOM      6  H   UNL     1      -3.800   5.533   9.348  0.00  0.00    +0.159 HD
ATOM      7  H   UNL     1      -2.718   4.694  10.396  0.00  0.00    +0.159 HD
ATOM      8  H   UNL     1      -1.342   6.728   7.119  0.00  0.00    +0.159 HD
ATOM      9  H   UNL     1      -3.020   6.682   7.496  0.00  0.00    +0.159 HD
ENDROOT
BRANCH   1  10
ATOM     10  C   UNL     1       0.612   5.606   8.350  0.00  0.00    +0.151 C 
BRANCH  10  11
ATOM     11  C   UNL     1       1.841   5.343   9.176  0.00  0.00    -0.028 A 
ATOM     12  C   UNL     1       1.964   4.154   9.910  0.00  0.00    +0.005 A 
ATOM     13  C   UNL     1       2.888   6.276   9.225  0.00  0.00    +0.005 A 
ATOM     14  C   UNL     1       3.119   3.895  10.654  0.00  0.00    +0.000 A 
ATOM     15  C   UNL     1       4.038   6.015   9.969  0.00  0.00    +0.000 A 
ATOM     16  C   UNL     1       4.154   4.823  10.681  0.00  0.00    +0.000 A 
ENDBRANCH  10  11
ENDBRANCH   1  10
TORSDOF 2
ENDMDL
MODEL 7
REMARK VINA RESULT:    -4.956     27.049     28.479
REMARK INTER + INTRA:          -5.669
REMARK INTER:                  -5.525
REMARK INTRA:                  -0.144
REMARK UNBOUND:                -0.134
REMARK  Name = 1550473
REMARK  2 active torsions:
REMARK  status: ('A' for Active; 'I' for Inactive)
REMARK    1  A    between atoms: N_1  and  C_4
REMARK    2  A    between atoms: C_4  and  C_5
REMARK                            x       y       z     vdW  Elec       q    Type
REMARK                         _______ _______ _______ _____ _____    ______ ____
ROOT
ATOM      1  N   UNL     1     -14.170  10.915   2.884  0.00  0.00    -0.354 N 
ATOM      2  N   UNL     1     -15.626  10.560   1.118  0.00  0.00    -0.372 N 
ATOM      3  N   UNL     1     -13.379  10.238   0.784  0.00  0.00    -0.372 N 
ATOM      4  C   UNL     1     -14.380  10.573   1.606  0.00  0.00    +0.166 C 
ATOM      5  H   UNL     1     -14.968  11.188   3.446  0.00  0.00    +0.163 HD
ATOM      6  H   UNL     1     -15.815  10.303   0.158  0.00  0.00    +0.159 HD
ATOM      7  H   UNL     1     -16.426  10.789   1.695  0.00  0.00    +0.159 HD
ATOM      8  H   UNL     1     -12.415  10.234   1.090  0.00  0.00    +0.159 HD
ATOM      9  H   UNL     1     -13.547   9.989  -0.182  0.00  0.00    +0.159 HD
ENDROOT
BRANCH   1  10
ATOM     10  C   UNL     1     -12.858  10.909   3.527  0.00  0.00    +0.151 C 
BRANCH  10  11
ATOM     11  C   UNL     1     -12.587  12.271   4.104  0.00  0.00    -0.028 A 
ATOM     12  C   UNL     1     -12.801  13.425   3.335  0.00  0.00    +0.005 A 
ATOM     13  C   UNL     1     -12.122  12.416   5.420  0.00  0.00    +0.005 A 
ATOM     14  C   UNL     1     -12.578  14.692   3.880  0.00  0.00    +0.000 A 
ATOM     15  C   UNL     1     -11.900  13.682   5.960  0.00  0.00    +0.000 A 
ATOM     16  C   UNL     1     -12.131  14.820   5.191  0.00  0.00    +0.000 A 
ENDBRANCH  10  11
ENDBRANCH   1  10
TORSDOF 2
ENDMDL
MODEL 8
REMARK VINA RESULT:    -4.911     23.159     24.318
REMARK INTER + INTRA:          -5.619
REMARK INTER:                  -5.439
REMARK INTRA:                  -0.180
REMARK UNBOUND:                -0.134
REMARK  Name = 1550473
REMARK  2 active torsions:
REMARK  status: ('A' for Active; 'I' for Inactive)
REMARK    1  A    between atoms: N_1  and  C_4
REMARK    2  A    between atoms: C_4  and  C_5
REMARK                            x       y       z     vdW  Elec       q    Type
REMARK                         _______ _______ _______ _____ _____    ______ ____
ROOT
ATOM      1  N   UNL     1      -3.123   7.442   9.050  0.00  0.00    -0.354 N 
ATOM      2  N   UNL     1      -3.499   6.432  11.100  0.00  0.00    -0.372 N 
ATOM      3  N   UNL     1      -2.570   5.193   9.407  0.00  0.00    -0.372 N 
ATOM      4  C   UNL     1      -3.061   6.360   9.837  0.00  0.00    +0.166 C 
ATOM      5  H   UNL     1      -3.534   8.289   9.427  0.00  0.00    +0.163 HD
ATOM      6  H   UNL     1      -3.462   5.633  11.718  0.00  0.00    +0.159 HD
ATOM      7  H   UNL     1      -3.867   7.292  11.488  0.00  0.00    +0.159 HD
ATOM      8  H   UNL     1      -2.228   5.071   8.463  0.00  0.00    +0.159 HD
ATOM      9  H   UNL     1      -2.535   4.379  10.007  0.00  0.00    +0.159 HD
ENDROOT
BRANCH   1  10
ATOM     10  C   UNL     1      -2.622   7.485   7.677  0.00  0.00    +0.151 C 
BRANCH  10  11
ATOM     11  C   UNL     1      -1.313   8.225   7.654  0.00  0.00    -0.028 A 
ATOM     12  C   UNL     1      -1.286   9.625   7.720  0.00  0.00    +0.005 A 
ATOM     13  C   UNL     1      -0.096   7.531   7.572  0.00  0.00    +0.005 A 
ATOM     14  C   UNL     1      -0.070  10.312   7.729  0.00  0.00    +0.000 A 
ATOM     15  C   UNL     1       1.116   8.220   7.580  0.00  0.00    +0.000 A 
ATOM     16  C   UNL     1       1.129   9.610   7.661  0.00  0.00    +0.000 A 
ENDBRANCH  10  11
ENDBRANCH   1  10
TORSDOF 2
ENDMDL
MODEL 9
REMARK VINA RESULT:    -4.842     22.361     23.701
REMARK INTER + INTRA:          -5.542
REMARK INTER:                  -5.409
REMARK INTRA:                  -0.133
REMARK UNBOUND:                -0.134
REMARK  Name = 1550473
REMARK  2 active torsions:
REMARK  status: ('A' for Active; 'I' for Inactive)
REMARK    1  A    between atoms: N_1  and  C_4
REMARK    2  A    between atoms: C_4  and  C_5
REMARK                            x       y       z     vdW  Elec       q    Type
REMARK                         _______ _______ _______ _____ _____    ______ ____
ROOT
ATOM      1  N   UNL     1      -0.025   6.682   7.728  0.00  0.00    -0.354 N 
ATOM      2  N   UNL     1      -1.948   7.875   7.233  0.00  0.00    -0.372 N 
ATOM      3  N   UNL     1      -2.146   5.802   8.197  0.00  0.00    -0.372 N 
ATOM      4  C   UNL     1      -1.362   6.776   7.724  0.00  0.00    +0.166 C 
ATOM      5  H   UNL     1       0.512   7.442   7.327  0.00  0.00    +0.163 HD
ATOM      6  H   UNL     1      -2.954   7.975   7.220  0.00  0.00    +0.159 HD
ATOM      7  H   UNL     1      -1.407   8.653   6.875  0.00  0.00    +0.159 HD
ATOM      8  H   UNL     1      -1.766   4.945   8.575  0.00  0.00    +0.159 HD
ATOM      9  H   UNL     1      -3.155   5.879   8.182  0.00  0.00    +0.159 HD
ENDROOT
BRANCH   1  10
ATOM     10  C   UNL     1       0.713   5.552   8.288  0.00  0.00    +0.151 C 
BRANCH  10  11
ATOM     11  C   UNL     1       1.995   6.054   8.894  0.00  0.00    -0.028 A 
ATOM     12  C   UNL     1       2.142   7.408   9.228  0.00  0.00    +0.005 A 
ATOM     13  C   UNL     1       3.064   5.179   9.141  0.00  0.00    +0.005 A 
ATOM     14  C   UNL     1       3.321   7.869   9.818  0.00  0.00    +0.000 A 
ATOM     15  C   UNL     1       4.240   5.644   9.730  0.00  0.00    +0.000 A 
ATOM     16  C   UNL     1       4.367   6.989  10.070  0.00  0.00    +0.000 A 
ENDBRANCH  10  11
ENDBRANCH   1  10
TORSDOF 2
ENDMDL
