MODEL 1
REMARK VINA RESULT:    -5.727      0.000      0.000
REMARK INTER + INTRA:          -6.489
REMARK INTER:                  -6.396
REMARK INTRA:                  -0.093
REMARK UNBOUND:                -0.093
REMARK  Name = 1550473
REMARK  2 active torsions:
REMARK  status: ('A' for Active; 'I' for Inactive)
REMARK    1  A    between atoms: N_1  and  C_4
REMARK    2  A    between atoms: C_4  and  C_5
REMARK                            x       y       z     vdW  Elec       q    Type
REMARK                         _______ _______ _______ _____ _____    ______ ____
ROOT
ATOM      1  N   UNL     1      -5.339   3.942  -4.386  0.00  0.00    -0.354 N 
ATOM      2  N   UNL     1      -5.655   2.766  -2.416  0.00  0.00    -0.372 N 
ATOM      3  N   UNL     1      -6.755   2.076  -4.307  0.00  0.00    -0.372 N 
ATOM      4  C   UNL     1      -5.916   2.935  -3.717  0.00  0.00    +0.166 C 
ATOM      5  H   UNL     1      -4.736   4.576  -3.874  0.00  0.00    +0.163 HD
ATOM      6  H   UNL     1      -6.073   2.013  -1.886  0.00  0.00    +0.159 HD
ATOM      7  H   UNL     1      -5.016   3.374  -1.917  0.00  0.00    +0.159 HD
ATOM      8  H   UNL     1      -6.998   2.152  -5.286  0.00  0.00    +0.159 HD
ATOM      9  H   UNL     1      -7.192   1.323  -3.791  0.00  0.00    +0.159 HD
ENDROOT
BRANCH   1  10
ATOM     10  C   UNL     1      -5.515   4.181  -5.817  0.00  0.00    +0.151 C 
BRANCH  10  11
ATOM     11  C   UNL     1      -4.710   5.387  -6.217  0.00  0.00    -0.028 A 
ATOM     12  C   UNL     1      -5.340   6.618  -6.450  0.00  0.00    +0.005 A 
ATOM     13  C   UNL     1      -3.316   5.306  -6.358  0.00  0.00    +0.005 A 
ATOM     14  C   UNL     1      -4.590   7.745  -6.792  0.00  0.00    +0.000 A 
ATOM     15  C   UNL     1      -2.571   6.434  -6.700  0.00  0.00    +0.000 A 
ATOM     16  C   UNL     1      -3.207   7.654  -6.915  0.00  0.00    +0.000 A 
ENDBRANCH  10  11
ENDBRANCH   1  10
TORSDOF 2
ENDMDL
MODEL 2
REMARK VINA RESULT:    -5.157     22.958     24.003
REMARK INTER + INTRA:          -5.853
REMARK INTER:                  -5.726
REMARK INTRA:                  -0.127
REMARK UNBOUND:                -0.093
REMARK  Name = 1550473
REMARK  2 active torsions:
REMARK  status: ('A' for Active; 'I' for Inactive)
REMARK    1  A    between atoms: N_1  and  C_4
REMARK    2  A    between atoms: C_4  and  C_5
REMARK                            x       y       z     vdW  Elec       q    Type
REMARK                         _______ _______ _______ _____ _____    ______ ____
ROOT
ATOM      1  N   UNL     1     -12.522 -15.018   7.095  0.00  0.00    -0.354 N 
ATOM      2  N   UNL     1     -10.645 -16.037   6.199  0.00  0.00    -0.372 N 
ATOM      3  N   UNL     1     -10.368 -14.361   7.742  0.00  0.00    -0.372 N 
ATOM      4  C   UNL     1     -11.189 -15.130   7.019  0.00  0.00    +0.166 C 
ATOM      5  H   UNL     1     -13.089 -15.609   6.499  0.00  0.00    +0.163 HD
ATOM      6  H   UNL     1      -9.643 -16.147   6.124  0.00  0.00    +0.159 HD
ATOM      7  H   UNL     1     -11.215 -16.659   5.639  0.00  0.00    +0.159 HD
ATOM      8  H   UNL     1     -10.715 -13.653   8.375  0.00  0.00    +0.159 HD
ATOM      9  H   UNL     1      -9.361 -14.448   7.671  0.00  0.00    +0.159 HD
ENDROOT
BRANCH   1  10
ATOM     10  C   UNL     1     -13.216 -14.099   7.996  0.00  0.00    +0.151 C 
BRANCH  10  11
ATOM     11  C   UNL     1     -14.069 -13.165   7.183  0.00  0.00    -0.028 A 
ATOM     12  C   UNL     1     -15.085 -12.415   7.794  0.00  0.00    +0.005 A 
ATOM     13  C   UNL     1     -13.863 -13.020   5.802  0.00  0.00    +0.005 A 
ATOM     14  C   UNL     1     -15.858 -11.525   7.045  0.00  0.00    +0.000 A 
ATOM     15  C   UNL     1     -14.638 -12.131   5.058  0.00  0.00    +0.000 A 
ATOM     16  C   UNL     1     -15.633 -11.382   5.680  0.00  0.00    +0.000 A 
ENDBRANCH  10  11
ENDBRANCH   1  10
TORSDOF 2
ENDMDL
MODEL 3
REMARK VINA RESULT:    -4.948     20.471     21.533
REMARK INTER + INTRA:          -5.619
REMARK INTER:                  -5.464
REMARK INTRA:                  -0.155
REMARK UNBOUND:                -0.093
REMARK  Name = 1550473
REMARK  2 active torsions:
REMARK  status: ('A' for Active; 'I' for Inactive)
REMARK    1  A    between atoms: N_1  and  C_4
REMARK    2  A    between atoms: C_4  and  C_5
REMARK                            x       y       z     vdW  Elec       q    Type
REMARK                         _______ _______ _______ _____ _____    ______ ____
ROOT
ATOM      1  N   UNL     1      16.492   2.620  -1.131  0.00  0.00    -0.354 N 
ATOM      2  N   UNL     1      16.183   1.139  -2.885  0.00  0.00    -0.372 N 
ATOM      3  N   UNL     1      14.415   1.599  -1.497  0.00  0.00    -0.372 N 
ATOM      4  C   UNL     1      15.696   1.795  -1.825  0.00  0.00    +0.166 C 
ATOM      5  H   UNL     1      17.462   2.702  -1.412  0.00  0.00    +0.163 HD
ATOM      6  H   UNL     1      15.606   0.513  -3.430  0.00  0.00    +0.159 HD
ATOM      7  H   UNL     1      17.141   1.259  -3.191  0.00  0.00    +0.159 HD
ATOM      8  H   UNL     1      13.988   2.059  -0.705  0.00  0.00    +0.159 HD
ATOM      9  H   UNL     1      13.824   0.967  -2.023  0.00  0.00    +0.159 HD
ENDROOT
BRANCH   1  10
ATOM     10  C   UNL     1      16.045   3.422   0.006  0.00  0.00    +0.151 C 
BRANCH  10  11
ATOM     11  C   UNL     1      16.234   4.879  -0.316  0.00  0.00    -0.028 A 
ATOM     12  C   UNL     1      15.322   5.549  -1.145  0.00  0.00    +0.005 A 
ATOM     13  C   UNL     1      17.320   5.597   0.209  0.00  0.00    +0.005 A 
ATOM     14  C   UNL     1      15.480   6.909  -1.420  0.00  0.00    +0.000 A 
ATOM     15  C   UNL     1      17.475   6.955  -0.069  0.00  0.00    +0.000 A 
ATOM     16  C   UNL     1      16.553   7.611  -0.882  0.00  0.00    +0.000 A 
ENDBRANCH  10  11
ENDBRANCH   1  10
TORSDOF 2
ENDMDL
MODEL 4
REMARK VINA RESULT:    -4.880     29.097     29.884
REMARK INTER + INTRA:          -5.544
REMARK INTER:                  -5.402
REMARK INTRA:                  -0.142
REMARK UNBOUND:                -0.093
REMARK  Name = 1550473
REMARK  2 active torsions:
REMARK  status: ('A' for Active; 'I' for Inactive)
REMARK    1  A    between atoms: N_1  and  C_4
REMARK    2  A    between atoms: C_4  and  C_5
REMARK                            x       y       z     vdW  Elec       q    Type
REMARK                         _______ _______ _______ _____ _____    ______ ____
ROOT
ATOM      1  N   UNL     1      10.139  19.252  15.840  0.00  0.00    -0.354 N 
ATOM      2  N   UNL     1       9.182  20.289  14.003  0.00  0.00    -0.372 N 
ATOM      3  N   UNL     1      10.301  18.309  13.701  0.00  0.00    -0.372 N 
ATOM      4  C   UNL     1       9.882  19.274  14.525  0.00  0.00    +0.166 C 
ATOM      5  H   UNL     1       9.819  20.030  16.406  0.00  0.00    +0.163 HD
ATOM      6  H   UNL     1       8.970  20.331  13.015  0.00  0.00    +0.159 HD
ATOM      7  H   UNL     1       8.824  21.042  14.579  0.00  0.00    +0.159 HD
ATOM      8  H   UNL     1      10.838  17.518  14.031  0.00  0.00    +0.159 HD
ATOM      9  H   UNL     1      10.108  18.339  12.707  0.00  0.00    +0.159 HD
ENDROOT
BRANCH   1  10
ATOM     10  C   UNL     1      10.846  18.166  16.516  0.00  0.00    +0.151 C 
BRANCH  10  11
ATOM     11  C   UNL     1       9.928  17.538  17.528  0.00  0.00    -0.028 A 
ATOM     12  C   UNL     1       9.172  18.338  18.397  0.00  0.00    +0.005 A 
ATOM     13  C   UNL     1       9.805  16.143  17.619  0.00  0.00    +0.005 A 
ATOM     14  C   UNL     1       8.296  17.756  19.317  0.00  0.00    +0.000 A 
ATOM     15  C   UNL     1       8.930  15.565  18.539  0.00  0.00    +0.000 A 
ATOM     16  C   UNL     1       8.174  16.372  19.386  0.00  0.00    +0.000 A 
ENDBRANCH  10  11
ENDBRANCH   1  10
TORSDOF 2
ENDMDL
MODEL 5
REMARK VINA RESULT:    -4.799     21.184     21.943
REMARK INTER + INTRA:          -5.453
REMARK INTER:                  -5.347
REMARK INTRA:                  -0.105
REMARK UNBOUND:                -0.093
REMARK  Name = 1550473
REMARK  2 active torsions:
REMARK  status: ('A' for Active; 'I' for Inactive)
REMARK    1  A    between atoms: N_1  and  C_4
REMARK    2  A    between atoms: C_4  and  C_5
REMARK                            x       y       z     vdW  Elec       q    Type
REMARK                         _______ _______ _______ _____ _____    ______ ____
ROOT
ATOM      1  N   UNL     1      17.215   1.395  -1.097  0.00  0.00    -0.354 N 
ATOM      2  N   UNL     1      19.176   0.163  -1.050  0.00  0.00    -0.372 N 
ATOM      3  N   UNL     1      17.503  -0.469  -2.488  0.00  0.00    -0.372 N 
ATOM      4  C   UNL     1      17.950   0.369  -1.547  0.00  0.00    +0.166 C 
ATOM      5  H   UNL     1      17.600   1.976  -0.361  0.00  0.00    +0.163 HD
ATOM      6  H   UNL     1      19.755  -0.601  -1.372  0.00  0.00    +0.159 HD
ATOM      7  H   UNL     1      19.576   0.773  -0.347  0.00  0.00    +0.159 HD
ATOM      8  H   UNL     1      16.585  -0.371  -2.899  0.00  0.00    +0.159 HD
ATOM      9  H   UNL     1      18.063  -1.246  -2.815  0.00  0.00    +0.159 HD
ENDROOT
BRANCH   1  10
ATOM     10  C   UNL     1      15.891   1.739  -1.611  0.00  0.00    +0.151 C 
BRANCH  10  11
ATOM     11  C   UNL     1      15.754   3.236  -1.653  0.00  0.00    -0.028 A 
ATOM     12  C   UNL     1      15.752   3.985  -0.467  0.00  0.00    +0.005 A 
ATOM     13  C   UNL     1      15.631   3.912  -2.876  0.00  0.00    +0.005 A 
ATOM     14  C   UNL     1      15.656   5.378  -0.507  0.00  0.00    +0.000 A 
ATOM     15  C   UNL     1      15.533   5.303  -2.912  0.00  0.00    +0.000 A 
ATOM     16  C   UNL     1      15.548   6.036  -1.727  0.00  0.00    +0.000 A 
ENDBRANCH  10  11
ENDBRANCH   1  10
TORSDOF 2
ENDMDL
MODEL 6
REMARK VINA RESULT:    -4.761      4.119      5.987
REMARK INTER + INTRA:          -5.411
REMARK INTER:                  -5.281
REMARK INTRA:                  -0.130
REMARK UNBOUND:                -0.093
REMARK  Name = 1550473
REMARK  2 active torsions:
REMARK  status: ('A' for Active; 'I' for Inactive)
REMARK    1  A    between atoms: N_1  and  C_4
REMARK    2  A    between atoms: C_4  and  C_5
REMARK                            x       y       z     vdW  Elec       q    Type
REMARK                         _______ _______ _______ _____ _____    ______ ____
ROOT
ATOM      1  N   UNL     1      -5.236   9.314  -7.327  0.00  0.00    -0.354 N 
ATOM      2  N   UNL     1      -6.515  10.967  -8.325  0.00  0.00    -0.372 N 
ATOM      3  N   UNL     1      -4.265  10.887  -8.768  0.00  0.00    -0.372 N 
ATOM      4  C   UNL     1      -5.328  10.379  -8.134  0.00  0.00    +0.166 C 
ATOM      5  H   UNL     1      -6.073   8.996  -6.852  0.00  0.00    +0.163 HD
ATOM      6  H   UNL     1      -6.616  11.770  -8.931  0.00  0.00    +0.159 HD
ATOM      7  H   UNL     1      -7.359  10.619  -7.885  0.00  0.00    +0.159 HD
ATOM      8  H   UNL     1      -3.340  10.493  -8.662  0.00  0.00    +0.159 HD
ATOM      9  H   UNL     1      -4.344  11.697  -9.370  0.00  0.00    +0.159 HD
ENDROOT
BRANCH   1  10
ATOM     10  C   UNL     1      -4.000   8.569  -7.094  0.00  0.00    +0.151 C 
BRANCH  10  11
ATOM     11  C   UNL     1      -4.339   7.129  -6.821  0.00  0.00    -0.028 A 
ATOM     12  C   UNL     1      -3.322   6.181  -6.637  0.00  0.00    +0.005 A 
ATOM     13  C   UNL     1      -5.675   6.708  -6.738  0.00  0.00    +0.005 A 
ATOM     14  C   UNL     1      -3.636   4.850  -6.352  0.00  0.00    +0.000 A 
ATOM     15  C   UNL     1      -5.985   5.378  -6.455  0.00  0.00    +0.000 A 
ATOM     16  C   UNL     1      -4.965   4.450  -6.260  0.00  0.00    +0.000 A 
ENDBRANCH  10  11
ENDBRANCH   1  10
TORSDOF 2
ENDMDL
MODEL 7
REMARK VINA RESULT:    -4.721      9.233     10.223
REMARK INTER + INTRA:          -5.366
REMARK INTER:                  -5.230
REMARK INTRA:                  -0.135
REMARK UNBOUND:                -0.093
REMARK  Name = 1550473
REMARK  2 active torsions:
REMARK  status: ('A' for Active; 'I' for Inactive)
REMARK    1  A    between atoms: N_1  and  C_4
REMARK    2  A    between atoms: C_4  and  C_5
REMARK                            x       y       z     vdW  Elec       q    Type
REMARK                         _______ _______ _______ _____ _____    ______ ____
ROOT
ATOM      1  N   UNL     1      -9.274  -0.757  -0.943  0.00  0.00    -0.354 N 
ATOM      2  N   UNL     1     -10.877   0.120  -2.367  0.00  0.00    -0.372 N 
ATOM      3  N   UNL     1     -10.927  -2.124  -1.889  0.00  0.00    -0.372 N 
ATOM      4  C   UNL     1     -10.349  -0.929  -1.724  0.00  0.00    +0.166 C 
ATOM      5  H   UNL     1      -8.866   0.168  -0.883  0.00  0.00    +0.163 HD
ATOM      6  H   UNL     1     -11.690   0.022  -2.960  0.00  0.00    +0.159 HD
ATOM      7  H   UNL     1     -10.494   1.053  -2.269  0.00  0.00    +0.159 HD
ATOM      8  H   UNL     1     -10.574  -2.956  -1.436  0.00  0.00    +0.159 HD
ATOM      9  H   UNL     1     -11.734  -2.244  -2.488  0.00  0.00    +0.159 HD
ENDROOT
BRANCH   1  10
ATOM     10  C   UNL     1      -8.656  -1.823  -0.157  0.00  0.00    +0.151 C 
BRANCH  10  11
ATOM     11  C   UNL     1      -8.237  -1.271   1.177  0.00  0.00    -0.028 A 
ATOM     12  C   UNL     1      -8.328   0.104   1.439  0.00  0.00    +0.005 A 
ATOM     13  C   UNL     1      -7.754  -2.117   2.187  0.00  0.00    +0.005 A 
ATOM     14  C   UNL     1      -7.968   0.614   2.688  0.00  0.00    +0.000 A 
ATOM     15  C   UNL     1      -7.394  -1.604   3.432  0.00  0.00    +0.000 A 
ATOM     16  C   UNL     1      -7.503  -0.239   3.684  0.00  0.00    +0.000 A 
ENDBRANCH  10  11
ENDBRANCH   1  10
TORSDOF 2
ENDMDL
MODEL 8
REMARK VINA RESULT:    -4.718     35.530     36.576
REMARK INTER + INTRA:          -5.363
REMARK INTER:                  -5.235
REMARK INTRA:                  -0.128
REMARK UNBOUND:                -0.093
REMARK  Name = 1550473
REMARK  2 active torsions:
REMARK  status: ('A' for Active; 'I' for Inactive)
REMARK    1  A    between atoms: N_1  and  C_4
REMARK    2  A    between atoms: C_4  and  C_5
REMARK                            x       y       z     vdW  Elec       q    Type
REMARK                         _______ _______ _______ _____ _____    ______ ____
ROOT
ATOM      1  N   UNL     1     -14.640  12.279  29.461  0.00  0.00    -0.354 N 
ATOM      2  N   UNL     1     -16.183  13.418  30.760  0.00  0.00    -0.372 N 
ATOM      3  N   UNL     1     -14.787  14.617  29.390  0.00  0.00    -0.372 N 
ATOM      4  C   UNL     1     -15.192  13.433  29.861  0.00  0.00    +0.166 C 
ATOM      5  H   UNL     1     -14.971  11.417  29.879  0.00  0.00    +0.163 HD
ATOM      6  H   UNL     1     -16.622  14.272  31.078  0.00  0.00    +0.159 HD
ATOM      7  H   UNL     1     -16.544  12.551  31.141  0.00  0.00    +0.159 HD
ATOM      8  H   UNL     1     -14.039  14.697  28.714  0.00  0.00    +0.159 HD
ATOM      9  H   UNL     1     -15.205  15.484  29.705  0.00  0.00    +0.159 HD
ENDROOT
BRANCH   1  10
ATOM     10  C   UNL     1     -13.591  12.182  28.447  0.00  0.00    +0.151 C 
BRANCH  10  11
ATOM     11  C   UNL     1     -12.674  11.043  28.796  0.00  0.00    -0.028 A 
ATOM     12  C   UNL     1     -13.103  10.022  29.657  0.00  0.00    +0.005 A 
ATOM     13  C   UNL     1     -11.378  10.975  28.264  0.00  0.00    +0.005 A 
ATOM     14  C   UNL     1     -12.262   8.948  29.958  0.00  0.00    +0.000 A 
ATOM     15  C   UNL     1     -10.541   9.901  28.568  0.00  0.00    +0.000 A 
ATOM     16  C   UNL     1     -10.984   8.886  29.412  0.00  0.00    +0.000 A 
ENDBRANCH  10  11
ENDBRANCH   1  10
TORSDOF 2
ENDMDL
MODEL 9
REMARK VINA RESULT:    -4.652     20.111     21.442
REMARK INTER + INTRA:          -5.289
REMARK INTER:                  -5.120
REMARK INTRA:                  -0.169
REMARK UNBOUND:                -0.093
REMARK  Name = 1550473
REMARK  2 active torsions:
REMARK  status: ('A' for Active; 'I' for Inactive)
REMARK    1  A    between atoms: N_1  and  C_4
REMARK    2  A    between atoms: C_4  and  C_5
REMARK                            x       y       z     vdW  Elec       q    Type
REMARK                         _______ _______ _______ _____ _____    ______ ____
ROOT
ATOM      1  N   UNL     1     -13.470   7.323  12.728  0.00  0.00    -0.354 N 
ATOM      2  N   UNL     1     -14.711   9.117  13.507  0.00  0.00    -0.372 N 
ATOM      3  N   UNL     1     -13.100   8.210  14.865  0.00  0.00    -0.372 N 
ATOM      4  C   UNL     1     -13.751   8.204  13.697  0.00  0.00    +0.166 C 
ATOM      5  H   UNL     1     -14.020   7.352  11.877  0.00  0.00    +0.163 HD
ATOM      6  H   UNL     1     -14.943   9.797  14.219  0.00  0.00    +0.159 HD
ATOM      7  H   UNL     1     -15.228   9.172  12.638  0.00  0.00    +0.159 HD
ATOM      8  H   UNL     1     -12.368   7.544  15.074  0.00  0.00    +0.159 HD
ATOM      9  H   UNL     1     -13.325   8.875  15.595  0.00  0.00    +0.159 HD
ENDROOT
BRANCH   1  10
ATOM     10  C   UNL     1     -12.407   6.324  12.814  0.00  0.00    +0.151 C 
BRANCH  10  11
ATOM     11  C   UNL     1     -13.003   5.006  13.227  0.00  0.00    -0.028 A 
ATOM     12  C   UNL     1     -13.603   4.168  12.277  0.00  0.00    +0.005 A 
ATOM     13  C   UNL     1     -12.966   4.589  14.566  0.00  0.00    +0.005 A 
ATOM     14  C   UNL     1     -14.130   2.930  12.654  0.00  0.00    +0.000 A 
ATOM     15  C   UNL     1     -13.494   3.353  14.940  0.00  0.00    +0.000 A 
ATOM     16  C   UNL     1     -14.074   2.523  13.983  0.00  0.00    +0.000 A 
ENDBRANCH  10  11
ENDBRANCH   1  10
TORSDOF 2
ENDMDL
