MODEL 1
REMARK VINA RESULT:    -7.218      0.000      0.000
REMARK INTER + INTRA:          -8.193
REMARK INTER:                  -8.062
REMARK INTRA:                  -0.131
REMARK UNBOUND:                -0.131
REMARK  Name = 1550473
REMARK  2 active torsions:
REMARK  status: ('A' for Active; 'I' for Inactive)
REMARK    1  A    between atoms: N_1  and  C_4
REMARK    2  A    between atoms: C_4  and  C_5
REMARK                            x       y       z     vdW  Elec       q    Type
REMARK                         _______ _______ _______ _____ _____    ______ ____
ROOT
ATOM      1  N   UNL     1      -7.732  -1.190  -6.623  0.00  0.00    -0.354 N 
ATOM      2  N   UNL     1      -8.651  -3.316  -6.656  0.00  0.00    -0.372 N 
ATOM      3  N   UNL     1      -7.770  -2.518  -4.693  0.00  0.00    -0.372 N 
ATOM      4  C   UNL     1      -8.044  -2.327  -5.988  0.00  0.00    +0.166 C 
ATOM      5  H   UNL     1      -7.939  -1.119  -7.613  0.00  0.00    +0.163 HD
ATOM      6  H   UNL     1      -8.902  -4.184  -6.202  0.00  0.00    +0.159 HD
ATOM      7  H   UNL     1      -8.899  -3.224  -7.634  0.00  0.00    +0.159 HD
ATOM      8  H   UNL     1      -7.308  -1.813  -4.134  0.00  0.00    +0.159 HD
ATOM      9  H   UNL     1      -8.003  -3.385  -4.224  0.00  0.00    +0.159 HD
ENDROOT
BRANCH   1  10
ATOM     10  C   UNL     1      -7.119  -0.033  -5.975  0.00  0.00    +0.151 C 
BRANCH  10  11
ATOM     11  C   UNL     1      -8.196   0.807  -5.346  0.00  0.00    -0.028 A 
ATOM     12  C   UNL     1      -9.293   1.242  -6.104  0.00  0.00    +0.005 A 
ATOM     13  C   UNL     1      -8.130   1.166  -3.991  0.00  0.00    +0.005 A 
ATOM     14  C   UNL     1     -10.310   1.996  -5.514  0.00  0.00    +0.000 A 
ATOM     15  C   UNL     1      -9.146   1.920  -3.405  0.00  0.00    +0.000 A 
ATOM     16  C   UNL     1     -10.237   2.333  -4.166  0.00  0.00    +0.000 A 
ENDBRANCH  10  11
ENDBRANCH   1  10
TORSDOF 2
ENDMDL
MODEL 2
REMARK VINA RESULT:    -6.535      1.860      2.860
REMARK INTER + INTRA:          -7.430
REMARK INTER:                  -7.275
REMARK INTRA:                  -0.155
REMARK UNBOUND:                -0.131
REMARK  Name = 1550473
REMARK  2 active torsions:
REMARK  status: ('A' for Active; 'I' for Inactive)
REMARK    1  A    between atoms: N_1  and  C_4
REMARK    2  A    between atoms: C_4  and  C_5
REMARK                            x       y       z     vdW  Elec       q    Type
REMARK                         _______ _______ _______ _____ _____    ______ ____
ROOT
ATOM      1  N   UNL     1      -9.907  -0.678  -6.953  0.00  0.00    -0.354 N 
ATOM      2  N   UNL     1     -10.352  -2.836  -7.667  0.00  0.00    -0.372 N 
ATOM      3  N   UNL     1     -11.243  -2.119  -5.678  0.00  0.00    -0.372 N 
ATOM      4  C   UNL     1     -10.499  -1.864  -6.759  0.00  0.00    +0.166 C 
ATOM      5  H   UNL     1      -9.331  -0.558  -7.779  0.00  0.00    +0.163 HD
ATOM      6  H   UNL     1     -10.790  -3.740  -7.549  0.00  0.00    +0.159 HD
ATOM      7  H   UNL     1      -9.814  -2.698  -8.513  0.00  0.00    +0.159 HD
ATOM      8  H   UNL     1     -11.389  -1.430  -4.952  0.00  0.00    +0.159 HD
ATOM      9  H   UNL     1     -11.680  -3.022  -5.536  0.00  0.00    +0.159 HD
ENDROOT
BRANCH   1  10
ATOM     10  C   UNL     1     -10.048   0.464  -6.052  0.00  0.00    +0.151 C 
BRANCH  10  11
ATOM     11  C   UNL     1      -8.799   0.595  -5.225  0.00  0.00    -0.028 A 
ATOM     12  C   UNL     1      -8.847   1.176  -3.950  0.00  0.00    +0.005 A 
ATOM     13  C   UNL     1      -7.565   0.134  -5.709  0.00  0.00    +0.005 A 
ATOM     14  C   UNL     1      -7.692   1.270  -3.169  0.00  0.00    +0.000 A 
ATOM     15  C   UNL     1      -6.414   0.231  -4.927  0.00  0.00    +0.000 A 
ATOM     16  C   UNL     1      -6.478   0.796  -3.656  0.00  0.00    +0.000 A 
ENDBRANCH  10  11
ENDBRANCH   1  10
TORSDOF 2
ENDMDL
MODEL 3
REMARK VINA RESULT:    -5.694     10.491     12.125
REMARK INTER + INTRA:          -6.491
REMARK INTER:                  -6.337
REMARK INTRA:                  -0.154
REMARK UNBOUND:                -0.131
REMARK  Name = 1550473
REMARK  2 active torsions:
REMARK  status: ('A' for Active; 'I' for Inactive)
REMARK    1  A    between atoms: N_1  and  C_4
REMARK    2  A    between atoms: C_4  and  C_5
REMARK                            x       y       z     vdW  Elec       q    Type
REMARK                         _______ _______ _______ _____ _____    ______ ____
ROOT
ATOM      1  N   UNL     1     -18.151  -8.562  -6.426  0.00  0.00    -0.354 N 
ATOM      2  N   UNL     1     -20.099  -7.794  -5.436  0.00  0.00    -0.372 N 
ATOM      3  N   UNL     1     -20.090  -8.204  -7.693  0.00  0.00    -0.372 N 
ATOM      4  C   UNL     1     -19.435  -8.192  -6.527  0.00  0.00    +0.166 C 
ATOM      5  H   UNL     1     -17.703  -8.501  -5.519  0.00  0.00    +0.163 HD
ATOM      6  H   UNL     1     -21.069  -7.512  -5.481  0.00  0.00    +0.159 HD
ATOM      7  H   UNL     1     -19.662  -7.778  -4.522  0.00  0.00    +0.159 HD
ATOM      8  H   UNL     1     -19.644  -8.488  -8.555  0.00  0.00    +0.159 HD
ATOM      9  H   UNL     1     -21.058  -7.914  -7.761  0.00  0.00    +0.159 HD
ENDROOT
BRANCH   1  10
ATOM     10  C   UNL     1     -17.354  -9.062  -7.544  0.00  0.00    +0.151 C 
BRANCH  10  11
ATOM     11  C   UNL     1     -16.235  -8.096  -7.820  0.00  0.00    -0.028 A 
ATOM     12  C   UNL     1     -16.283  -7.251  -8.938  0.00  0.00    +0.005 A 
ATOM     13  C   UNL     1     -15.126  -8.016  -6.963  0.00  0.00    +0.005 A 
ATOM     14  C   UNL     1     -15.259  -6.332  -9.179  0.00  0.00    +0.000 A 
ATOM     15  C   UNL     1     -14.104  -7.099  -7.207  0.00  0.00    +0.000 A 
ATOM     16  C   UNL     1     -14.172  -6.255  -8.313  0.00  0.00    +0.000 A 
ENDBRANCH  10  11
ENDBRANCH   1  10
TORSDOF 2
ENDMDL
MODEL 4
REMARK VINA RESULT:    -5.603      5.811      8.054
REMARK INTER + INTRA:          -6.389
REMARK INTER:                  -6.268
REMARK INTRA:                  -0.121
REMARK UNBOUND:                -0.131
REMARK  Name = 1550473
REMARK  2 active torsions:
REMARK  status: ('A' for Active; 'I' for Inactive)
REMARK    1  A    between atoms: N_1  and  C_4
REMARK    2  A    between atoms: C_4  and  C_5
REMARK                            x       y       z     vdW  Elec       q    Type
REMARK                         _______ _______ _______ _____ _____    ______ ____
ROOT
ATOM      1  N   UNL     1     -10.874  -4.703  -5.862  0.00  0.00    -0.354 N 
ATOM      2  N   UNL     1     -10.422  -2.551  -5.133  0.00  0.00    -0.372 N 
ATOM      3  N   UNL     1      -8.921  -4.221  -4.660  0.00  0.00    -0.372 N 
ATOM      4  C   UNL     1     -10.073  -3.841  -5.222  0.00  0.00    +0.166 C 
ATOM      5  H   UNL     1     -11.749  -4.357  -6.241  0.00  0.00    +0.163 HD
ATOM      6  H   UNL     1      -9.836  -1.877  -4.660  0.00  0.00    +0.159 HD
ATOM      7  H   UNL     1     -11.274  -2.200  -5.552  0.00  0.00    +0.159 HD
ATOM      8  H   UNL     1      -8.604  -5.181  -4.687  0.00  0.00    +0.159 HD
ATOM      9  H   UNL     1      -8.327  -3.564  -4.171  0.00  0.00    +0.159 HD
ENDROOT
BRANCH   1  10
ATOM     10  C   UNL     1     -10.561  -6.117  -6.062  0.00  0.00    +0.151 C 
BRANCH  10  11
ATOM     11  C   UNL     1     -11.822  -6.854  -6.419  0.00  0.00    -0.028 A 
ATOM     12  C   UNL     1     -12.931  -6.162  -6.927  0.00  0.00    +0.005 A 
ATOM     13  C   UNL     1     -11.912  -8.245  -6.257  0.00  0.00    +0.005 A 
ATOM     14  C   UNL     1     -14.093  -6.850  -7.287  0.00  0.00    +0.000 A 
ATOM     15  C   UNL     1     -13.074  -8.928  -6.617  0.00  0.00    +0.000 A 
ATOM     16  C   UNL     1     -14.163  -8.230  -7.134  0.00  0.00    +0.000 A 
ENDBRANCH  10  11
ENDBRANCH   1  10
TORSDOF 2
ENDMDL
MODEL 5
REMARK VINA RESULT:    -5.596     10.439     12.138
REMARK INTER + INTRA:          -6.382
REMARK INTER:                  -6.249
REMARK INTRA:                  -0.133
REMARK UNBOUND:                -0.131
REMARK  Name = 1550473
REMARK  2 active torsions:
REMARK  status: ('A' for Active; 'I' for Inactive)
REMARK    1  A    between atoms: N_1  and  C_4
REMARK    2  A    between atoms: C_4  and  C_5
REMARK                            x       y       z     vdW  Elec       q    Type
REMARK                         _______ _______ _______ _____ _____    ______ ____
ROOT
ATOM      1  N   UNL     1     -18.146  -8.179  -6.197  0.00  0.00    -0.354 N 
ATOM      2  N   UNL     1     -20.051  -7.395  -5.139  0.00  0.00    -0.372 N 
ATOM      3  N   UNL     1     -20.225  -8.200  -7.280  0.00  0.00    -0.372 N 
ATOM      4  C   UNL     1     -19.463  -7.930  -6.215  0.00  0.00    +0.166 C 
ATOM      5  H   UNL     1     -17.619  -7.923  -5.370  0.00  0.00    +0.163 HD
ATOM      6  H   UNL     1     -21.043  -7.199  -5.121  0.00  0.00    +0.159 HD
ATOM      7  H   UNL     1     -19.530  -7.183  -4.296  0.00  0.00    +0.159 HD
ATOM      8  H   UNL     1     -19.841  -8.600  -8.126  0.00  0.00    +0.159 HD
ATOM      9  H   UNL     1     -21.217  -8.001  -7.286  0.00  0.00    +0.159 HD
ENDROOT
BRANCH   1  10
ATOM     10  C   UNL     1     -17.419  -8.810  -7.297  0.00  0.00    +0.151 C 
BRANCH  10  11
ATOM     11  C   UNL     1     -16.292  -7.909  -7.722  0.00  0.00    -0.028 A 
ATOM     12  C   UNL     1     -15.132  -7.803  -6.940  0.00  0.00    +0.005 A 
ATOM     13  C   UNL     1     -16.376  -7.162  -8.907  0.00  0.00    +0.005 A 
ATOM     14  C   UNL     1     -14.073  -6.990  -7.349  0.00  0.00    +0.000 A 
ATOM     15  C   UNL     1     -15.316  -6.351  -9.311  0.00  0.00    +0.000 A 
ATOM     16  C   UNL     1     -14.164  -6.266  -8.534  0.00  0.00    +0.000 A 
ENDBRANCH  10  11
ENDBRANCH   1  10
TORSDOF 2
ENDMDL
MODEL 6
REMARK VINA RESULT:    -5.395     18.167     20.101
REMARK INTER + INTRA:          -6.157
REMARK INTER:                  -6.052
REMARK INTRA:                  -0.105
REMARK UNBOUND:                -0.131
REMARK  Name = 1550473
REMARK  2 active torsions:
REMARK  status: ('A' for Active; 'I' for Inactive)
REMARK    1  A    between atoms: N_1  and  C_4
REMARK    2  A    between atoms: C_4  and  C_5
REMARK                            x       y       z     vdW  Elec       q    Type
REMARK                         _______ _______ _______ _____ _____    ______ ____
ROOT
ATOM      1  N   UNL     1       3.328 -17.169  -9.075  0.00  0.00    -0.354 N 
ATOM      2  N   UNL     1       5.593 -17.305  -9.536  0.00  0.00    -0.372 N 
ATOM      3  N   UNL     1       4.221 -19.021 -10.199  0.00  0.00    -0.372 N 
ATOM      4  C   UNL     1       4.365 -17.833  -9.601  0.00  0.00    +0.166 C 
ATOM      5  H   UNL     1       3.507 -16.287  -8.609  0.00  0.00    +0.163 HD
ATOM      6  H   UNL     1       6.395 -17.781  -9.927  0.00  0.00    +0.159 HD
ATOM      7  H   UNL     1       5.763 -16.402  -9.110  0.00  0.00    +0.159 HD
ATOM      8  H   UNL     1       3.322 -19.476 -10.276  0.00  0.00    +0.159 HD
ATOM      9  H   UNL     1       5.013 -19.518 -10.586  0.00  0.00    +0.159 HD
ENDROOT
BRANCH   1  10
ATOM     10  C   UNL     1       1.942 -17.631  -9.140  0.00  0.00    +0.151 C 
BRANCH  10  11
ATOM     11  C   UNL     1       1.033 -16.441  -9.278  0.00  0.00    -0.028 A 
ATOM     12  C   UNL     1       0.991 -15.458  -8.278  0.00  0.00    +0.005 A 
ATOM     13  C   UNL     1       0.216 -16.287 -10.408  0.00  0.00    +0.005 A 
ATOM     14  C   UNL     1       0.169 -14.338  -8.419  0.00  0.00    +0.000 A 
ATOM     15  C   UNL     1      -0.604 -15.167 -10.545  0.00  0.00    +0.000 A 
ATOM     16  C   UNL     1      -0.625 -14.192  -9.551  0.00  0.00    +0.000 A 
ENDBRANCH  10  11
ENDBRANCH   1  10
TORSDOF 2
ENDMDL
MODEL 7
REMARK VINA RESULT:    -5.362     12.677     14.128
REMARK INTER + INTRA:          -6.120
REMARK INTER:                  -5.987
REMARK INTRA:                  -0.132
REMARK UNBOUND:                -0.131
REMARK  Name = 1550473
REMARK  2 active torsions:
REMARK  status: ('A' for Active; 'I' for Inactive)
REMARK    1  A    between atoms: N_1  and  C_4
REMARK    2  A    between atoms: C_4  and  C_5
REMARK                            x       y       z     vdW  Elec       q    Type
REMARK                         _______ _______ _______ _____ _____    ______ ____
ROOT
ATOM      1  N   UNL     1     -20.201  -8.819  -5.666  0.00  0.00    -0.354 N 
ATOM      2  N   UNL     1     -21.104  -8.550  -3.550  0.00  0.00    -0.372 N 
ATOM      3  N   UNL     1     -22.390  -8.035  -5.380  0.00  0.00    -0.372 N 
ATOM      4  C   UNL     1     -21.228  -8.469  -4.881  0.00  0.00    +0.166 C 
ATOM      5  H   UNL     1     -19.336  -9.111  -5.225  0.00  0.00    +0.163 HD
ATOM      6  H   UNL     1     -21.863  -8.295  -2.933  0.00  0.00    +0.159 HD
ATOM      7  H   UNL     1     -20.254  -8.885  -3.114  0.00  0.00    +0.159 HD
ATOM      8  H   UNL     1     -22.546  -7.945  -6.375  0.00  0.00    +0.159 HD
ATOM      9  H   UNL     1     -23.158  -7.764  -4.777  0.00  0.00    +0.159 HD
ENDROOT
BRANCH   1  10
ATOM     10  C   UNL     1     -20.251  -8.819  -7.127  0.00  0.00    +0.151 C 
BRANCH  10  11
ATOM     11  C   UNL     1     -18.887  -8.483  -7.665  0.00  0.00    -0.028 A 
ATOM     12  C   UNL     1     -18.660  -8.434  -9.048  0.00  0.00    +0.005 A 
ATOM     13  C   UNL     1     -17.820  -8.207  -6.797  0.00  0.00    +0.005 A 
ATOM     14  C   UNL     1     -17.401  -8.092  -9.549  0.00  0.00    +0.000 A 
ATOM     15  C   UNL     1     -16.564  -7.867  -7.301  0.00  0.00    +0.000 A 
ATOM     16  C   UNL     1     -16.356  -7.807  -8.677  0.00  0.00    +0.000 A 
ENDBRANCH  10  11
ENDBRANCH   1  10
TORSDOF 2
ENDMDL
MODEL 8
REMARK VINA RESULT:    -5.267      8.635     10.492
REMARK INTER + INTRA:          -6.015
REMARK INTER:                  -5.876
REMARK INTRA:                  -0.139
REMARK UNBOUND:                -0.131
REMARK  Name = 1550473
REMARK  2 active torsions:
REMARK  status: ('A' for Active; 'I' for Inactive)
REMARK    1  A    between atoms: N_1  and  C_4
REMARK    2  A    between atoms: C_4  and  C_5
REMARK                            x       y       z     vdW  Elec       q    Type
REMARK                         _______ _______ _______ _____ _____    ______ ____
ROOT
ATOM      1  N   UNL     1     -15.706  -8.803  -7.315  0.00  0.00    -0.354 N 
ATOM      2  N   UNL     1     -17.323 -10.339  -6.689  0.00  0.00    -0.372 N 
ATOM      3  N   UNL     1     -17.763  -8.102  -6.438  0.00  0.00    -0.372 N 
ATOM      4  C   UNL     1     -16.922  -9.069  -6.817  0.00  0.00    +0.166 C 
ATOM      5  H   UNL     1     -15.104  -9.582  -7.555  0.00  0.00    +0.163 HD
ATOM      6  H   UNL     1     -18.236 -10.571  -6.320  0.00  0.00    +0.159 HD
ATOM      7  H   UNL     1     -16.736 -11.115  -6.974  0.00  0.00    +0.159 HD
ATOM      8  H   UNL     1     -17.518  -7.123  -6.503  0.00  0.00    +0.159 HD
ATOM      9  H   UNL     1     -18.676  -8.313  -6.056  0.00  0.00    +0.159 HD
ENDROOT
BRANCH   1  10
ATOM     10  C   UNL     1     -15.194  -7.453  -7.545  0.00  0.00    +0.151 C 
BRANCH  10  11
ATOM     11  C   UNL     1     -13.775  -7.376  -7.055  0.00  0.00    -0.028 A 
ATOM     12  C   UNL     1     -13.098  -6.148  -7.023  0.00  0.00    +0.005 A 
ATOM     13  C   UNL     1     -13.102  -8.527  -6.617  0.00  0.00    +0.005 A 
ATOM     14  C   UNL     1     -11.790  -6.071  -6.540  0.00  0.00    +0.000 A 
ATOM     15  C   UNL     1     -11.795  -8.447  -6.136  0.00  0.00    +0.000 A 
ATOM     16  C   UNL     1     -11.140  -7.218  -6.095  0.00  0.00    +0.000 A 
ENDBRANCH  10  11
ENDBRANCH   1  10
TORSDOF 2
ENDMDL
MODEL 9
REMARK VINA RESULT:    -5.042      8.374     10.091
REMARK INTER + INTRA:          -5.763
REMARK INTER:                  -5.617
REMARK INTRA:                  -0.146
REMARK UNBOUND:                -0.131
REMARK  Name = 1550473
REMARK  2 active torsions:
REMARK  status: ('A' for Active; 'I' for Inactive)
REMARK    1  A    between atoms: N_1  and  C_4
REMARK    2  A    between atoms: C_4  and  C_5
REMARK                            x       y       z     vdW  Elec       q    Type
REMARK                         _______ _______ _______ _____ _____    ______ ____
ROOT
ATOM      1  N   UNL     1     -14.839  -8.675  -8.724  0.00  0.00    -0.354 N 
ATOM      2  N   UNL     1     -15.971  -8.064 -10.649  0.00  0.00    -0.372 N 
ATOM      3  N   UNL     1     -16.896  -7.559  -8.611  0.00  0.00    -0.372 N 
ATOM      4  C   UNL     1     -15.897  -8.103  -9.314  0.00  0.00    +0.166 C 
ATOM      5  H   UNL     1     -14.129  -9.096  -9.312  0.00  0.00    +0.163 HD
ATOM      6  H   UNL     1     -16.756  -7.636 -11.123  0.00  0.00    +0.159 HD
ATOM      7  H   UNL     1     -15.238  -8.445 -11.235  0.00  0.00    +0.159 HD
ATOM      8  H   UNL     1     -16.903  -7.561  -7.600  0.00  0.00    +0.159 HD
ATOM      9  H   UNL     1     -17.696  -7.137  -9.067  0.00  0.00    +0.159 HD
ENDROOT
BRANCH   1  10
ATOM     10  C   UNL     1     -14.635  -8.721  -7.277  0.00  0.00    +0.151 C 
BRANCH  10  11
ATOM     11  C   UNL     1     -13.478  -7.832  -6.915  0.00  0.00    -0.028 A 
ATOM     12  C   UNL     1     -12.292  -8.379  -6.404  0.00  0.00    +0.005 A 
ATOM     13  C   UNL     1     -13.559  -6.441  -7.086  0.00  0.00    +0.005 A 
ATOM     14  C   UNL     1     -11.206  -7.557  -6.096  0.00  0.00    +0.000 A 
ATOM     15  C   UNL     1     -12.472  -5.623  -6.776  0.00  0.00    +0.000 A 
ATOM     16  C   UNL     1     -11.295  -6.181  -6.283  0.00  0.00    +0.000 A 
ENDBRANCH  10  11
ENDBRANCH   1  10
TORSDOF 2
ENDMDL
