MODEL 1
REMARK VINA RESULT:    -5.620      0.000      0.000
REMARK INTER + INTRA:          -6.397
REMARK INTER:                  -6.277
REMARK INTRA:                  -0.120
REMARK UNBOUND:                -0.120
REMARK  Name = 1550473
REMARK  2 active torsions:
REMARK  status: ('A' for Active; 'I' for Inactive)
REMARK    1  A    between atoms: N_1  and  C_4
REMARK    2  A    between atoms: C_4  and  C_5
REMARK                            x       y       z     vdW  Elec       q    Type
REMARK                         _______ _______ _______ _____ _____    ______ ____
ROOT
ATOM      1  N   UNL     1      -9.639   2.613  -5.072  0.00  0.00    -0.354 N 
ATOM      2  N   UNL     1     -11.861   2.904  -4.486  0.00  0.00    -0.372 N 
ATOM      3  N   UNL     1     -11.270   1.056  -5.711  0.00  0.00    -0.372 N 
ATOM      4  C   UNL     1     -10.909   2.187  -5.095  0.00  0.00    +0.166 C 
ATOM      5  H   UNL     1      -9.435   3.494  -4.614  0.00  0.00    +0.163 HD
ATOM      6  H   UNL     1     -12.827   2.606  -4.484  0.00  0.00    +0.159 HD
ATOM      7  H   UNL     1     -11.647   3.761  -3.990  0.00  0.00    +0.159 HD
ATOM      8  H   UNL     1     -10.600   0.472  -6.194  0.00  0.00    +0.159 HD
ATOM      9  H   UNL     1     -12.233   0.747  -5.729  0.00  0.00    +0.159 HD
ENDROOT
BRANCH   1  10
ATOM     10  C   UNL     1      -8.519   1.879  -5.658  0.00  0.00    +0.151 C 
BRANCH  10  11
ATOM     11  C   UNL     1      -7.609   1.410  -4.556  0.00  0.00    -0.028 A 
ATOM     12  C   UNL     1      -8.118   0.673  -3.477  0.00  0.00    +0.005 A 
ATOM     13  C   UNL     1      -6.235   1.694  -4.589  0.00  0.00    +0.005 A 
ATOM     14  C   UNL     1      -7.269   0.211  -2.469  0.00  0.00    +0.000 A 
ATOM     15  C   UNL     1      -5.390   1.232  -3.580  0.00  0.00    +0.000 A 
ATOM     16  C   UNL     1      -5.907   0.489  -2.522  0.00  0.00    +0.000 A 
ENDBRANCH  10  11
ENDBRANCH   1  10
TORSDOF 2
ENDMDL
MODEL 2
REMARK VINA RESULT:    -5.507      3.386      4.247
REMARK INTER + INTRA:          -6.271
REMARK INTER:                  -6.175
REMARK INTRA:                  -0.096
REMARK UNBOUND:                -0.120
REMARK  Name = 1550473
REMARK  2 active torsions:
REMARK  status: ('A' for Active; 'I' for Inactive)
REMARK    1  A    between atoms: N_1  and  C_4
REMARK    2  A    between atoms: C_4  and  C_5
REMARK                            x       y       z     vdW  Elec       q    Type
REMARK                         _______ _______ _______ _____ _____    ______ ____
ROOT
ATOM      1  N   UNL     1      -8.649   1.216  -0.498  0.00  0.00    -0.354 N 
ATOM      2  N   UNL     1      -9.809   2.239   1.226  0.00  0.00    -0.372 N 
ATOM      3  N   UNL     1      -9.516  -0.036   1.284  0.00  0.00    -0.372 N 
ATOM      4  C   UNL     1      -9.318   1.130   0.660  0.00  0.00    +0.166 C 
ATOM      5  H   UNL     1      -8.559   2.126  -0.935  0.00  0.00    +0.163 HD
ATOM      6  H   UNL     1     -10.315   2.206   2.101  0.00  0.00    +0.159 HD
ATOM      7  H   UNL     1      -9.678   3.153   0.810  0.00  0.00    +0.159 HD
ATOM      8  H   UNL     1      -9.176  -0.910   0.906  0.00  0.00    +0.159 HD
ATOM      9  H   UNL     1     -10.030  -0.091   2.154  0.00  0.00    +0.159 HD
ENDROOT
BRANCH   1  10
ATOM     10  C   UNL     1      -8.028   0.076  -1.170  0.00  0.00    +0.151 C 
BRANCH  10  11
ATOM     11  C   UNL     1      -7.386   0.547  -2.445  0.00  0.00    -0.028 A 
ATOM     12  C   UNL     1      -8.175   0.990  -3.517  0.00  0.00    +0.005 A 
ATOM     13  C   UNL     1      -5.990   0.559  -2.586  0.00  0.00    +0.005 A 
ATOM     14  C   UNL     1      -7.579   1.456  -4.692  0.00  0.00    +0.000 A 
ATOM     15  C   UNL     1      -5.399   1.025  -3.761  0.00  0.00    +0.000 A 
ATOM     16  C   UNL     1      -6.193   1.475  -4.812  0.00  0.00    +0.000 A 
ENDBRANCH  10  11
ENDBRANCH   1  10
TORSDOF 2
ENDMDL
MODEL 3
REMARK VINA RESULT:    -5.232      2.618      4.717
REMARK INTER + INTRA:          -5.964
REMARK INTER:                  -5.929
REMARK INTRA:                  -0.035
REMARK UNBOUND:                -0.120
REMARK  Name = 1550473
REMARK  2 active torsions:
REMARK  status: ('A' for Active; 'I' for Inactive)
REMARK    1  A    between atoms: N_1  and  C_4
REMARK    2  A    between atoms: C_4  and  C_5
REMARK                            x       y       z     vdW  Elec       q    Type
REMARK                         _______ _______ _______ _____ _____    ______ ____
ROOT
ATOM      1  N   UNL     1      -6.946   1.926  -3.239  0.00  0.00    -0.354 N 
ATOM      2  N   UNL     1      -4.802   2.797  -3.163  0.00  0.00    -0.372 N 
ATOM      3  N   UNL     1      -5.108   0.675  -3.979  0.00  0.00    -0.372 N 
ATOM      4  C   UNL     1      -5.632   1.791  -3.462  0.00  0.00    +0.166 C 
ATOM      5  H   UNL     1      -7.277   2.786  -2.817  0.00  0.00    +0.163 HD
ATOM      6  H   UNL     1      -3.806   2.726  -3.323  0.00  0.00    +0.159 HD
ATOM      7  H   UNL     1      -5.140   3.673  -2.784  0.00  0.00    +0.159 HD
ATOM      8  H   UNL     1      -5.681  -0.123  -4.221  0.00  0.00    +0.159 HD
ATOM      9  H   UNL     1      -4.113   0.580  -4.136  0.00  0.00    +0.159 HD
ENDROOT
BRANCH   1  10
ATOM     10  C   UNL     1      -7.942   0.911  -3.579  0.00  0.00    +0.151 C 
BRANCH  10  11
ATOM     11  C   UNL     1      -8.695   1.353  -4.803  0.00  0.00    -0.028 A 
ATOM     12  C   UNL     1     -10.067   1.088  -4.929  0.00  0.00    +0.005 A 
ATOM     13  C   UNL     1      -8.045   2.042  -5.838  0.00  0.00    +0.005 A 
ATOM     14  C   UNL     1     -10.773   1.524  -6.053  0.00  0.00    +0.000 A 
ATOM     15  C   UNL     1      -8.753   2.475  -6.959  0.00  0.00    +0.000 A 
ATOM     16  C   UNL     1     -10.118   2.218  -7.064  0.00  0.00    +0.000 A 
ENDBRANCH  10  11
ENDBRANCH   1  10
TORSDOF 2
ENDMDL
MODEL 4
REMARK VINA RESULT:    -5.184      1.861      2.359
REMARK INTER + INTRA:          -5.910
REMARK INTER:                  -5.773
REMARK INTRA:                  -0.137
REMARK UNBOUND:                -0.120
REMARK  Name = 1550473
REMARK  2 active torsions:
REMARK  status: ('A' for Active; 'I' for Inactive)
REMARK    1  A    between atoms: N_1  and  C_4
REMARK    2  A    between atoms: C_4  and  C_5
REMARK                            x       y       z     vdW  Elec       q    Type
REMARK                         _______ _______ _______ _____ _____    ______ ____
ROOT
ATOM      1  N   UNL     1     -10.251   2.826  -7.073  0.00  0.00    -0.354 N 
ATOM      2  N   UNL     1     -11.302   4.694  -7.952  0.00  0.00    -0.372 N 
ATOM      3  N   UNL     1     -12.279   3.599  -6.187  0.00  0.00    -0.372 N 
ATOM      4  C   UNL     1     -11.272   3.693  -7.063  0.00  0.00    +0.166 C 
ATOM      5  H   UNL     1      -9.535   2.934  -7.781  0.00  0.00    +0.163 HD
ATOM      6  H   UNL     1     -12.058   5.366  -7.966  0.00  0.00    +0.159 HD
ATOM      7  H   UNL     1     -10.561   4.826  -8.629  0.00  0.00    +0.159 HD
ATOM      8  H   UNL     1     -12.319   2.864  -5.494  0.00  0.00    +0.159 HD
ATOM      9  H   UNL     1     -13.050   4.255  -6.193  0.00  0.00    +0.159 HD
ENDROOT
BRANCH   1  10
ATOM     10  C   UNL     1     -10.097   1.734  -6.113  0.00  0.00    +0.151 C 
BRANCH  10  11
ATOM     11  C   UNL     1      -8.796   1.906  -5.379  0.00  0.00    -0.028 A 
ATOM     12  C   UNL     1      -8.385   0.960  -4.428  0.00  0.00    +0.005 A 
ATOM     13  C   UNL     1      -7.967   3.009  -5.633  0.00  0.00    +0.005 A 
ATOM     14  C   UNL     1      -7.163   1.103  -3.767  0.00  0.00    +0.000 A 
ATOM     15  C   UNL     1      -6.748   3.149  -4.971  0.00  0.00    +0.000 A 
ATOM     16  C   UNL     1      -6.345   2.194  -4.040  0.00  0.00    +0.000 A 
ENDBRANCH  10  11
ENDBRANCH   1  10
TORSDOF 2
ENDMDL
MODEL 5
REMARK VINA RESULT:    -4.999      3.407      3.893
REMARK INTER + INTRA:          -5.703
REMARK INTER:                  -5.591
REMARK INTRA:                  -0.113
REMARK UNBOUND:                -0.120
REMARK  Name = 1550473
REMARK  2 active torsions:
REMARK  status: ('A' for Active; 'I' for Inactive)
REMARK    1  A    between atoms: N_1  and  C_4
REMARK    2  A    between atoms: C_4  and  C_5
REMARK                            x       y       z     vdW  Elec       q    Type
REMARK                         _______ _______ _______ _____ _____    ______ ____
ROOT
ATOM      1  N   UNL     1      -9.209   2.558  -0.657  0.00  0.00    -0.354 N 
ATOM      2  N   UNL     1     -10.260   2.433   1.403  0.00  0.00    -0.372 N 
ATOM      3  N   UNL     1     -10.558   4.310   0.118  0.00  0.00    -0.372 N 
ATOM      4  C   UNL     1     -10.003   3.104   0.274  0.00  0.00    +0.166 C 
ATOM      5  H   UNL     1      -8.794   1.653  -0.465  0.00  0.00    +0.163 HD
ATOM      6  H   UNL     1     -10.858   2.818   2.122  0.00  0.00    +0.159 HD
ATOM      7  H   UNL     1      -9.882   1.509   1.572  0.00  0.00    +0.159 HD
ATOM      8  H   UNL     1     -10.398   4.870  -0.709  0.00  0.00    +0.159 HD
ATOM      9  H   UNL     1     -11.150   4.718   0.831  0.00  0.00    +0.159 HD
ENDROOT
BRANCH   1  10
ATOM     10  C   UNL     1      -8.908   3.182  -1.944  0.00  0.00    +0.151 C 
BRANCH  10  11
ATOM     11  C   UNL     1      -7.663   2.560  -2.513  0.00  0.00    -0.028 A 
ATOM     12  C   UNL     1      -7.413   1.190  -2.349  0.00  0.00    +0.005 A 
ATOM     13  C   UNL     1      -6.732   3.335  -3.222  0.00  0.00    +0.005 A 
ATOM     14  C   UNL     1      -6.271   0.606  -2.903  0.00  0.00    +0.000 A 
ATOM     15  C   UNL     1      -5.593   2.748  -3.773  0.00  0.00    +0.000 A 
ATOM     16  C   UNL     1      -5.364   1.384  -3.616  0.00  0.00    +0.000 A 
ENDBRANCH  10  11
ENDBRANCH   1  10
TORSDOF 2
ENDMDL
MODEL 6
REMARK VINA RESULT:    -4.980      2.373      3.603
REMARK INTER + INTRA:          -5.682
REMARK INTER:                  -5.513
REMARK INTRA:                  -0.169
REMARK UNBOUND:                -0.120
REMARK  Name = 1550473
REMARK  2 active torsions:
REMARK  status: ('A' for Active; 'I' for Inactive)
REMARK    1  A    between atoms: N_1  and  C_4
REMARK    2  A    between atoms: C_4  and  C_5
REMARK                            x       y       z     vdW  Elec       q    Type
REMARK                         _______ _______ _______ _____ _____    ______ ____
ROOT
ATOM      1  N   UNL     1      -7.976   0.908  -4.216  0.00  0.00    -0.354 N 
ATOM      2  N   UNL     1      -8.979   1.792  -6.107  0.00  0.00    -0.372 N 
ATOM      3  N   UNL     1      -7.570   3.120  -4.875  0.00  0.00    -0.372 N 
ATOM      4  C   UNL     1      -8.167   1.936  -5.053  0.00  0.00    +0.166 C 
ATOM      5  H   UNL     1      -8.481   0.046  -4.390  0.00  0.00    +0.163 HD
ATOM      6  H   UNL     1      -9.140   2.549  -6.758  0.00  0.00    +0.159 HD
ATOM      7  H   UNL     1      -9.446   0.915  -6.304  0.00  0.00    +0.159 HD
ATOM      8  H   UNL     1      -6.951   3.295  -4.095  0.00  0.00    +0.159 HD
ATOM      9  H   UNL     1      -7.728   3.894  -5.509  0.00  0.00    +0.159 HD
ENDROOT
BRANCH   1  10
ATOM     10  C   UNL     1      -7.070   0.944  -3.069  0.00  0.00    +0.151 C 
BRANCH  10  11
ATOM     11  C   UNL     1      -7.882   0.975  -1.804  0.00  0.00    -0.028 A 
ATOM     12  C   UNL     1      -8.069  -0.192  -1.049  0.00  0.00    +0.005 A 
ATOM     13  C   UNL     1      -8.462   2.170  -1.351  0.00  0.00    +0.005 A 
ATOM     14  C   UNL     1      -8.798  -0.158   0.142  0.00  0.00    +0.000 A 
ATOM     15  C   UNL     1      -9.190   2.200  -0.161  0.00  0.00    +0.000 A 
ATOM     16  C   UNL     1      -9.355   1.037   0.586  0.00  0.00    +0.000 A 
ENDBRANCH  10  11
ENDBRANCH   1  10
TORSDOF 2
ENDMDL
MODEL 7
REMARK VINA RESULT:    -4.940      2.579      5.104
REMARK INTER + INTRA:          -5.638
REMARK INTER:                  -5.506
REMARK INTRA:                  -0.132
REMARK UNBOUND:                -0.120
REMARK  Name = 1550473
REMARK  2 active torsions:
REMARK  status: ('A' for Active; 'I' for Inactive)
REMARK    1  A    between atoms: N_1  and  C_4
REMARK    2  A    between atoms: C_4  and  C_5
REMARK                            x       y       z     vdW  Elec       q    Type
REMARK                         _______ _______ _______ _____ _____    ______ ____
ROOT
ATOM      1  N   UNL     1      -7.135   1.835  -4.719  0.00  0.00    -0.354 N 
ATOM      2  N   UNL     1      -5.788   1.109  -2.981  0.00  0.00    -0.372 N 
ATOM      3  N   UNL     1      -5.795   3.339  -3.521  0.00  0.00    -0.372 N 
ATOM      4  C   UNL     1      -6.248   2.102  -3.752  0.00  0.00    +0.166 C 
ATOM      5  H   UNL     1      -7.416   0.872  -4.863  0.00  0.00    +0.163 HD
ATOM      6  H   UNL     1      -5.120   1.280  -2.242  0.00  0.00    +0.159 HD
ATOM      7  H   UNL     1      -6.105   0.154  -3.098  0.00  0.00    +0.159 HD
ATOM      8  H   UNL     1      -6.099   4.131  -4.072  0.00  0.00    +0.159 HD
ATOM      9  H   UNL     1      -5.118   3.528  -2.793  0.00  0.00    +0.159 HD
ENDROOT
BRANCH   1  10
ATOM     10  C   UNL     1      -7.738   2.852  -5.579  0.00  0.00    +0.151 C 
BRANCH  10  11
ATOM     11  C   UNL     1      -9.133   2.423  -5.944  0.00  0.00    -0.028 A 
ATOM     12  C   UNL     1      -9.809   3.033  -7.010  0.00  0.00    +0.005 A 
ATOM     13  C   UNL     1      -9.781   1.403  -5.231  0.00  0.00    +0.005 A 
ATOM     14  C   UNL     1     -11.093   2.614  -7.369  0.00  0.00    +0.000 A 
ATOM     15  C   UNL     1     -11.063   0.988  -5.592  0.00  0.00    +0.000 A 
ATOM     16  C   UNL     1     -11.717   1.592  -6.662  0.00  0.00    +0.000 A 
ENDBRANCH  10  11
ENDBRANCH   1  10
TORSDOF 2
ENDMDL
MODEL 8
REMARK VINA RESULT:    -4.934      4.540      5.874
REMARK INTER + INTRA:          -5.630
REMARK INTER:                  -5.510
REMARK INTRA:                  -0.120
REMARK UNBOUND:                -0.120
REMARK  Name = 1550473
REMARK  2 active torsions:
REMARK  status: ('A' for Active; 'I' for Inactive)
REMARK    1  A    between atoms: N_1  and  C_4
REMARK    2  A    between atoms: C_4  and  C_5
REMARK                            x       y       z     vdW  Elec       q    Type
REMARK                         _______ _______ _______ _____ _____    ______ ____
ROOT
ATOM      1  N   UNL     1      -7.689   0.786  -1.085  0.00  0.00    -0.354 N 
ATOM      2  N   UNL     1      -6.169   0.553  -2.817  0.00  0.00    -0.372 N 
ATOM      3  N   UNL     1      -8.008   1.889  -3.128  0.00  0.00    -0.372 N 
ATOM      4  C   UNL     1      -7.300   1.079  -2.333  0.00  0.00    +0.166 C 
ATOM      5  H   UNL     1      -7.124   0.141  -0.544  0.00  0.00    +0.163 HD
ATOM      6  H   UNL     1      -5.848   0.758  -3.754  0.00  0.00    +0.159 HD
ATOM      7  H   UNL     1      -5.582  -0.055  -2.258  0.00  0.00    +0.159 HD
ATOM      8  H   UNL     1      -8.874   2.313  -2.825  0.00  0.00    +0.159 HD
ATOM      9  H   UNL     1      -7.709   2.098  -4.073  0.00  0.00    +0.159 HD
ENDROOT
BRANCH   1  10
ATOM     10  C   UNL     1      -8.877   1.348  -0.445  0.00  0.00    +0.151 C 
BRANCH  10  11
ATOM     11  C   UNL     1      -8.966   0.832   0.964  0.00  0.00    -0.028 A 
ATOM     12  C   UNL     1      -9.787   1.471   1.906  0.00  0.00    +0.005 A 
ATOM     13  C   UNL     1      -8.238  -0.299   1.363  0.00  0.00    +0.005 A 
ATOM     14  C   UNL     1      -9.893   0.974   3.207  0.00  0.00    +0.000 A 
ATOM     15  C   UNL     1      -8.347  -0.792   2.663  0.00  0.00    +0.000 A 
ATOM     16  C   UNL     1      -9.176  -0.156   3.584  0.00  0.00    +0.000 A 
ENDBRANCH  10  11
ENDBRANCH   1  10
TORSDOF 2
ENDMDL
MODEL 9
REMARK VINA RESULT:    -4.803      2.595      4.806
REMARK INTER + INTRA:          -5.485
REMARK INTER:                  -5.335
REMARK INTRA:                  -0.150
REMARK UNBOUND:                -0.120
REMARK  Name = 1550473
REMARK  2 active torsions:
REMARK  status: ('A' for Active; 'I' for Inactive)
REMARK    1  A    between atoms: N_1  and  C_4
REMARK    2  A    between atoms: C_4  and  C_5
REMARK                            x       y       z     vdW  Elec       q    Type
REMARK                         _______ _______ _______ _____ _____    ______ ____
ROOT
ATOM      1  N   UNL     1      -7.871   2.423  -4.299  0.00  0.00    -0.354 N 
ATOM      2  N   UNL     1      -6.950   3.929  -2.799  0.00  0.00    -0.372 N 
ATOM      3  N   UNL     1      -8.450   2.372  -2.028  0.00  0.00    -0.372 N 
ATOM      4  C   UNL     1      -7.765   2.897  -3.050  0.00  0.00    +0.166 C 
ATOM      5  H   UNL     1      -7.349   2.884  -5.035  0.00  0.00    +0.163 HD
ATOM      6  H   UNL     1      -6.847   4.306  -1.867  0.00  0.00    +0.159 HD
ATOM      7  H   UNL     1      -6.394   4.358  -3.529  0.00  0.00    +0.159 HD
ATOM      8  H   UNL     1      -9.086   1.596  -2.152  0.00  0.00    +0.159 HD
ATOM      9  H   UNL     1      -8.368   2.743  -1.090  0.00  0.00    +0.159 HD
ENDROOT
BRANCH   1  10
ATOM     10  C   UNL     1      -8.689   1.269  -4.668  0.00  0.00    +0.151 C 
BRANCH  10  11
ATOM     11  C   UNL     1      -9.743   1.707  -5.648  0.00  0.00    -0.028 A 
ATOM     12  C   UNL     1     -10.920   0.962  -5.808  0.00  0.00    +0.005 A 
ATOM     13  C   UNL     1      -9.573   2.870  -6.414  0.00  0.00    +0.005 A 
ATOM     14  C   UNL     1     -11.912   1.385  -6.695  0.00  0.00    +0.000 A 
ATOM     15  C   UNL     1     -10.565   3.289  -7.300  0.00  0.00    +0.000 A 
ATOM     16  C   UNL     1     -11.736   2.547  -7.439  0.00  0.00    +0.000 A 
ENDBRANCH  10  11
ENDBRANCH   1  10
TORSDOF 2
ENDMDL
