MODEL 1
REMARK VINA RESULT:    -5.361      0.000      0.000
REMARK INTER + INTRA:          -6.134
REMARK INTER:                  -5.988
REMARK INTRA:                  -0.146
REMARK UNBOUND:                -0.146
REMARK  Name = 1550473
REMARK  2 active torsions:
REMARK  status: ('A' for Active; 'I' for Inactive)
REMARK    1  A    between atoms: N_1  and  C_4
REMARK    2  A    between atoms: C_4  and  C_5
REMARK                            x       y       z     vdW  Elec       q    Type
REMARK                         _______ _______ _______ _____ _____    ______ ____
ROOT
ATOM      1  N   UNL     1     -10.449  -7.057 -11.447  0.00  0.00    -0.354 N 
ATOM      2  N   UNL     1      -8.322  -7.364 -12.310  0.00  0.00    -0.372 N 
ATOM      3  N   UNL     1     -10.106  -7.308 -13.752  0.00  0.00    -0.372 N 
ATOM      4  C   UNL     1      -9.641  -7.241 -12.500  0.00  0.00    +0.166 C 
ATOM      5  H   UNL     1     -10.037  -7.045 -10.521  0.00  0.00    +0.163 HD
ATOM      6  H   UNL     1      -7.687  -7.500 -13.086  0.00  0.00    +0.159 HD
ATOM      7  H   UNL     1      -7.908  -7.306 -11.388  0.00  0.00    +0.159 HD
ATOM      8  H   UNL     1     -11.092  -7.229 -13.961  0.00  0.00    +0.159 HD
ATOM      9  H   UNL     1      -9.488  -7.456 -14.540  0.00  0.00    +0.159 HD
ENDROOT
BRANCH   1  10
ATOM     10  C   UNL     1     -11.894  -6.858 -11.550  0.00  0.00    +0.151 C 
BRANCH  10  11
ATOM     11  C   UNL     1     -12.228  -5.456 -11.122  0.00  0.00    -0.028 A 
ATOM     12  C   UNL     1     -11.776  -4.357 -11.866  0.00  0.00    +0.005 A 
ATOM     13  C   UNL     1     -13.002  -5.220  -9.975  0.00  0.00    +0.005 A 
ATOM     14  C   UNL     1     -12.112  -3.055 -11.486  0.00  0.00    +0.000 A 
ATOM     15  C   UNL     1     -13.335  -3.919  -9.598  0.00  0.00    +0.000 A 
ATOM     16  C   UNL     1     -12.891  -2.837 -10.355  0.00  0.00    +0.000 A 
ENDBRANCH  10  11
ENDBRANCH   1  10
TORSDOF 2
ENDMDL
MODEL 2
REMARK VINA RESULT:    -5.297     27.645     28.564
REMARK INTER + INTRA:          -6.063
REMARK INTER:                  -5.925
REMARK INTRA:                  -0.138
REMARK UNBOUND:                -0.146
REMARK  Name = 1550473
REMARK  2 active torsions:
REMARK  status: ('A' for Active; 'I' for Inactive)
REMARK    1  A    between atoms: N_1  and  C_4
REMARK    2  A    between atoms: C_4  and  C_5
REMARK                            x       y       z     vdW  Elec       q    Type
REMARK                         _______ _______ _______ _____ _____    ______ ____
ROOT
ATOM      1  N   UNL     1      -6.581  -0.591  15.233  0.00  0.00    -0.354 N 
ATOM      2  N   UNL     1      -8.853  -0.628  14.782  0.00  0.00    -0.372 N 
ATOM      3  N   UNL     1      -8.153  -0.740  16.965  0.00  0.00    -0.372 N 
ATOM      4  C   UNL     1      -7.847  -0.653  15.666  0.00  0.00    +0.166 C 
ATOM      5  H   UNL     1      -6.415  -0.557  14.234  0.00  0.00    +0.163 HD
ATOM      6  H   UNL     1      -9.818  -0.670  15.079  0.00  0.00    +0.159 HD
ATOM      7  H   UNL     1      -8.685  -0.547  13.787  0.00  0.00    +0.159 HD
ATOM      8  H   UNL     1      -7.441  -0.770  17.681  0.00  0.00    +0.159 HD
ATOM      9  H   UNL     1      -9.113  -0.795  17.281  0.00  0.00    +0.159 HD
ENDROOT
BRANCH   1  10
ATOM     10  C   UNL     1      -5.416  -0.558  16.115  0.00  0.00    +0.151 C 
BRANCH  10  11
ATOM     11  C   UNL     1      -4.496   0.546  15.672  0.00  0.00    -0.028 A 
ATOM     12  C   UNL     1      -4.993   1.641  14.951  0.00  0.00    +0.005 A 
ATOM     13  C   UNL     1      -3.126   0.505  15.976  0.00  0.00    +0.005 A 
ATOM     14  C   UNL     1      -4.144   2.682  14.566  0.00  0.00    +0.000 A 
ATOM     15  C   UNL     1      -2.281   1.545  15.588  0.00  0.00    +0.000 A 
ATOM     16  C   UNL     1      -2.791   2.634  14.885  0.00  0.00    +0.000 A 
ENDBRANCH  10  11
ENDBRANCH   1  10
TORSDOF 2
ENDMDL
MODEL 3
REMARK VINA RESULT:    -5.248     51.073     51.941
REMARK INTER + INTRA:          -6.007
REMARK INTER:                  -5.890
REMARK INTRA:                  -0.117
REMARK UNBOUND:                -0.146
REMARK  Name = 1550473
REMARK  2 active torsions:
REMARK  status: ('A' for Active; 'I' for Inactive)
REMARK    1  A    between atoms: N_1  and  C_4
REMARK    2  A    between atoms: C_4  and  C_5
REMARK                            x       y       z     vdW  Elec       q    Type
REMARK                         _______ _______ _______ _____ _____    ______ ____
ROOT
ATOM      1  N   UNL     1      10.357   6.882  34.233  0.00  0.00    -0.354 N 
ATOM      2  N   UNL     1      10.587   5.013  35.582  0.00  0.00    -0.372 N 
ATOM      3  N   UNL     1      12.308   5.585  34.176  0.00  0.00    -0.372 N 
ATOM      4  C   UNL     1      11.085   5.839  34.654  0.00  0.00    +0.166 C 
ATOM      5  H   UNL     1       9.424   7.002  34.612  0.00  0.00    +0.163 HD
ATOM      6  H   UNL     1      11.115   4.220  35.922  0.00  0.00    +0.159 HD
ATOM      7  H   UNL     1       9.673   5.162  35.993  0.00  0.00    +0.159 HD
ATOM      8  H   UNL     1      12.738   6.167  33.470  0.00  0.00    +0.159 HD
ATOM      9  H   UNL     1      12.847   4.789  34.495  0.00  0.00    +0.159 HD
ENDROOT
BRANCH   1  10
ATOM     10  C   UNL     1      10.827   7.871  33.265  0.00  0.00    +0.151 C 
BRANCH  10  11
ATOM     11  C   UNL     1       9.871   9.031  33.243  0.00  0.00    -0.028 A 
ATOM     12  C   UNL     1       9.223   9.442  34.417  0.00  0.00    +0.005 A 
ATOM     13  C   UNL     1       9.612   9.726  32.052  0.00  0.00    +0.005 A 
ATOM     14  C   UNL     1       8.357  10.538  34.403  0.00  0.00    +0.000 A 
ATOM     15  C   UNL     1       8.746  10.820  32.042  0.00  0.00    +0.000 A 
ATOM     16  C   UNL     1       8.121  11.227  33.218  0.00  0.00    +0.000 A 
ENDBRANCH  10  11
ENDBRANCH   1  10
TORSDOF 2
ENDMDL
MODEL 4
REMARK VINA RESULT:    -5.244      1.898      2.457
REMARK INTER + INTRA:          -6.003
REMARK INTER:                  -5.885
REMARK INTRA:                  -0.119
REMARK UNBOUND:                -0.146
REMARK  Name = 1550473
REMARK  2 active torsions:
REMARK  status: ('A' for Active; 'I' for Inactive)
REMARK    1  A    between atoms: N_1  and  C_4
REMARK    2  A    between atoms: C_4  and  C_5
REMARK                            x       y       z     vdW  Elec       q    Type
REMARK                         _______ _______ _______ _____ _____    ______ ____
ROOT
ATOM      1  N   UNL     1     -11.944  -5.953 -13.401  0.00  0.00    -0.354 N 
ATOM      2  N   UNL     1     -12.342  -6.372 -15.643  0.00  0.00    -0.372 N 
ATOM      3  N   UNL     1     -10.467  -7.262 -14.665  0.00  0.00    -0.372 N 
ATOM      4  C   UNL     1     -11.579  -6.528 -14.555  0.00  0.00    +0.166 C 
ATOM      5  H   UNL     1     -12.782  -5.384 -13.390  0.00  0.00    +0.163 HD
ATOM      6  H   UNL     1     -12.095  -6.796 -16.527  0.00  0.00    +0.159 HD
ATOM      7  H   UNL     1     -13.204  -5.841 -15.619  0.00  0.00    +0.159 HD
ATOM      8  H   UNL     1      -9.845  -7.413 -13.882  0.00  0.00    +0.159 HD
ATOM      9  H   UNL     1     -10.196  -7.685 -15.544  0.00  0.00    +0.159 HD
ENDROOT
BRANCH   1  10
ATOM     10  C   UNL     1     -11.211  -6.106 -12.145  0.00  0.00    +0.151 C 
BRANCH  10  11
ATOM     11  C   UNL     1     -11.302  -4.823 -11.365  0.00  0.00    -0.028 A 
ATOM     12  C   UNL     1     -10.205  -4.362 -10.622  0.00  0.00    +0.005 A 
ATOM     13  C   UNL     1     -12.480  -4.061 -11.369  0.00  0.00    +0.005 A 
ATOM     14  C   UNL     1     -10.279  -3.156  -9.922  0.00  0.00    +0.000 A 
ATOM     15  C   UNL     1     -12.550  -2.858 -10.667  0.00  0.00    +0.000 A 
ATOM     16  C   UNL     1     -11.449  -2.404  -9.946  0.00  0.00    +0.000 A 
ENDBRANCH  10  11
ENDBRANCH   1  10
TORSDOF 2
ENDMDL
MODEL 5
REMARK VINA RESULT:    -5.227     41.884     42.849
REMARK INTER + INTRA:          -5.984
REMARK INTER:                  -5.862
REMARK INTRA:                  -0.123
REMARK UNBOUND:                -0.146
REMARK  Name = 1550473
REMARK  2 active torsions:
REMARK  status: ('A' for Active; 'I' for Inactive)
REMARK    1  A    between atoms: N_1  and  C_4
REMARK    2  A    between atoms: C_4  and  C_5
REMARK                            x       y       z     vdW  Elec       q    Type
REMARK                         _______ _______ _______ _____ _____    ______ ____
ROOT
ATOM      1  N   UNL     1       3.672   7.669  24.449  0.00  0.00    -0.354 N 
ATOM      2  N   UNL     1       2.764   5.698  25.259  0.00  0.00    -0.372 N 
ATOM      3  N   UNL     1       5.038   5.993  25.352  0.00  0.00    -0.372 N 
ATOM      4  C   UNL     1       3.834   6.466  25.015  0.00  0.00    +0.166 C 
ATOM      5  H   UNL     1       2.736   7.958  24.190  0.00  0.00    +0.163 HD
ATOM      6  H   UNL     1       2.855   4.787  25.688  0.00  0.00    +0.159 HD
ATOM      7  H   UNL     1       1.825   6.008  25.041  0.00  0.00    +0.159 HD
ATOM      8  H   UNL     1       5.885   6.520  25.189  0.00  0.00    +0.159 HD
ATOM      9  H   UNL     1       5.150   5.078  25.772  0.00  0.00    +0.159 HD
ENDROOT
BRANCH   1  10
ATOM     10  C   UNL     1       4.765   8.605  24.191  0.00  0.00    +0.151 C 
BRANCH  10  11
ATOM     11  C   UNL     1       4.717   9.711  25.209  0.00  0.00    -0.028 A 
ATOM     12  C   UNL     1       4.373  11.015  24.826  0.00  0.00    +0.005 A 
ATOM     13  C   UNL     1       5.008   9.459  26.558  0.00  0.00    +0.005 A 
ATOM     14  C   UNL     1       4.298  12.037  25.776  0.00  0.00    +0.000 A 
ATOM     15  C   UNL     1       4.933  10.482  27.504  0.00  0.00    +0.000 A 
ATOM     16  C   UNL     1       4.576  11.770  27.113  0.00  0.00    +0.000 A 
ENDBRANCH  10  11
ENDBRANCH   1  10
TORSDOF 2
ENDMDL
MODEL 6
REMARK VINA RESULT:    -5.205     51.908     52.727
REMARK INTER + INTRA:          -5.960
REMARK INTER:                  -5.897
REMARK INTRA:                  -0.062
REMARK UNBOUND:                -0.146
REMARK  Name = 1550473
REMARK  2 active torsions:
REMARK  status: ('A' for Active; 'I' for Inactive)
REMARK    1  A    between atoms: N_1  and  C_4
REMARK    2  A    between atoms: C_4  and  C_5
REMARK                            x       y       z     vdW  Elec       q    Type
REMARK                         _______ _______ _______ _____ _____    ______ ____
ROOT
ATOM      1  N   UNL     1      12.179   8.107  33.583  0.00  0.00    -0.354 N 
ATOM      2  N   UNL     1      11.028   6.320  32.663  0.00  0.00    -0.372 N 
ATOM      3  N   UNL     1      10.208   8.441  32.360  0.00  0.00    -0.372 N 
ATOM      4  C   UNL     1      11.144   7.636  32.874  0.00  0.00    +0.166 C 
ATOM      5  H   UNL     1      12.838   7.442  33.971  0.00  0.00    +0.163 HD
ATOM      6  H   UNL     1      10.260   5.936  32.129  0.00  0.00    +0.159 HD
ATOM      7  H   UNL     1      11.713   5.661  33.013  0.00  0.00    +0.159 HD
ATOM      8  H   UNL     1      10.234   9.444  32.489  0.00  0.00    +0.159 HD
ATOM      9  H   UNL     1       9.425   8.075  31.833  0.00  0.00    +0.159 HD
ENDROOT
BRANCH   1  10
ATOM     10  C   UNL     1      12.426   9.527  33.825  0.00  0.00    +0.151 C 
BRANCH  10  11
ATOM     11  C   UNL     1      13.591   9.973  32.984  0.00  0.00    -0.028 A 
ATOM     12  C   UNL     1      14.586  10.799  33.527  0.00  0.00    +0.005 A 
ATOM     13  C   UNL     1      13.709   9.567  31.646  0.00  0.00    +0.005 A 
ATOM     14  C   UNL     1      15.683  11.188  32.756  0.00  0.00    +0.000 A 
ATOM     15  C   UNL     1      14.806   9.959  30.879  0.00  0.00    +0.000 A 
ATOM     16  C   UNL     1      15.794  10.767  31.435  0.00  0.00    +0.000 A 
ENDBRANCH  10  11
ENDBRANCH   1  10
TORSDOF 2
ENDMDL
MODEL 7
REMARK VINA RESULT:    -5.055     27.468     28.731
REMARK INTER + INTRA:          -5.792
REMARK INTER:                  -5.630
REMARK INTRA:                  -0.162
REMARK UNBOUND:                -0.146
REMARK  Name = 1550473
REMARK  2 active torsions:
REMARK  status: ('A' for Active; 'I' for Inactive)
REMARK    1  A    between atoms: N_1  and  C_4
REMARK    2  A    between atoms: C_4  and  C_5
REMARK                            x       y       z     vdW  Elec       q    Type
REMARK                         _______ _______ _______ _____ _____    ______ ____
ROOT
ATOM      1  N   UNL     1      -6.128   1.806  13.701  0.00  0.00    -0.354 N 
ATOM      2  N   UNL     1      -8.073   2.859  13.013  0.00  0.00    -0.372 N 
ATOM      3  N   UNL     1      -6.735   3.901  14.559  0.00  0.00    -0.372 N 
ATOM      4  C   UNL     1      -6.965   2.851  13.764  0.00  0.00    +0.166 C 
ATOM      5  H   UNL     1      -6.375   1.027  13.102  0.00  0.00    +0.163 HD
ATOM      6  H   UNL     1      -8.721   3.635  13.036  0.00  0.00    +0.159 HD
ATOM      7  H   UNL     1      -8.294   2.100  12.380  0.00  0.00    +0.159 HD
ATOM      8  H   UNL     1      -5.920   3.953  15.155  0.00  0.00    +0.159 HD
ATOM      9  H   UNL     1      -7.378   4.682  14.605  0.00  0.00    +0.159 HD
ENDROOT
BRANCH   1  10
ATOM     10  C   UNL     1      -4.868   1.722  14.438  0.00  0.00    +0.151 C 
BRANCH  10  11
ATOM     11  C   UNL     1      -5.111   1.027  15.749  0.00  0.00    -0.028 A 
ATOM     12  C   UNL     1      -5.661  -0.263  15.779  0.00  0.00    +0.005 A 
ATOM     13  C   UNL     1      -4.788   1.650  16.964  0.00  0.00    +0.005 A 
ATOM     14  C   UNL     1      -5.859  -0.921  16.996  0.00  0.00    +0.000 A 
ATOM     15  C   UNL     1      -4.988   0.990  18.176  0.00  0.00    +0.000 A 
ATOM     16  C   UNL     1      -5.521  -0.297  18.191  0.00  0.00    +0.000 A 
ENDBRANCH  10  11
ENDBRANCH   1  10
TORSDOF 2
ENDMDL
MODEL 8
REMARK VINA RESULT:    -5.006      6.668      7.724
REMARK INTER + INTRA:          -5.738
REMARK INTER:                  -5.620
REMARK INTRA:                  -0.118
REMARK UNBOUND:                -0.146
REMARK  Name = 1550473
REMARK  2 active torsions:
REMARK  status: ('A' for Active; 'I' for Inactive)
REMARK    1  A    between atoms: N_1  and  C_4
REMARK    2  A    between atoms: C_4  and  C_5
REMARK                            x       y       z     vdW  Elec       q    Type
REMARK                         _______ _______ _______ _____ _____    ______ ____
ROOT
ATOM      1  N   UNL     1      -8.145  -7.682 -16.470  0.00  0.00    -0.354 N 
ATOM      2  N   UNL     1      -6.978  -7.477 -14.481  0.00  0.00    -0.372 N 
ATOM      3  N   UNL     1      -6.526  -9.259 -15.853  0.00  0.00    -0.372 N 
ATOM      4  C   UNL     1      -7.223  -8.143 -15.615  0.00  0.00    +0.166 C 
ATOM      5  H   UNL     1      -8.661  -6.846 -16.218  0.00  0.00    +0.163 HD
ATOM      6  H   UNL     1      -6.285  -7.798 -13.818  0.00  0.00    +0.159 HD
ATOM      7  H   UNL     1      -7.462  -6.617 -14.253  0.00  0.00    +0.159 HD
ATOM      8  H   UNL     1      -6.668  -9.812 -16.688  0.00  0.00    +0.159 HD
ATOM      9  H   UNL     1      -5.837  -9.604 -15.196  0.00  0.00    +0.159 HD
ENDROOT
BRANCH   1  10
ATOM     10  C   UNL     1      -8.450  -8.303 -17.758  0.00  0.00    +0.151 C 
BRANCH  10  11
ATOM     11  C   UNL     1      -9.243  -7.337 -18.595  0.00  0.00    -0.028 A 
ATOM     12  C   UNL     1      -9.238  -7.436 -19.994  0.00  0.00    +0.005 A 
ATOM     13  C   UNL     1     -10.005  -6.323 -17.994  0.00  0.00    +0.005 A 
ATOM     14  C   UNL     1      -9.998  -6.558 -20.770  0.00  0.00    +0.000 A 
ATOM     15  C   UNL     1     -10.761  -5.447 -18.773  0.00  0.00    +0.000 A 
ATOM     16  C   UNL     1     -10.759  -5.567 -20.160  0.00  0.00    +0.000 A 
ENDBRANCH  10  11
ENDBRANCH   1  10
TORSDOF 2
ENDMDL
MODEL 9
REMARK VINA RESULT:    -4.977     27.621     28.765
REMARK INTER + INTRA:          -5.704
REMARK INTER:                  -5.561
REMARK INTRA:                  -0.143
REMARK UNBOUND:                -0.146
REMARK  Name = 1550473
REMARK  2 active torsions:
REMARK  status: ('A' for Active; 'I' for Inactive)
REMARK    1  A    between atoms: N_1  and  C_4
REMARK    2  A    between atoms: C_4  and  C_5
REMARK                            x       y       z     vdW  Elec       q    Type
REMARK                         _______ _______ _______ _____ _____    ______ ____
ROOT
ATOM      1  N   UNL     1      -7.548  -1.164  16.174  0.00  0.00    -0.354 N 
ATOM      2  N   UNL     1      -9.072  -2.264  17.529  0.00  0.00    -0.372 N 
ATOM      3  N   UNL     1      -9.855  -0.883  15.872  0.00  0.00    -0.372 N 
ATOM      4  C   UNL     1      -8.817  -1.428  16.514  0.00  0.00    +0.166 C 
ATOM      5  H   UNL     1      -6.806  -1.586  16.721  0.00  0.00    +0.163 HD
ATOM      6  H   UNL     1     -10.019  -2.485  17.806  0.00  0.00    +0.159 HD
ATOM      7  H   UNL     1      -8.328  -2.719  18.043  0.00  0.00    +0.159 HD
ATOM      8  H   UNL     1      -9.730  -0.240  15.101  0.00  0.00    +0.159 HD
ATOM      9  H   UNL     1     -10.810  -1.083  16.142  0.00  0.00    +0.159 HD
ENDROOT
BRANCH   1  10
ATOM     10  C   UNL     1      -7.163  -0.311  15.052  0.00  0.00    +0.151 C 
BRANCH  10  11
ATOM     11  C   UNL     1      -6.152   0.697  15.524  0.00  0.00    -0.028 A 
ATOM     12  C   UNL     1      -5.725   1.729  14.676  0.00  0.00    +0.005 A 
ATOM     13  C   UNL     1      -5.621   0.628  16.821  0.00  0.00    +0.005 A 
ATOM     14  C   UNL     1      -4.808   2.683  15.125  0.00  0.00    +0.000 A 
ATOM     15  C   UNL     1      -4.705   1.581  17.265  0.00  0.00    +0.000 A 
ATOM     16  C   UNL     1      -4.301   2.610  16.418  0.00  0.00    +0.000 A 
ENDBRANCH  10  11
ENDBRANCH   1  10
TORSDOF 2
ENDMDL
