MODEL 1
REMARK VINA RESULT:    -6.162      0.000      0.000
REMARK INTER + INTRA:          -6.975
REMARK INTER:                  -6.883
REMARK INTRA:                  -0.092
REMARK UNBOUND:                -0.092
REMARK  Name = 1550473
REMARK  2 active torsions:
REMARK  status: ('A' for Active; 'I' for Inactive)
REMARK    1  A    between atoms: N_1  and  C_4
REMARK    2  A    between atoms: C_4  and  C_5
REMARK                            x       y       z     vdW  Elec       q    Type
REMARK                         _______ _______ _______ _____ _____    ______ ____
ROOT
ATOM      1  N   UNL     1      -1.663  -1.923 -10.341  0.00  0.00    -0.354 N 
ATOM      2  N   UNL     1      -0.244  -3.216 -11.636  0.00  0.00    -0.372 N 
ATOM      3  N   UNL     1      -2.241  -2.527 -12.530  0.00  0.00    -0.372 N 
ATOM      4  C   UNL     1      -1.394  -2.547 -11.496  0.00  0.00    +0.166 C 
ATOM      5  H   UNL     1      -0.993  -2.001  -9.584  0.00  0.00    +0.163 HD
ATOM      6  H   UNL     1      -0.012  -3.694 -12.496  0.00  0.00    +0.159 HD
ATOM      7  H   UNL     1       0.444  -3.254 -10.894  0.00  0.00    +0.159 HD
ATOM      8  H   UNL     1      -3.129  -2.044 -12.486  0.00  0.00    +0.159 HD
ATOM      9  H   UNL     1      -2.033  -3.009 -13.396  0.00  0.00    +0.159 HD
ENDROOT
BRANCH   1  10
ATOM     10  C   UNL     1      -2.863  -1.121 -10.105  0.00  0.00    +0.151 C 
BRANCH  10  11
ATOM     11  C   UNL     1      -2.858  -0.638  -8.681  0.00  0.00    -0.028 A 
ATOM     12  C   UNL     1      -3.290  -1.476  -7.643  0.00  0.00    +0.005 A 
ATOM     13  C   UNL     1      -2.417   0.656  -8.363  0.00  0.00    +0.005 A 
ATOM     14  C   UNL     1      -3.257  -1.037  -6.316  0.00  0.00    +0.000 A 
ATOM     15  C   UNL     1      -2.386   1.090  -7.037  0.00  0.00    +0.000 A 
ATOM     16  C   UNL     1      -2.804   0.243  -6.015  0.00  0.00    +0.000 A 
ENDBRANCH  10  11
ENDBRANCH   1  10
TORSDOF 2
ENDMDL
MODEL 2
REMARK VINA RESULT:    -5.833      1.579      2.059
REMARK INTER + INTRA:          -6.607
REMARK INTER:                  -6.506
REMARK INTRA:                  -0.101
REMARK UNBOUND:                -0.092
REMARK  Name = 1550473
REMARK  2 active torsions:
REMARK  status: ('A' for Active; 'I' for Inactive)
REMARK    1  A    between atoms: N_1  and  C_4
REMARK    2  A    between atoms: C_4  and  C_5
REMARK                            x       y       z     vdW  Elec       q    Type
REMARK                         _______ _______ _______ _____ _____    ______ ____
ROOT
ATOM      1  N   UNL     1      -4.003  -1.979 -10.383  0.00  0.00    -0.354 N 
ATOM      2  N   UNL     1      -5.622  -2.756 -11.847  0.00  0.00    -0.372 N 
ATOM      3  N   UNL     1      -3.642  -1.967 -12.698  0.00  0.00    -0.372 N 
ATOM      4  C   UNL     1      -4.410  -2.228 -11.635  0.00  0.00    +0.166 C 
ATOM      5  H   UNL     1      -4.644  -2.172  -9.622  0.00  0.00    +0.163 HD
ATOM      6  H   UNL     1      -5.954  -2.958 -12.780  0.00  0.00    +0.159 HD
ATOM      7  H   UNL     1      -6.242  -2.990 -11.081  0.00  0.00    +0.159 HD
ATOM      8  H   UNL     1      -2.720  -1.563 -12.607  0.00  0.00    +0.159 HD
ATOM      9  H   UNL     1      -3.962  -2.151 -13.641  0.00  0.00    +0.159 HD
ENDROOT
BRANCH   1  10
ATOM     10  C   UNL     1      -2.682  -1.456 -10.041  0.00  0.00    +0.151 C 
BRANCH  10  11
ATOM     11  C   UNL     1      -2.754  -0.779  -8.700  0.00  0.00    -0.028 A 
ATOM     12  C   UNL     1      -3.166  -1.491  -7.564  0.00  0.00    +0.005 A 
ATOM     13  C   UNL     1      -2.405   0.573  -8.558  0.00  0.00    +0.005 A 
ATOM     14  C   UNL     1      -3.204  -0.871  -6.313  0.00  0.00    +0.000 A 
ATOM     15  C   UNL     1      -2.445   1.189  -7.307  0.00  0.00    +0.000 A 
ATOM     16  C   UNL     1      -2.843   0.466  -6.185  0.00  0.00    +0.000 A 
ENDBRANCH  10  11
ENDBRANCH   1  10
TORSDOF 2
ENDMDL
MODEL 3
REMARK VINA RESULT:    -5.764      3.394      4.973
REMARK INTER + INTRA:          -6.530
REMARK INTER:                  -6.425
REMARK INTRA:                  -0.105
REMARK UNBOUND:                -0.092
REMARK  Name = 1550473
REMARK  2 active torsions:
REMARK  status: ('A' for Active; 'I' for Inactive)
REMARK    1  A    between atoms: N_1  and  C_4
REMARK    2  A    between atoms: C_4  and  C_5
REMARK                            x       y       z     vdW  Elec       q    Type
REMARK                         _______ _______ _______ _____ _____    ______ ____
ROOT
ATOM      1  N   UNL     1      -0.942   1.321  -6.914  0.00  0.00    -0.354 N 
ATOM      2  N   UNL     1       1.140   1.819  -6.029  0.00  0.00    -0.372 N 
ATOM      3  N   UNL     1      -0.641   1.571  -4.604  0.00  0.00    -0.372 N 
ATOM      4  C   UNL     1      -0.163   1.567  -5.852  0.00  0.00    +0.166 C 
ATOM      5  H   UNL     1      -0.525   1.363  -7.837  0.00  0.00    +0.163 HD
ATOM      6  H   UNL     1       1.753   2.005  -5.247  0.00  0.00    +0.159 HD
ATOM      7  H   UNL     1       1.563   1.815  -6.949  0.00  0.00    +0.159 HD
ATOM      8  H   UNL     1      -1.616   1.394  -4.403  0.00  0.00    +0.159 HD
ATOM      9  H   UNL     1      -0.046   1.766  -3.809  0.00  0.00    +0.159 HD
ENDROOT
BRANCH   1  10
ATOM     10  C   UNL     1      -2.361   0.983  -6.826  0.00  0.00    +0.151 C 
BRANCH  10  11
ATOM     11  C   UNL     1      -2.713   0.044  -7.947  0.00  0.00    -0.028 A 
ATOM     12  C   UNL     1      -3.289  -1.205  -7.675  0.00  0.00    +0.005 A 
ATOM     13  C   UNL     1      -2.478   0.401  -9.284  0.00  0.00    +0.005 A 
ATOM     14  C   UNL     1      -3.643  -2.065  -8.717  0.00  0.00    +0.000 A 
ATOM     15  C   UNL     1      -2.833  -0.461 -10.322  0.00  0.00    +0.000 A 
ATOM     16  C   UNL     1      -3.417  -1.693 -10.038  0.00  0.00    +0.000 A 
ENDBRANCH  10  11
ENDBRANCH   1  10
TORSDOF 2
ENDMDL
MODEL 4
REMARK VINA RESULT:    -5.533      1.866      2.508
REMARK INTER + INTRA:          -6.272
REMARK INTER:                  -6.103
REMARK INTRA:                  -0.169
REMARK UNBOUND:                -0.092
REMARK  Name = 1550473
REMARK  2 active torsions:
REMARK  status: ('A' for Active; 'I' for Inactive)
REMARK    1  A    between atoms: N_1  and  C_4
REMARK    2  A    between atoms: C_4  and  C_5
REMARK                            x       y       z     vdW  Elec       q    Type
REMARK                         _______ _______ _______ _____ _____    ______ ____
ROOT
ATOM      1  N   UNL     1      -0.945   0.392  -9.319  0.00  0.00    -0.354 N 
ATOM      2  N   UNL     1      -0.037  -1.528 -10.242  0.00  0.00    -0.372 N 
ATOM      3  N   UNL     1      -2.205  -1.577  -9.491  0.00  0.00    -0.372 N 
ATOM      4  C   UNL     1      -1.071  -0.893  -9.677  0.00  0.00    +0.166 C 
ATOM      5  H   UNL     1      -0.050   0.845  -9.459  0.00  0.00    +0.163 HD
ATOM      6  H   UNL     1      -0.104  -2.496 -10.526  0.00  0.00    +0.159 HD
ATOM      7  H   UNL     1       0.842  -1.059 -10.423  0.00  0.00    +0.159 HD
ATOM      8  H   UNL     1      -3.020  -1.156  -9.064  0.00  0.00    +0.159 HD
ATOM      9  H   UNL     1      -2.287  -2.550  -9.758  0.00  0.00    +0.159 HD
ENDROOT
BRANCH   1  10
ATOM     10  C   UNL     1      -2.027   1.191  -8.745  0.00  0.00    +0.151 C 
BRANCH  10  11
ATOM     11  C   UNL     1      -1.909   1.174  -7.246  0.00  0.00    -0.028 A 
ATOM     12  C   UNL     1      -2.785   0.401  -6.471  0.00  0.00    +0.005 A 
ATOM     13  C   UNL     1      -0.918   1.926  -6.596  0.00  0.00    +0.005 A 
ATOM     14  C   UNL     1      -2.656   0.362  -5.080  0.00  0.00    +0.000 A 
ATOM     15  C   UNL     1      -0.793   1.885  -5.207  0.00  0.00    +0.000 A 
ATOM     16  C   UNL     1      -1.660   1.101  -4.450  0.00  0.00    +0.000 A 
ENDBRANCH  10  11
ENDBRANCH   1  10
TORSDOF 2
ENDMDL
MODEL 5
REMARK VINA RESULT:    -5.522      3.444      4.449
REMARK INTER + INTRA:          -6.260
REMARK INTER:                  -6.146
REMARK INTRA:                  -0.114
REMARK UNBOUND:                -0.092
REMARK  Name = 1550473
REMARK  2 active torsions:
REMARK  status: ('A' for Active; 'I' for Inactive)
REMARK    1  A    between atoms: N_1  and  C_4
REMARK    2  A    between atoms: C_4  and  C_5
REMARK                            x       y       z     vdW  Elec       q    Type
REMARK                         _______ _______ _______ _____ _____    ______ ____
ROOT
ATOM      1  N   UNL     1      -0.650   2.198  -8.276  0.00  0.00    -0.354 N 
ATOM      2  N   UNL     1       1.127   3.676  -8.131  0.00  0.00    -0.372 N 
ATOM      3  N   UNL     1      -0.779   4.338  -9.223  0.00  0.00    -0.372 N 
ATOM      4  C   UNL     1      -0.114   3.396  -8.546  0.00  0.00    +0.166 C 
ATOM      5  H   UNL     1      -0.083   1.517  -7.785  0.00  0.00    +0.163 HD
ATOM      6  H   UNL     1       1.557   4.572  -8.317  0.00  0.00    +0.159 HD
ATOM      7  H   UNL     1       1.675   3.009  -7.601  0.00  0.00    +0.159 HD
ATOM      8  H   UNL     1      -1.717   4.188  -9.569  0.00  0.00    +0.159 HD
ATOM      9  H   UNL     1      -0.362   5.237  -9.429  0.00  0.00    +0.159 HD
ENDROOT
BRANCH   1  10
ATOM     10  C   UNL     1      -2.014   1.813  -8.636  0.00  0.00    +0.151 C 
BRANCH  10  11
ATOM     11  C   UNL     1      -2.502   0.771  -7.668  0.00  0.00    -0.028 A 
ATOM     12  C   UNL     1      -2.915  -0.488  -8.125  0.00  0.00    +0.005 A 
ATOM     13  C   UNL     1      -2.548   1.036  -6.290  0.00  0.00    +0.005 A 
ATOM     14  C   UNL     1      -3.341  -1.466  -7.223  0.00  0.00    +0.000 A 
ATOM     15  C   UNL     1      -2.974   0.057  -5.393  0.00  0.00    +0.000 A 
ATOM     16  C   UNL     1      -3.368  -1.195  -5.860  0.00  0.00    +0.000 A 
ENDBRANCH  10  11
ENDBRANCH   1  10
TORSDOF 2
ENDMDL
MODEL 6
REMARK VINA RESULT:    -5.209     13.842     14.926
REMARK INTER + INTRA:          -5.911
REMARK INTER:                  -5.770
REMARK INTRA:                  -0.140
REMARK UNBOUND:                -0.092
REMARK  Name = 1550473
REMARK  2 active torsions:
REMARK  status: ('A' for Active; 'I' for Inactive)
REMARK    1  A    between atoms: N_1  and  C_4
REMARK    2  A    between atoms: C_4  and  C_5
REMARK                            x       y       z     vdW  Elec       q    Type
REMARK                         _______ _______ _______ _____ _____    ______ ____
ROOT
ATOM      1  N   UNL     1      11.438  -1.362  -5.258  0.00  0.00    -0.354 N 
ATOM      2  N   UNL     1      11.433   0.929  -5.594  0.00  0.00    -0.372 N 
ATOM      3  N   UNL     1       9.428  -0.161  -5.350  0.00  0.00    -0.372 N 
ATOM      4  C   UNL     1      10.764  -0.214  -5.399  0.00  0.00    +0.166 C 
ATOM      5  H   UNL     1      12.449  -1.340  -5.335  0.00  0.00    +0.163 HD
ATOM      6  H   UNL     1      10.951   1.812  -5.700  0.00  0.00    +0.159 HD
ATOM      7  H   UNL     1      12.445   0.956  -5.624  0.00  0.00    +0.159 HD
ATOM      8  H   UNL     1       8.865  -0.989  -5.211  0.00  0.00    +0.159 HD
ATOM      9  H   UNL     1       8.928   0.711  -5.466  0.00  0.00    +0.159 HD
ENDROOT
BRANCH   1  10
ATOM     10  C   UNL     1      10.808  -2.653  -4.988  0.00  0.00    +0.151 C 
BRANCH  10  11
ATOM     11  C   UNL     1      11.353  -3.677  -5.945  0.00  0.00    -0.028 A 
ATOM     12  C   UNL     1      12.024  -3.276  -7.110  0.00  0.00    +0.005 A 
ATOM     13  C   UNL     1      11.208  -5.049  -5.690  0.00  0.00    +0.005 A 
ATOM     14  C   UNL     1      12.558  -4.226  -7.984  0.00  0.00    +0.000 A 
ATOM     15  C   UNL     1      11.741  -5.994  -6.566  0.00  0.00    +0.000 A 
ATOM     16  C   UNL     1      12.418  -5.582  -7.711  0.00  0.00    +0.000 A 
ENDBRANCH  10  11
ENDBRANCH   1  10
TORSDOF 2
ENDMDL
MODEL 7
REMARK VINA RESULT:    -4.887     14.956     16.008
REMARK INTER + INTRA:          -5.550
REMARK INTER:                  -5.458
REMARK INTRA:                  -0.092
REMARK UNBOUND:                -0.092
REMARK  Name = 1550473
REMARK  2 active torsions:
REMARK  status: ('A' for Active; 'I' for Inactive)
REMARK    1  A    between atoms: N_1  and  C_4
REMARK    2  A    between atoms: C_4  and  C_5
REMARK                            x       y       z     vdW  Elec       q    Type
REMARK                         _______ _______ _______ _____ _____    ______ ____
ROOT
ATOM      1  N   UNL     1     -10.414 -13.554 -13.285  0.00  0.00    -0.354 N 
ATOM      2  N   UNL     1     -12.056 -12.029 -13.871  0.00  0.00    -0.372 N 
ATOM      3  N   UNL     1     -12.680 -14.149 -13.253  0.00  0.00    -0.372 N 
ATOM      4  C   UNL     1     -11.707 -13.256 -13.466  0.00  0.00    +0.166 C 
ATOM      5  H   UNL     1      -9.723 -12.842 -13.493  0.00  0.00    +0.163 HD
ATOM      6  H   UNL     1     -13.024 -11.774 -14.012  0.00  0.00    +0.159 HD
ATOM      7  H   UNL     1     -11.366 -11.306 -14.033  0.00  0.00    +0.159 HD
ATOM      8  H   UNL     1     -12.483 -15.094 -12.952  0.00  0.00    +0.159 HD
ATOM      9  H   UNL     1     -13.654 -13.917 -13.400  0.00  0.00    +0.159 HD
ENDROOT
BRANCH   1  10
ATOM     10  C   UNL     1      -9.932 -14.844 -12.795  0.00  0.00    +0.151 C 
BRANCH  10  11
ATOM     11  C   UNL     1      -8.447 -14.931 -13.018  0.00  0.00    -0.028 A 
ATOM     12  C   UNL     1      -7.552 -14.520 -12.019  0.00  0.00    +0.005 A 
ATOM     13  C   UNL     1      -7.930 -15.429 -14.223  0.00  0.00    +0.005 A 
ATOM     14  C   UNL     1      -6.173 -14.629 -12.214  0.00  0.00    +0.000 A 
ATOM     15  C   UNL     1      -6.552 -15.535 -14.414  0.00  0.00    +0.000 A 
ATOM     16  C   UNL     1      -5.674 -15.137 -13.409  0.00  0.00    +0.000 A 
ENDBRANCH  10  11
ENDBRANCH   1  10
TORSDOF 2
ENDMDL
MODEL 8
REMARK VINA RESULT:    -4.883     12.853     14.112
REMARK INTER + INTRA:          -5.547
REMARK INTER:                  -5.444
REMARK INTRA:                  -0.103
REMARK UNBOUND:                -0.092
REMARK  Name = 1550473
REMARK  2 active torsions:
REMARK  status: ('A' for Active; 'I' for Inactive)
REMARK    1  A    between atoms: N_1  and  C_4
REMARK    2  A    between atoms: C_4  and  C_5
REMARK                            x       y       z     vdW  Elec       q    Type
REMARK                         _______ _______ _______ _____ _____    ______ ____
ROOT
ATOM      1  N   UNL     1       0.821 -12.959  -5.911  0.00  0.00    -0.354 N 
ATOM      2  N   UNL     1      -1.183 -11.858  -5.542  0.00  0.00    -0.372 N 
ATOM      3  N   UNL     1      -1.231 -14.021  -6.306  0.00  0.00    -0.372 N 
ATOM      4  C   UNL     1      -0.519 -12.955  -5.923  0.00  0.00    +0.166 C 
ATOM      5  H   UNL     1       1.302 -12.109  -5.640  0.00  0.00    +0.163 HD
ATOM      6  H   UNL     1      -2.194 -11.827  -5.537  0.00  0.00    +0.159 HD
ATOM      7  H   UNL     1      -0.700 -11.025  -5.227  0.00  0.00    +0.159 HD
ATOM      8  H   UNL     1      -0.790 -14.878  -6.611  0.00  0.00    +0.159 HD
ATOM      9  H   UNL     1      -2.243 -14.005  -6.319  0.00  0.00    +0.159 HD
ENDROOT
BRANCH   1  10
ATOM     10  C   UNL     1       1.638 -14.120  -6.256  0.00  0.00    +0.151 C 
BRANCH  10  11
ATOM     11  C   UNL     1       3.089 -13.776  -6.059  0.00  0.00    -0.028 A 
ATOM     12  C   UNL     1       3.645 -12.650  -6.684  0.00  0.00    +0.005 A 
ATOM     13  C   UNL     1       3.911 -14.568  -5.242  0.00  0.00    +0.005 A 
ATOM     14  C   UNL     1       4.985 -12.313  -6.476  0.00  0.00    +0.000 A 
ATOM     15  C   UNL     1       5.248 -14.228  -5.039  0.00  0.00    +0.000 A 
ATOM     16  C   UNL     1       5.784 -13.099  -5.654  0.00  0.00    +0.000 A 
ENDBRANCH  10  11
ENDBRANCH   1  10
TORSDOF 2
ENDMDL
MODEL 9
REMARK VINA RESULT:    -4.749     14.764     15.754
REMARK INTER + INTRA:          -5.397
REMARK INTER:                  -5.258
REMARK INTRA:                  -0.139
REMARK UNBOUND:                -0.092
REMARK  Name = 1550473
REMARK  2 active torsions:
REMARK  status: ('A' for Active; 'I' for Inactive)
REMARK    1  A    between atoms: N_1  and  C_4
REMARK    2  A    between atoms: C_4  and  C_5
REMARK                            x       y       z     vdW  Elec       q    Type
REMARK                         _______ _______ _______ _____ _____    ______ ____
ROOT
ATOM      1  N   UNL     1      -9.290 -14.746 -13.847  0.00  0.00    -0.354 N 
ATOM      2  N   UNL     1     -10.920 -13.934 -15.277  0.00  0.00    -0.372 N 
ATOM      3  N   UNL     1     -10.455 -12.774 -13.353  0.00  0.00    -0.372 N 
ATOM      4  C   UNL     1     -10.211 -13.821 -14.148  0.00  0.00    +0.166 C 
ATOM      5  H   UNL     1      -9.174 -15.532 -14.476  0.00  0.00    +0.163 HD
ATOM      6  H   UNL     1     -11.620 -13.250 -15.532  0.00  0.00    +0.159 HD
ATOM      7  H   UNL     1     -10.770 -14.696 -15.927  0.00  0.00    +0.159 HD
ATOM      8  H   UNL     1      -9.958 -12.634 -12.483  0.00  0.00    +0.159 HD
ATOM      9  H   UNL     1     -11.160 -12.085 -13.585  0.00  0.00    +0.159 HD
ENDROOT
BRANCH   1  10
ATOM     10  C   UNL     1      -8.427 -14.687 -12.669  0.00  0.00    +0.151 C 
BRANCH  10  11
ATOM     11  C   UNL     1      -7.006 -14.947 -13.087  0.00  0.00    -0.028 A 
ATOM     12  C   UNL     1      -6.724 -15.514 -14.339  0.00  0.00    +0.005 A 
ATOM     13  C   UNL     1      -5.936 -14.624 -12.238  0.00  0.00    +0.005 A 
ATOM     14  C   UNL     1      -5.403 -15.728 -14.740  0.00  0.00    +0.000 A 
ATOM     15  C   UNL     1      -4.619 -14.840 -12.642  0.00  0.00    +0.000 A 
ATOM     16  C   UNL     1      -4.353 -15.390 -13.893  0.00  0.00    +0.000 A 
ENDBRANCH  10  11
ENDBRANCH   1  10
TORSDOF 2
ENDMDL
