MODEL 1
REMARK VINA RESULT:    -5.176      0.000      0.000
REMARK INTER + INTRA:          -5.900
REMARK INTER:                  -5.781
REMARK INTRA:                  -0.119
REMARK UNBOUND:                -0.119
REMARK  Name = 1550473
REMARK  2 active torsions:
REMARK  status: ('A' for Active; 'I' for Inactive)
REMARK    1  A    between atoms: N_1  and  C_4
REMARK    2  A    between atoms: C_4  and  C_5
REMARK                            x       y       z     vdW  Elec       q    Type
REMARK                         _______ _______ _______ _____ _____    ______ ____
ROOT
ATOM      1  N   UNL     1     -10.739   5.916 -10.004  0.00  0.00    -0.354 N 
ATOM      2  N   UNL     1     -11.346   5.623 -12.220  0.00  0.00    -0.372 N 
ATOM      3  N   UNL     1      -9.376   6.698 -11.743  0.00  0.00    -0.372 N 
ATOM      4  C   UNL     1     -10.481   6.082 -11.308  0.00  0.00    +0.166 C 
ATOM      5  H   UNL     1     -11.608   5.468  -9.739  0.00  0.00    +0.163 HD
ATOM      6  H   UNL     1     -11.177   5.730 -13.211  0.00  0.00    +0.159 HD
ATOM      7  H   UNL     1     -12.192   5.134 -11.952  0.00  0.00    +0.159 HD
ATOM      8  H   UNL     1      -8.686   7.073 -11.106  0.00  0.00    +0.159 HD
ATOM      9  H   UNL     1      -9.195   6.826 -12.730  0.00  0.00    +0.159 HD
ENDROOT
BRANCH   1  10
ATOM     10  C   UNL     1      -9.836   6.332  -8.932  0.00  0.00    +0.151 C 
BRANCH  10  11
ATOM     11  C   UNL     1     -10.121   5.512  -7.704  0.00  0.00    -0.028 A 
ATOM     12  C   UNL     1      -9.119   5.290  -6.748  0.00  0.00    +0.005 A 
ATOM     13  C   UNL     1     -11.392   4.958  -7.488  0.00  0.00    +0.005 A 
ATOM     14  C   UNL     1      -9.391   4.554  -5.592  0.00  0.00    +0.000 A 
ATOM     15  C   UNL     1     -11.660   4.223  -6.334  0.00  0.00    +0.000 A 
ATOM     16  C   UNL     1     -10.660   4.023  -5.385  0.00  0.00    +0.000 A 
ENDBRANCH  10  11
ENDBRANCH   1  10
TORSDOF 2
ENDMDL
MODEL 2
REMARK VINA RESULT:    -4.905     29.332     30.890
REMARK INTER + INTRA:          -5.597
REMARK INTER:                  -5.467
REMARK INTRA:                  -0.130
REMARK UNBOUND:                -0.119
REMARK  Name = 1550473
REMARK  2 active torsions:
REMARK  status: ('A' for Active; 'I' for Inactive)
REMARK    1  A    between atoms: N_1  and  C_4
REMARK    2  A    between atoms: C_4  and  C_5
REMARK                            x       y       z     vdW  Elec       q    Type
REMARK                         _______ _______ _______ _____ _____    ______ ____
ROOT
ATOM      1  N   UNL     1      14.936   4.211  11.023  0.00  0.00    -0.354 N 
ATOM      2  N   UNL     1      16.825   3.867  12.319  0.00  0.00    -0.372 N 
ATOM      3  N   UNL     1      15.778   2.054  11.379  0.00  0.00    -0.372 N 
ATOM      4  C   UNL     1      15.833   3.377  11.565  0.00  0.00    +0.166 C 
ATOM      5  H   UNL     1      15.015   5.201  11.226  0.00  0.00    +0.163 HD
ATOM      6  H   UNL     1      17.518   3.262  12.738  0.00  0.00    +0.159 HD
ATOM      7  H   UNL     1      16.928   4.861  12.482  0.00  0.00    +0.159 HD
ATOM      8  H   UNL     1      15.052   1.620  10.826  0.00  0.00    +0.159 HD
ATOM      9  H   UNL     1      16.457   1.431  11.800  0.00  0.00    +0.159 HD
ENDROOT
BRANCH   1  10
ATOM     10  C   UNL     1      13.850   3.785  10.142  0.00  0.00    +0.151 C 
BRANCH  10  11
ATOM     11  C   UNL     1      12.717   4.767  10.249  0.00  0.00    -0.028 A 
ATOM     12  C   UNL     1      12.782   5.834  11.158  0.00  0.00    +0.005 A 
ATOM     13  C   UNL     1      11.577   4.641   9.439  0.00  0.00    +0.005 A 
ATOM     14  C   UNL     1      11.742   6.764  11.235  0.00  0.00    +0.000 A 
ATOM     15  C   UNL     1      10.541   5.571   9.521  0.00  0.00    +0.000 A 
ATOM     16  C   UNL     1      10.625   6.634  10.417  0.00  0.00    +0.000 A 
ENDBRANCH  10  11
ENDBRANCH   1  10
TORSDOF 2
ENDMDL
MODEL 3
REMARK VINA RESULT:    -4.668      1.391      2.561
REMARK INTER + INTRA:          -5.333
REMARK INTER:                  -5.197
REMARK INTRA:                  -0.137
REMARK UNBOUND:                -0.119
REMARK  Name = 1550473
REMARK  2 active torsions:
REMARK  status: ('A' for Active; 'I' for Inactive)
REMARK    1  A    between atoms: N_1  and  C_4
REMARK    2  A    between atoms: C_4  and  C_5
REMARK                            x       y       z     vdW  Elec       q    Type
REMARK                         _______ _______ _______ _____ _____    ______ ____
ROOT
ATOM      1  N   UNL     1     -10.300   7.471 -10.880  0.00  0.00    -0.354 N 
ATOM      2  N   UNL     1      -9.904   7.496 -13.162  0.00  0.00    -0.372 N 
ATOM      3  N   UNL     1     -11.248   5.854 -12.287  0.00  0.00    -0.372 N 
ATOM      4  C   UNL     1     -10.488   6.938 -12.094  0.00  0.00    +0.166 C 
ATOM      5  H   UNL     1      -9.688   8.275 -10.796  0.00  0.00    +0.163 HD
ATOM      6  H   UNL     1     -10.031   7.118 -14.091  0.00  0.00    +0.159 HD
ATOM      7  H   UNL     1      -9.331   8.327 -13.082  0.00  0.00    +0.159 HD
ATOM      8  H   UNL     1     -11.711   5.382 -11.522  0.00  0.00    +0.159 HD
ATOM      9  H   UNL     1     -11.377   5.454 -13.208  0.00  0.00    +0.159 HD
ENDROOT
BRANCH   1  10
ATOM     10  C   UNL     1     -10.933   6.971  -9.660  0.00  0.00    +0.151 C 
BRANCH  10  11
ATOM     11  C   UNL     1      -9.886   6.332  -8.790  0.00  0.00    -0.028 A 
ATOM     12  C   UNL     1     -10.258   5.559  -7.680  0.00  0.00    +0.005 A 
ATOM     13  C   UNL     1      -8.521   6.492  -9.072  0.00  0.00    +0.005 A 
ATOM     14  C   UNL     1      -9.287   4.941  -6.889  0.00  0.00    +0.000 A 
ATOM     15  C   UNL     1      -7.555   5.873  -8.279  0.00  0.00    +0.000 A 
ATOM     16  C   UNL     1      -7.938   5.096  -7.189  0.00  0.00    +0.000 A 
ENDBRANCH  10  11
ENDBRANCH   1  10
TORSDOF 2
ENDMDL
MODEL 4
REMARK VINA RESULT:    -4.653      1.296      2.141
REMARK INTER + INTRA:          -5.317
REMARK INTER:                  -5.173
REMARK INTRA:                  -0.144
REMARK UNBOUND:                -0.119
REMARK  Name = 1550473
REMARK  2 active torsions:
REMARK  status: ('A' for Active; 'I' for Inactive)
REMARK    1  A    between atoms: N_1  and  C_4
REMARK    2  A    between atoms: C_4  and  C_5
REMARK                            x       y       z     vdW  Elec       q    Type
REMARK                         _______ _______ _______ _____ _____    ______ ____
ROOT
ATOM      1  N   UNL     1     -10.101   7.132  -9.033  0.00  0.00    -0.354 N 
ATOM      2  N   UNL     1     -11.456   8.761  -9.969  0.00  0.00    -0.372 N 
ATOM      3  N   UNL     1     -11.281   6.728 -11.017  0.00  0.00    -0.372 N 
ATOM      4  C   UNL     1     -10.938   7.528 -10.002  0.00  0.00    +0.166 C 
ATOM      5  H   UNL     1      -9.857   7.797  -8.308  0.00  0.00    +0.163 HD
ATOM      6  H   UNL     1     -12.092   9.087 -10.684  0.00  0.00    +0.159 HD
ATOM      7  H   UNL     1     -11.246   9.408  -9.218  0.00  0.00    +0.159 HD
ATOM      8  H   UNL     1     -10.920   5.787 -11.104  0.00  0.00    +0.159 HD
ATOM      9  H   UNL     1     -11.908   7.039 -11.749  0.00  0.00    +0.159 HD
ENDROOT
BRANCH   1  10
ATOM     10  C   UNL     1      -9.524   5.792  -8.948  0.00  0.00    +0.151 C 
BRANCH  10  11
ATOM     11  C   UNL     1      -9.836   5.208  -7.598  0.00  0.00    -0.028 A 
ATOM     12  C   UNL     1     -11.143   4.810  -7.278  0.00  0.00    +0.005 A 
ATOM     13  C   UNL     1      -8.829   5.045  -6.635  0.00  0.00    +0.005 A 
ATOM     14  C   UNL     1     -11.427   4.240  -6.035  0.00  0.00    +0.000 A 
ATOM     15  C   UNL     1      -9.117   4.476  -5.394  0.00  0.00    +0.000 A 
ATOM     16  C   UNL     1     -10.416   4.071  -5.096  0.00  0.00    +0.000 A 
ENDBRANCH  10  11
ENDBRANCH   1  10
TORSDOF 2
ENDMDL
MODEL 5
REMARK VINA RESULT:    -4.478     17.808     18.601
REMARK INTER + INTRA:          -5.120
REMARK INTER:                  -5.005
REMARK INTRA:                  -0.115
REMARK UNBOUND:                -0.119
REMARK  Name = 1550473
REMARK  2 active torsions:
REMARK  status: ('A' for Active; 'I' for Inactive)
REMARK    1  A    between atoms: N_1  and  C_4
REMARK    2  A    between atoms: C_4  and  C_5
REMARK                            x       y       z     vdW  Elec       q    Type
REMARK                         _______ _______ _______ _____ _____    ______ ____
ROOT
ATOM      1  N   UNL     1       2.411  -6.374  -8.284  0.00  0.00    -0.354 N 
ATOM      2  N   UNL     1       1.090  -5.421  -9.930  0.00  0.00    -0.372 N 
ATOM      3  N   UNL     1       3.018  -4.351  -9.298  0.00  0.00    -0.372 N 
ATOM      4  C   UNL     1       2.184  -5.386  -9.160  0.00  0.00    +0.166 C 
ATOM      5  H   UNL     1       1.724  -7.116  -8.206  0.00  0.00    +0.163 HD
ATOM      6  H   UNL     1       0.893  -4.691 -10.602  0.00  0.00    +0.159 HD
ATOM      7  H   UNL     1       0.429  -6.187  -9.882  0.00  0.00    +0.159 HD
ATOM      8  H   UNL     1       3.859  -4.262  -8.742  0.00  0.00    +0.159 HD
ATOM      9  H   UNL     1       2.833  -3.605  -9.957  0.00  0.00    +0.159 HD
ENDROOT
BRANCH   1  10
ATOM     10  C   UNL     1       3.599  -6.459  -7.437  0.00  0.00    +0.151 C 
BRANCH  10  11
ATOM     11  C   UNL     1       3.527  -7.715  -6.613  0.00  0.00    -0.028 A 
ATOM     12  C   UNL     1       4.699  -8.375  -6.218  0.00  0.00    +0.005 A 
ATOM     13  C   UNL     1       2.289  -8.245  -6.219  0.00  0.00    +0.005 A 
ATOM     14  C   UNL     1       4.633  -9.525  -5.427  0.00  0.00    +0.000 A 
ATOM     15  C   UNL     1       2.227  -9.394  -5.430  0.00  0.00    +0.000 A 
ATOM     16  C   UNL     1       3.399 -10.032  -5.032  0.00  0.00    +0.000 A 
ENDBRANCH  10  11
ENDBRANCH   1  10
TORSDOF 2
ENDMDL
MODEL 6
REMARK VINA RESULT:    -4.468      5.496      7.205
REMARK INTER + INTRA:          -5.110
REMARK INTER:                  -4.987
REMARK INTRA:                  -0.123
REMARK UNBOUND:                -0.119
REMARK  Name = 1550473
REMARK  2 active torsions:
REMARK  status: ('A' for Active; 'I' for Inactive)
REMARK    1  A    between atoms: N_1  and  C_4
REMARK    2  A    between atoms: C_4  and  C_5
REMARK                            x       y       z     vdW  Elec       q    Type
REMARK                         _______ _______ _______ _____ _____    ______ ____
ROOT
ATOM      1  N   UNL     1     -15.741   1.990  -5.254  0.00  0.00    -0.354 N 
ATOM      2  N   UNL     1     -17.890   1.852  -6.107  0.00  0.00    -0.372 N 
ATOM      3  N   UNL     1     -17.359   0.632  -4.238  0.00  0.00    -0.372 N 
ATOM      4  C   UNL     1     -16.983   1.490  -5.192  0.00  0.00    +0.166 C 
ATOM      5  H   UNL     1     -15.511   2.612  -6.020  0.00  0.00    +0.163 HD
ATOM      6  H   UNL     1     -18.836   1.495  -6.084  0.00  0.00    +0.159 HD
ATOM      7  H   UNL     1     -17.670   2.510  -6.845  0.00  0.00    +0.159 HD
ATOM      8  H   UNL     1     -16.720   0.315  -3.521  0.00  0.00    +0.159 HD
ATOM      9  H   UNL     1     -18.297   0.254  -4.204  0.00  0.00    +0.159 HD
ENDROOT
BRANCH   1  10
ATOM     10  C   UNL     1     -14.694   1.702  -4.276  0.00  0.00    +0.151 C 
BRANCH  10  11
ATOM     11  C   UNL     1     -13.462   2.488  -4.629  0.00  0.00    -0.028 A 
ATOM     12  C   UNL     1     -13.411   3.238  -5.813  0.00  0.00    +0.005 A 
ATOM     13  C   UNL     1     -12.344   2.492  -3.781  0.00  0.00    +0.005 A 
ATOM     14  C   UNL     1     -12.279   3.993  -6.127  0.00  0.00    +0.000 A 
ATOM     15  C   UNL     1     -11.214   3.247  -4.098  0.00  0.00    +0.000 A 
ATOM     16  C   UNL     1     -11.183   3.999  -5.270  0.00  0.00    +0.000 A 
ENDBRANCH  10  11
ENDBRANCH   1  10
TORSDOF 2
ENDMDL
MODEL 7
REMARK VINA RESULT:    -4.449      6.311      7.854
REMARK INTER + INTRA:          -5.088
REMARK INTER:                  -4.989
REMARK INTRA:                  -0.099
REMARK UNBOUND:                -0.119
REMARK  Name = 1550473
REMARK  2 active torsions:
REMARK  status: ('A' for Active; 'I' for Inactive)
REMARK    1  A    between atoms: N_1  and  C_4
REMARK    2  A    between atoms: C_4  and  C_5
REMARK                            x       y       z     vdW  Elec       q    Type
REMARK                         _______ _______ _______ _____ _____    ______ ____
ROOT
ATOM      1  N   UNL     1     -14.850  -0.344  -5.826  0.00  0.00    -0.354 N 
ATOM      2  N   UNL     1     -14.808  -2.236  -7.162  0.00  0.00    -0.372 N 
ATOM      3  N   UNL     1     -16.523  -1.977  -5.659  0.00  0.00    -0.372 N 
ATOM      4  C   UNL     1     -15.396  -1.507  -6.205  0.00  0.00    +0.166 C 
ATOM      5  H   UNL     1     -13.979  -0.058  -6.258  0.00  0.00    +0.163 HD
ATOM      6  H   UNL     1     -15.198  -3.116  -7.471  0.00  0.00    +0.159 HD
ATOM      7  H   UNL     1     -13.962  -1.925  -7.624  0.00  0.00    +0.159 HD
ATOM      8  H   UNL     1     -17.012  -1.478  -4.928  0.00  0.00    +0.159 HD
ATOM      9  H   UNL     1     -16.923  -2.862  -5.947  0.00  0.00    +0.159 HD
ENDROOT
BRANCH   1  10
ATOM     10  C   UNL     1     -15.440   0.551  -4.832  0.00  0.00    +0.151 C 
BRANCH  10  11
ATOM     11  C   UNL     1     -14.729   1.875  -4.879  0.00  0.00    -0.028 A 
ATOM     12  C   UNL     1     -15.442   3.058  -5.118  0.00  0.00    +0.005 A 
ATOM     13  C   UNL     1     -13.342   1.953  -4.680  0.00  0.00    +0.005 A 
ATOM     14  C   UNL     1     -14.787   4.292  -5.133  0.00  0.00    +0.000 A 
ATOM     15  C   UNL     1     -12.691   3.186  -4.695  0.00  0.00    +0.000 A 
ATOM     16  C   UNL     1     -13.414   4.356  -4.919  0.00  0.00    +0.000 A 
ENDBRANCH  10  11
ENDBRANCH   1  10
TORSDOF 2
ENDMDL
MODEL 8
REMARK VINA RESULT:    -4.430     20.061     21.178
REMARK INTER + INTRA:          -5.067
REMARK INTER:                  -4.945
REMARK INTRA:                  -0.122
REMARK UNBOUND:                -0.119
REMARK  Name = 1550473
REMARK  2 active torsions:
REMARK  status: ('A' for Active; 'I' for Inactive)
REMARK    1  A    between atoms: N_1  and  C_4
REMARK    2  A    between atoms: C_4  and  C_5
REMARK                            x       y       z     vdW  Elec       q    Type
REMARK                         _______ _______ _______ _____ _____    ______ ____
ROOT
ATOM      1  N   UNL     1       2.382 -11.265  -4.440  0.00  0.00    -0.354 N 
ATOM      2  N   UNL     1       2.216 -13.323  -3.390  0.00  0.00    -0.372 N 
ATOM      3  N   UNL     1       0.556 -11.773  -3.061  0.00  0.00    -0.372 N 
ATOM      4  C   UNL     1       1.717 -12.106  -3.636  0.00  0.00    +0.166 C 
ATOM      5  H   UNL     1       3.272 -11.566  -4.820  0.00  0.00    +0.163 HD
ATOM      6  H   UNL     1       1.735 -13.980  -2.790  0.00  0.00    +0.159 HD
ATOM      7  H   UNL     1       3.083 -13.638  -3.809  0.00  0.00    +0.159 HD
ATOM      8  H   UNL     1       0.129 -10.867  -3.201  0.00  0.00    +0.159 HD
ATOM      9  H   UNL     1       0.066 -12.413  -2.448  0.00  0.00    +0.159 HD
ENDROOT
BRANCH   1  10
ATOM     10  C   UNL     1       1.898  -9.937  -4.814  0.00  0.00    +0.151 C 
BRANCH  10  11
ATOM     11  C   UNL     1       2.991  -9.203  -5.541  0.00  0.00    -0.028 A 
ATOM     12  C   UNL     1       2.701  -8.050  -6.284  0.00  0.00    +0.005 A 
ATOM     13  C   UNL     1       4.319  -9.653  -5.486  0.00  0.00    +0.005 A 
ATOM     14  C   UNL     1       3.721  -7.350  -6.935  0.00  0.00    +0.000 A 
ATOM     15  C   UNL     1       5.334  -8.953  -6.138  0.00  0.00    +0.000 A 
ATOM     16  C   UNL     1       5.035  -7.800  -6.860  0.00  0.00    +0.000 A 
ENDBRANCH  10  11
ENDBRANCH   1  10
TORSDOF 2
ENDMDL
MODEL 9
REMARK VINA RESULT:    -4.255     31.942     33.466
REMARK INTER + INTRA:          -4.871
REMARK INTER:                  -4.734
REMARK INTRA:                  -0.138
REMARK UNBOUND:                -0.119
REMARK  Name = 1550473
REMARK  2 active torsions:
REMARK  status: ('A' for Active; 'I' for Inactive)
REMARK    1  A    between atoms: N_1  and  C_4
REMARK    2  A    between atoms: C_4  and  C_5
REMARK                            x       y       z     vdW  Elec       q    Type
REMARK                         _______ _______ _______ _____ _____    ______ ____
ROOT
ATOM      1  N   UNL     1      14.574  11.301  14.622  0.00  0.00    -0.354 N 
ATOM      2  N   UNL     1      15.538  13.377  14.269  0.00  0.00    -0.372 N 
ATOM      3  N   UNL     1      16.900  11.542  14.469  0.00  0.00    -0.372 N 
ATOM      4  C   UNL     1      15.667  12.058  14.456  0.00  0.00    +0.166 C 
ATOM      5  H   UNL     1      13.669  11.757  14.632  0.00  0.00    +0.163 HD
ATOM      6  H   UNL     1      16.343  13.974  14.138  0.00  0.00    +0.159 HD
ATOM      7  H   UNL     1      14.629  13.824  14.234  0.00  0.00    +0.159 HD
ATOM      8  H   UNL     1      17.066  10.554  14.612  0.00  0.00    +0.159 HD
ATOM      9  H   UNL     1      17.720  12.124  14.351  0.00  0.00    +0.159 HD
ENDROOT
BRANCH   1  10
ATOM     10  C   UNL     1      14.602   9.848  14.779  0.00  0.00    +0.151 C 
BRANCH  10  11
ATOM     11  C   UNL     1      13.737   9.222  13.720  0.00  0.00    -0.028 A 
ATOM     12  C   UNL     1      13.488   7.842  13.728  0.00  0.00    +0.005 A 
ATOM     13  C   UNL     1      13.159  10.005  12.709  0.00  0.00    +0.005 A 
ATOM     14  C   UNL     1      12.660   7.265  12.762  0.00  0.00    +0.000 A 
ATOM     15  C   UNL     1      12.334   9.425  11.745  0.00  0.00    +0.000 A 
ATOM     16  C   UNL     1      12.083   8.056  11.774  0.00  0.00    +0.000 A 
ENDBRANCH  10  11
ENDBRANCH   1  10
TORSDOF 2
ENDMDL
