MODEL 1
REMARK VINA RESULT:    -6.044      0.000      0.000
REMARK INTER + INTRA:          -6.863
REMARK INTER:                  -6.751
REMARK INTRA:                  -0.113
REMARK UNBOUND:                -0.113
REMARK  Name = 1550473
REMARK  2 active torsions:
REMARK  status: ('A' for Active; 'I' for Inactive)
REMARK    1  A    between atoms: N_1  and  C_4
REMARK    2  A    between atoms: C_4  and  C_5
REMARK                            x       y       z     vdW  Elec       q    Type
REMARK                         _______ _______ _______ _____ _____    ______ ____
ROOT
ATOM      1  N   UNL     1      -7.968   3.213  14.481  0.00  0.00    -0.354 N 
ATOM      2  N   UNL     1      -7.845   1.309  13.167  0.00  0.00    -0.372 N 
ATOM      3  N   UNL     1      -6.613   1.404  15.101  0.00  0.00    -0.372 N 
ATOM      4  C   UNL     1      -7.474   1.987  14.261  0.00  0.00    +0.166 C 
ATOM      5  H   UNL     1      -8.594   3.611  13.791  0.00  0.00    +0.163 HD
ATOM      6  H   UNL     1      -7.491   0.381  12.976  0.00  0.00    +0.159 HD
ATOM      7  H   UNL     1      -8.505   1.691  12.502  0.00  0.00    +0.159 HD
ATOM      8  H   UNL     1      -6.289   1.865  15.941  0.00  0.00    +0.159 HD
ATOM      9  H   UNL     1      -6.239   0.481  14.921  0.00  0.00    +0.159 HD
ENDROOT
BRANCH   1  10
ATOM     10  C   UNL     1      -7.670   4.013  15.668  0.00  0.00    +0.151 C 
BRANCH  10  11
ATOM     11  C   UNL     1      -8.610   5.186  15.718  0.00  0.00    -0.028 A 
ATOM     12  C   UNL     1      -9.009   5.829  14.537  0.00  0.00    +0.005 A 
ATOM     13  C   UNL     1      -9.109   5.655  16.943  0.00  0.00    +0.005 A 
ATOM     14  C   UNL     1      -9.905   6.900  14.581  0.00  0.00    +0.000 A 
ATOM     15  C   UNL     1     -10.003   6.725  16.982  0.00  0.00    +0.000 A 
ATOM     16  C   UNL     1     -10.403   7.345  15.801  0.00  0.00    +0.000 A 
ENDBRANCH  10  11
ENDBRANCH   1  10
TORSDOF 2
ENDMDL
MODEL 2
REMARK VINA RESULT:    -5.781      1.765      3.077
REMARK INTER + INTRA:          -6.570
REMARK INTER:                  -6.461
REMARK INTRA:                  -0.109
REMARK UNBOUND:                -0.113
REMARK  Name = 1550473
REMARK  2 active torsions:
REMARK  status: ('A' for Active; 'I' for Inactive)
REMARK    1  A    between atoms: N_1  and  C_4
REMARK    2  A    between atoms: C_4  and  C_5
REMARK                            x       y       z     vdW  Elec       q    Type
REMARK                         _______ _______ _______ _____ _____    ______ ____
ROOT
ATOM      1  N   UNL     1      -9.191   5.312  15.517  0.00  0.00    -0.354 N 
ATOM      2  N   UNL     1      -8.178   3.859  14.025  0.00  0.00    -0.372 N 
ATOM      3  N   UNL     1      -7.358   4.004  16.163  0.00  0.00    -0.372 N 
ATOM      4  C   UNL     1      -8.247   4.401  15.247  0.00  0.00    +0.166 C 
ATOM      5  H   UNL     1      -9.816   5.593  14.770  0.00  0.00    +0.163 HD
ATOM      6  H   UNL     1      -7.479   3.167  13.793  0.00  0.00    +0.159 HD
ATOM      7  H   UNL     1      -8.833   4.108  13.294  0.00  0.00    +0.159 HD
ATOM      8  H   UNL     1      -7.352   4.378  17.102  0.00  0.00    +0.159 HD
ATOM      9  H   UNL     1      -6.643   3.320  15.946  0.00  0.00    +0.159 HD
ENDROOT
BRANCH   1  10
ATOM     10  C   UNL     1      -9.386   5.923  16.831  0.00  0.00    +0.151 C 
BRANCH  10  11
ATOM     11  C   UNL     1     -10.426   7.004  16.720  0.00  0.00    -0.028 A 
ATOM     12  C   UNL     1     -11.468   7.087  17.656  0.00  0.00    +0.005 A 
ATOM     13  C   UNL     1     -10.372   7.951  15.687  0.00  0.00    +0.005 A 
ATOM     14  C   UNL     1     -12.418   8.108  17.571  0.00  0.00    +0.000 A 
ATOM     15  C   UNL     1     -11.322   8.969  15.605  0.00  0.00    +0.000 A 
ATOM     16  C   UNL     1     -12.343   9.048  16.549  0.00  0.00    +0.000 A 
ENDBRANCH  10  11
ENDBRANCH   1  10
TORSDOF 2
ENDMDL
MODEL 3
REMARK VINA RESULT:    -5.351      1.611      2.107
REMARK INTER + INTRA:          -6.089
REMARK INTER:                  -5.985
REMARK INTRA:                  -0.104
REMARK UNBOUND:                -0.113
REMARK  Name = 1550473
REMARK  2 active torsions:
REMARK  status: ('A' for Active; 'I' for Inactive)
REMARK    1  A    between atoms: N_1  and  C_4
REMARK    2  A    between atoms: C_4  and  C_5
REMARK                            x       y       z     vdW  Elec       q    Type
REMARK                         _______ _______ _______ _____ _____    ______ ____
ROOT
ATOM      1  N   UNL     1      -7.924   4.089  17.161  0.00  0.00    -0.354 N 
ATOM      2  N   UNL     1      -6.250   2.849  16.148  0.00  0.00    -0.372 N 
ATOM      3  N   UNL     1      -8.405   2.062  16.087  0.00  0.00    -0.372 N 
ATOM      4  C   UNL     1      -7.540   3.006  16.472  0.00  0.00    +0.166 C 
ATOM      5  H   UNL     1      -7.214   4.753  17.449  0.00  0.00    +0.163 HD
ATOM      6  H   UNL     1      -5.931   2.044  15.626  0.00  0.00    +0.159 HD
ATOM      7  H   UNL     1      -5.550   3.537  16.397  0.00  0.00    +0.159 HD
ATOM      8  H   UNL     1      -9.391   2.119  16.305  0.00  0.00    +0.159 HD
ATOM      9  H   UNL     1      -8.103   1.244  15.574  0.00  0.00    +0.159 HD
ENDROOT
BRANCH   1  10
ATOM     10  C   UNL     1      -9.311   4.382  17.516  0.00  0.00    +0.151 C 
BRANCH  10  11
ATOM     11  C   UNL     1      -9.736   5.651  16.830  0.00  0.00    -0.028 A 
ATOM     12  C   UNL     1      -9.184   6.010  15.592  0.00  0.00    +0.005 A 
ATOM     13  C   UNL     1     -10.695   6.495  17.410  0.00  0.00    +0.005 A 
ATOM     14  C   UNL     1      -9.601   7.173  14.940  0.00  0.00    +0.000 A 
ATOM     15  C   UNL     1     -11.108   7.656  16.757  0.00  0.00    +0.000 A 
ATOM     16  C   UNL     1     -10.563   7.993  15.520  0.00  0.00    +0.000 A 
ENDBRANCH  10  11
ENDBRANCH   1  10
TORSDOF 2
ENDMDL
MODEL 4
REMARK VINA RESULT:    -5.214      2.199      3.205
REMARK INTER + INTRA:          -5.937
REMARK INTER:                  -5.808
REMARK INTRA:                  -0.129
REMARK UNBOUND:                -0.113
REMARK  Name = 1550473
REMARK  2 active torsions:
REMARK  status: ('A' for Active; 'I' for Inactive)
REMARK    1  A    between atoms: N_1  and  C_4
REMARK    2  A    between atoms: C_4  and  C_5
REMARK                            x       y       z     vdW  Elec       q    Type
REMARK                         _______ _______ _______ _____ _____    ______ ____
ROOT
ATOM      1  N   UNL     1      -9.070   5.304  16.814  0.00  0.00    -0.354 N 
ATOM      2  N   UNL     1      -7.339   4.093  15.865  0.00  0.00    -0.372 N 
ATOM      3  N   UNL     1      -9.101   2.961  16.804  0.00  0.00    -0.372 N 
ATOM      4  C   UNL     1      -8.516   4.125  16.502  0.00  0.00    +0.166 C 
ATOM      5  H   UNL     1      -8.562   6.151  16.584  0.00  0.00    +0.163 HD
ATOM      6  H   UNL     1      -6.899   3.218  15.614  0.00  0.00    +0.159 HD
ATOM      7  H   UNL     1      -6.856   4.940  15.595  0.00  0.00    +0.159 HD
ATOM      8  H   UNL     1      -9.987   2.917  17.290  0.00  0.00    +0.159 HD
ATOM      9  H   UNL     1      -8.670   2.075  16.571  0.00  0.00    +0.159 HD
ENDROOT
BRANCH   1  10
ATOM     10  C   UNL     1     -10.374   5.450  17.459  0.00  0.00    +0.151 C 
BRANCH  10  11
ATOM     11  C   UNL     1     -10.954   6.789  17.096  0.00  0.00    -0.028 A 
ATOM     12  C   UNL     1     -10.446   7.515  16.009  0.00  0.00    +0.005 A 
ATOM     13  C   UNL     1     -12.017   7.336  17.832  0.00  0.00    +0.005 A 
ATOM     14  C   UNL     1     -11.004   8.745  15.653  0.00  0.00    +0.000 A 
ATOM     15  C   UNL     1     -12.571   8.565  17.474  0.00  0.00    +0.000 A 
ATOM     16  C   UNL     1     -12.066   9.268  16.383  0.00  0.00    +0.000 A 
ENDBRANCH  10  11
ENDBRANCH   1  10
TORSDOF 2
ENDMDL
MODEL 5
REMARK VINA RESULT:    -5.001      6.895      8.929
REMARK INTER + INTRA:          -5.698
REMARK INTER:                  -5.570
REMARK INTRA:                  -0.128
REMARK UNBOUND:                -0.113
REMARK  Name = 1550473
REMARK  2 active torsions:
REMARK  status: ('A' for Active; 'I' for Inactive)
REMARK    1  A    between atoms: N_1  and  C_4
REMARK    2  A    between atoms: C_4  and  C_5
REMARK                            x       y       z     vdW  Elec       q    Type
REMARK                         _______ _______ _______ _____ _____    ______ ____
ROOT
ATOM      1  N   UNL     1     -14.124  10.400  18.945  0.00  0.00    -0.354 N 
ATOM      2  N   UNL     1     -15.567  10.589  20.746  0.00  0.00    -0.372 N 
ATOM      3  N   UNL     1     -16.264  11.321  18.686  0.00  0.00    -0.372 N 
ATOM      4  C   UNL     1     -15.310  10.770  19.445  0.00  0.00    +0.166 C 
ATOM      5  H   UNL     1     -13.432  10.016  19.579  0.00  0.00    +0.163 HD
ATOM      6  H   UNL     1     -16.454  10.856  21.152  0.00  0.00    +0.159 HD
ATOM      7  H   UNL     1     -14.891  10.163  21.369  0.00  0.00    +0.159 HD
ATOM      8  H   UNL     1     -16.130  11.489  17.698  0.00  0.00    +0.159 HD
ATOM      9  H   UNL     1     -17.154  11.604  19.076  0.00  0.00    +0.159 HD
ENDROOT
BRANCH   1  10
ATOM     10  C   UNL     1     -13.765  10.504  17.531  0.00  0.00    +0.151 C 
BRANCH  10  11
ATOM     11  C   UNL     1     -12.763   9.433  17.199  0.00  0.00    -0.028 A 
ATOM     12  C   UNL     1     -12.738   8.232  17.923  0.00  0.00    +0.005 A 
ATOM     13  C   UNL     1     -11.839   9.611  16.158  0.00  0.00    +0.005 A 
ATOM     14  C   UNL     1     -11.827   7.225  17.596  0.00  0.00    +0.000 A 
ATOM     15  C   UNL     1     -10.931   8.603  15.834  0.00  0.00    +0.000 A 
ATOM     16  C   UNL     1     -10.927   7.409  16.552  0.00  0.00    +0.000 A 
ENDBRANCH  10  11
ENDBRANCH   1  10
TORSDOF 2
ENDMDL
MODEL 6
REMARK VINA RESULT:    -4.749      4.394      5.524
REMARK INTER + INTRA:          -5.417
REMARK INTER:                  -5.247
REMARK INTRA:                  -0.170
REMARK UNBOUND:                -0.113
REMARK  Name = 1550473
REMARK  2 active torsions:
REMARK  status: ('A' for Active; 'I' for Inactive)
REMARK    1  A    between atoms: N_1  and  C_4
REMARK    2  A    between atoms: C_4  and  C_5
REMARK                            x       y       z     vdW  Elec       q    Type
REMARK                         _______ _______ _______ _____ _____    ______ ____
ROOT
ATOM      1  N   UNL     1      -9.620   5.931  19.279  0.00  0.00    -0.354 N 
ATOM      2  N   UNL     1      -9.245   6.183  21.551  0.00  0.00    -0.372 N 
ATOM      3  N   UNL     1     -11.269   5.366  20.844  0.00  0.00    -0.372 N 
ATOM      4  C   UNL     1     -10.050   5.824  20.543  0.00  0.00    +0.166 C 
ATOM      5  H   UNL     1      -8.695   6.314  19.116  0.00  0.00    +0.163 HD
ATOM      6  H   UNL     1      -9.541   6.110  22.515  0.00  0.00    +0.159 HD
ATOM      7  H   UNL     1      -8.305   6.522  21.387  0.00  0.00    +0.159 HD
ATOM      8  H   UNL     1     -11.927   5.084  20.130  0.00  0.00    +0.159 HD
ATOM      9  H   UNL     1     -11.588   5.296  21.803  0.00  0.00    +0.159 HD
ENDROOT
BRANCH   1  10
ATOM     10  C   UNL     1     -10.398   5.517  18.113  0.00  0.00    +0.151 C 
BRANCH  10  11
ATOM     11  C   UNL     1     -10.820   6.739  17.345  0.00  0.00    -0.028 A 
ATOM     12  C   UNL     1     -11.909   7.510  17.778  0.00  0.00    +0.005 A 
ATOM     13  C   UNL     1     -10.132   7.135  16.188  0.00  0.00    +0.005 A 
ATOM     14  C   UNL     1     -12.283   8.663  17.082  0.00  0.00    +0.000 A 
ATOM     15  C   UNL     1     -10.510   8.286  15.496  0.00  0.00    +0.000 A 
ATOM     16  C   UNL     1     -11.583   9.050  15.944  0.00  0.00    +0.000 A 
ENDBRANCH  10  11
ENDBRANCH   1  10
TORSDOF 2
ENDMDL
MODEL 7
REMARK VINA RESULT:    -4.669     21.338     21.660
REMARK INTER + INTRA:          -5.327
REMARK INTER:                  -5.194
REMARK INTRA:                  -0.133
REMARK UNBOUND:                -0.113
REMARK  Name = 1550473
REMARK  2 active torsions:
REMARK  status: ('A' for Active; 'I' for Inactive)
REMARK    1  A    between atoms: N_1  and  C_4
REMARK    2  A    between atoms: C_4  and  C_5
REMARK                            x       y       z     vdW  Elec       q    Type
REMARK                         _______ _______ _______ _____ _____    ______ ____
ROOT
ATOM      1  N   UNL     1       8.327  18.884  13.437  0.00  0.00    -0.354 N 
ATOM      2  N   UNL     1       9.454  20.161  11.867  0.00  0.00    -0.372 N 
ATOM      3  N   UNL     1      10.666  19.038  13.459  0.00  0.00    -0.372 N 
ATOM      4  C   UNL     1       9.477  19.352  12.933  0.00  0.00    +0.166 C 
ATOM      5  H   UNL     1       7.458  19.184  13.011  0.00  0.00    +0.163 HD
ATOM      6  H   UNL     1      10.305  20.527  11.463  0.00  0.00    +0.159 HD
ATOM      7  H   UNL     1       8.586  20.422  11.415  0.00  0.00    +0.159 HD
ATOM      8  H   UNL     1      10.751  18.437  14.268  0.00  0.00    +0.159 HD
ATOM      9  H   UNL     1      11.528  19.404  13.076  0.00  0.00    +0.159 HD
ENDROOT
BRANCH   1  10
ATOM     10  C   UNL     1       8.246  17.954  14.562  0.00  0.00    +0.151 C 
BRANCH  10  11
ATOM     11  C   UNL     1       7.027  18.279  15.381  0.00  0.00    -0.028 A 
ATOM     12  C   UNL     1       6.535  19.591  15.435  0.00  0.00    +0.005 A 
ATOM     13  C   UNL     1       6.357  17.278  16.101  0.00  0.00    +0.005 A 
ATOM     14  C   UNL     1       5.385  19.888  16.171  0.00  0.00    +0.000 A 
ATOM     15  C   UNL     1       5.210  17.579  16.836  0.00  0.00    +0.000 A 
ATOM     16  C   UNL     1       4.723  18.883  16.868  0.00  0.00    +0.000 A 
ENDBRANCH  10  11
ENDBRANCH   1  10
TORSDOF 2
ENDMDL
MODEL 8
REMARK VINA RESULT:    -4.649      3.855      4.706
REMARK INTER + INTRA:          -5.306
REMARK INTER:                  -5.177
REMARK INTRA:                  -0.129
REMARK UNBOUND:                -0.113
REMARK  Name = 1550473
REMARK  2 active torsions:
REMARK  status: ('A' for Active; 'I' for Inactive)
REMARK    1  A    between atoms: N_1  and  C_4
REMARK    2  A    between atoms: C_4  and  C_5
REMARK                            x       y       z     vdW  Elec       q    Type
REMARK                         _______ _______ _______ _____ _____    ______ ____
ROOT
ATOM      1  N   UNL     1      -7.894   4.798  19.172  0.00  0.00    -0.354 N 
ATOM      2  N   UNL     1      -6.946   4.082  21.161  0.00  0.00    -0.372 N 
ATOM      3  N   UNL     1      -6.226   6.054  20.235  0.00  0.00    -0.372 N 
ATOM      4  C   UNL     1      -7.027   4.985  20.176  0.00  0.00    +0.166 C 
ATOM      5  H   UNL     1      -8.451   3.951  19.169  0.00  0.00    +0.163 HD
ATOM      6  H   UNL     1      -6.304   4.198  21.933  0.00  0.00    +0.159 HD
ATOM      7  H   UNL     1      -7.537   3.260  21.179  0.00  0.00    +0.159 HD
ATOM      8  H   UNL     1      -6.234   6.769  19.520  0.00  0.00    +0.159 HD
ATOM      9  H   UNL     1      -5.568   6.183  20.994  0.00  0.00    +0.159 HD
ENDROOT
BRANCH   1  10
ATOM     10  C   UNL     1      -8.097   5.747  18.079  0.00  0.00    +0.151 C 
BRANCH  10  11
ATOM     11  C   UNL     1      -9.543   6.162  18.052  0.00  0.00    -0.028 A 
ATOM     12  C   UNL     1     -10.075   6.814  16.930  0.00  0.00    +0.005 A 
ATOM     13  C   UNL     1     -10.387   5.900  19.142  0.00  0.00    +0.005 A 
ATOM     14  C   UNL     1     -11.425   7.172  16.892  0.00  0.00    +0.000 A 
ATOM     15  C   UNL     1     -11.733   6.260  19.100  0.00  0.00    +0.000 A 
ATOM     16  C   UNL     1     -12.252   6.894  17.974  0.00  0.00    +0.000 A 
ENDBRANCH  10  11
ENDBRANCH   1  10
TORSDOF 2
ENDMDL
MODEL 9
REMARK VINA RESULT:    -4.561     42.563     43.759
REMARK INTER + INTRA:          -5.207
REMARK INTER:                  -5.071
REMARK INTRA:                  -0.136
REMARK UNBOUND:                -0.113
REMARK  Name = 1550473
REMARK  2 active torsions:
REMARK  status: ('A' for Active; 'I' for Inactive)
REMARK    1  A    between atoms: N_1  and  C_4
REMARK    2  A    between atoms: C_4  and  C_5
REMARK                            x       y       z     vdW  Elec       q    Type
REMARK                         _______ _______ _______ _____ _____    ______ ____
ROOT
ATOM      1  N   UNL     1      -8.936 -10.254 -25.426  0.00  0.00    -0.354 N 
ATOM      2  N   UNL     1      -7.999  -8.672 -26.834  0.00  0.00    -0.372 N 
ATOM      3  N   UNL     1      -9.474 -10.198 -27.707  0.00  0.00    -0.372 N 
ATOM      4  C   UNL     1      -8.810  -9.720 -26.649  0.00  0.00    +0.166 C 
ATOM      5  H   UNL     1      -8.383  -9.864 -24.672  0.00  0.00    +0.163 HD
ATOM      6  H   UNL     1      -7.886  -8.245 -27.744  0.00  0.00    +0.159 HD
ATOM      7  H   UNL     1      -7.482  -8.256 -26.069  0.00  0.00    +0.159 HD
ATOM      8  H   UNL     1     -10.097 -10.991 -27.634  0.00  0.00    +0.159 HD
ATOM      9  H   UNL     1      -9.365  -9.792 -28.628  0.00  0.00    +0.159 HD
ENDROOT
BRANCH   1  10
ATOM     10  C   UNL     1      -9.834 -11.362 -25.107  0.00  0.00    +0.151 C 
BRANCH  10  11
ATOM     11  C   UNL     1      -9.029 -12.500 -24.543  0.00  0.00    -0.028 A 
ATOM     12  C   UNL     1      -9.148 -13.791 -25.078  0.00  0.00    +0.005 A 
ATOM     13  C   UNL     1      -8.140 -12.293 -23.477  0.00  0.00    +0.005 A 
ATOM     14  C   UNL     1      -8.378 -14.842 -24.574  0.00  0.00    +0.000 A 
ATOM     15  C   UNL     1      -7.374 -13.345 -22.976  0.00  0.00    +0.000 A 
ATOM     16  C   UNL     1      -7.491 -14.619 -23.527  0.00  0.00    +0.000 A 
ENDBRANCH  10  11
ENDBRANCH   1  10
TORSDOF 2
ENDMDL
