MODEL 1
REMARK VINA RESULT:    -5.301      0.000      0.000
REMARK INTER + INTRA:          -6.078
REMARK INTER:                  -5.921
REMARK INTRA:                  -0.157
REMARK UNBOUND:                -0.157
REMARK  Name = 1550473
REMARK  2 active torsions:
REMARK  status: ('A' for Active; 'I' for Inactive)
REMARK    1  A    between atoms: N_1  and  C_4
REMARK    2  A    between atoms: C_4  and  C_5
REMARK                            x       y       z     vdW  Elec       q    Type
REMARK                         _______ _______ _______ _____ _____    ______ ____
ROOT
ATOM      1  N   UNL     1      -3.204  21.838   7.322  0.00  0.00    -0.354 N 
ATOM      2  N   UNL     1      -2.500  23.993   7.799  0.00  0.00    -0.372 N 
ATOM      3  N   UNL     1      -1.546  22.238   8.929  0.00  0.00    -0.372 N 
ATOM      4  C   UNL     1      -2.420  22.674   8.016  0.00  0.00    +0.166 C 
ATOM      5  H   UNL     1      -3.868  22.234   6.666  0.00  0.00    +0.163 HD
ATOM      6  H   UNL     1      -1.918  24.647   8.305  0.00  0.00    +0.159 HD
ATOM      7  H   UNL     1      -3.131  24.382   7.110  0.00  0.00    +0.159 HD
ATOM      8  H   UNL     1      -1.441  21.255   9.143  0.00  0.00    +0.159 HD
ATOM      9  H   UNL     1      -0.963  22.878   9.453  0.00  0.00    +0.159 HD
ENDROOT
BRANCH   1  10
ATOM     10  C   UNL     1      -3.157  20.382   7.444  0.00  0.00    +0.151 C 
BRANCH  10  11
ATOM     11  C   UNL     1      -4.482  19.889   7.957  0.00  0.00    -0.028 A 
ATOM     12  C   UNL     1      -5.515  19.564   7.066  0.00  0.00    +0.005 A 
ATOM     13  C   UNL     1      -4.709  19.740   9.334  0.00  0.00    +0.005 A 
ATOM     14  C   UNL     1      -6.735  19.077   7.541  0.00  0.00    +0.000 A 
ATOM     15  C   UNL     1      -5.929  19.254   9.805  0.00  0.00    +0.000 A 
ATOM     16  C   UNL     1      -6.941  18.921   8.908  0.00  0.00    +0.000 A 
ENDBRANCH  10  11
ENDBRANCH   1  10
TORSDOF 2
ENDMDL
MODEL 2
REMARK VINA RESULT:    -5.216     19.633     20.642
REMARK INTER + INTRA:          -5.983
REMARK INTER:                  -5.823
REMARK INTRA:                  -0.160
REMARK UNBOUND:                -0.157
REMARK  Name = 1550473
REMARK  2 active torsions:
REMARK  status: ('A' for Active; 'I' for Inactive)
REMARK    1  A    between atoms: N_1  and  C_4
REMARK    2  A    between atoms: C_4  and  C_5
REMARK                            x       y       z     vdW  Elec       q    Type
REMARK                         _______ _______ _______ _____ _____    ______ ____
ROOT
ATOM      1  N   UNL     1      -0.978   2.388  13.875  0.00  0.00    -0.354 N 
ATOM      2  N   UNL     1       0.354   1.247  12.364  0.00  0.00    -0.372 N 
ATOM      3  N   UNL     1      -1.392   0.140  13.359  0.00  0.00    -0.372 N 
ATOM      4  C   UNL     1      -0.682   1.264  13.210  0.00  0.00    +0.166 C 
ATOM      5  H   UNL     1      -0.383   3.198  13.741  0.00  0.00    +0.163 HD
ATOM      6  H   UNL     1       0.600   0.414  11.845  0.00  0.00    +0.159 HD
ATOM      7  H   UNL     1       0.919   2.071  12.197  0.00  0.00    +0.159 HD
ATOM      8  H   UNL     1      -2.182   0.085  13.987  0.00  0.00    +0.159 HD
ATOM      9  H   UNL     1      -1.154  -0.707  12.858  0.00  0.00    +0.159 HD
ENDROOT
BRANCH   1  10
ATOM     10  C   UNL     1      -2.119   2.528  14.779  0.00  0.00    +0.151 C 
BRANCH  10  11
ATOM     11  C   UNL     1      -1.621   2.542  16.198  0.00  0.00    -0.028 A 
ATOM     12  C   UNL     1      -0.365   3.085  16.507  0.00  0.00    +0.005 A 
ATOM     13  C   UNL     1      -2.404   2.021  17.240  0.00  0.00    +0.005 A 
ATOM     14  C   UNL     1       0.084   3.126  17.829  0.00  0.00    +0.000 A 
ATOM     15  C   UNL     1      -1.951   2.063  18.558  0.00  0.00    +0.000 A 
ATOM     16  C   UNL     1      -0.708   2.618  18.853  0.00  0.00    +0.000 A 
ENDBRANCH  10  11
ENDBRANCH   1  10
TORSDOF 2
ENDMDL
MODEL 3
REMARK VINA RESULT:    -4.917     11.822     12.857
REMARK INTER + INTRA:          -5.649
REMARK INTER:                  -5.524
REMARK INTRA:                  -0.125
REMARK UNBOUND:                -0.157
REMARK  Name = 1550473
REMARK  2 active torsions:
REMARK  status: ('A' for Active; 'I' for Inactive)
REMARK    1  A    between atoms: N_1  and  C_4
REMARK    2  A    between atoms: C_4  and  C_5
REMARK                            x       y       z     vdW  Elec       q    Type
REMARK                         _______ _______ _______ _____ _____    ______ ____
ROOT
ATOM      1  N   UNL     1       2.820  13.367   4.544  0.00  0.00    -0.354 N 
ATOM      2  N   UNL     1       2.651  14.798   6.357  0.00  0.00    -0.372 N 
ATOM      3  N   UNL     1       0.968  13.287   5.976  0.00  0.00    -0.372 N 
ATOM      4  C   UNL     1       2.145  13.807   5.614  0.00  0.00    +0.166 C 
ATOM      5  H   UNL     1       3.693  13.823   4.305  0.00  0.00    +0.163 HD
ATOM      6  H   UNL     1       2.166  15.149   7.172  0.00  0.00    +0.159 HD
ATOM      7  H   UNL     1       3.546  15.221   6.142  0.00  0.00    +0.159 HD
ATOM      8  H   UNL     1       0.528  12.540   5.454  0.00  0.00    +0.159 HD
ATOM      9  H   UNL     1       0.461  13.632   6.782  0.00  0.00    +0.159 HD
ENDROOT
BRANCH   1  10
ATOM     10  C   UNL     1       2.382  12.256   3.700  0.00  0.00    +0.151 C 
BRANCH  10  11
ATOM     11  C   UNL     1       3.430  11.178   3.724  0.00  0.00    -0.028 A 
ATOM     12  C   UNL     1       3.401  10.135   2.787  0.00  0.00    +0.005 A 
ATOM     13  C   UNL     1       4.459  11.197   4.679  0.00  0.00    +0.005 A 
ATOM     14  C   UNL     1       4.391   9.150   2.790  0.00  0.00    +0.000 A 
ATOM     15  C   UNL     1       5.446  10.211   4.679  0.00  0.00    +0.000 A 
ATOM     16  C   UNL     1       5.413   9.189   3.733  0.00  0.00    +0.000 A 
ENDBRANCH  10  11
ENDBRANCH   1  10
TORSDOF 2
ENDMDL
MODEL 4
REMARK VINA RESULT:    -4.912      3.456      5.166
REMARK INTER + INTRA:          -5.644
REMARK INTER:                  -5.504
REMARK INTRA:                  -0.140
REMARK UNBOUND:                -0.157
REMARK  Name = 1550473
REMARK  2 active torsions:
REMARK  status: ('A' for Active; 'I' for Inactive)
REMARK    1  A    between atoms: N_1  and  C_4
REMARK    2  A    between atoms: C_4  and  C_5
REMARK                            x       y       z     vdW  Elec       q    Type
REMARK                         _______ _______ _______ _____ _____    ______ ____
ROOT
ATOM      1  N   UNL     1      -5.261  17.630   7.137  0.00  0.00    -0.354 N 
ATOM      2  N   UNL     1      -5.021  15.673   5.921  0.00  0.00    -0.372 N 
ATOM      3  N   UNL     1      -5.313  15.538   8.193  0.00  0.00    -0.372 N 
ATOM      4  C   UNL     1      -5.200  16.292   7.094  0.00  0.00    +0.166 C 
ATOM      5  H   UNL     1      -5.137  18.145   6.273  0.00  0.00    +0.163 HD
ATOM      6  H   UNL     1      -4.974  14.665   5.857  0.00  0.00    +0.159 HD
ATOM      7  H   UNL     1      -4.944  16.189   5.053  0.00  0.00    +0.159 HD
ATOM      8  H   UNL     1      -5.444  15.944   9.110  0.00  0.00    +0.159 HD
ATOM      9  H   UNL     1      -5.258  14.528   8.151  0.00  0.00    +0.159 HD
ENDROOT
BRANCH   1  10
ATOM     10  C   UNL     1      -5.507  18.398   8.356  0.00  0.00    +0.151 C 
BRANCH  10  11
ATOM     11  C   UNL     1      -4.557  19.564   8.402  0.00  0.00    -0.028 A 
ATOM     12  C   UNL     1      -4.805  20.650   9.254  0.00  0.00    +0.005 A 
ATOM     13  C   UNL     1      -3.405  19.584   7.601  0.00  0.00    +0.005 A 
ATOM     14  C   UNL     1      -3.908  21.719   9.319  0.00  0.00    +0.000 A 
ATOM     15  C   UNL     1      -2.512  20.654   7.669  0.00  0.00    +0.000 A 
ATOM     16  C   UNL     1      -2.763  21.720   8.529  0.00  0.00    +0.000 A 
ENDBRANCH  10  11
ENDBRANCH   1  10
TORSDOF 2
ENDMDL
MODEL 5
REMARK VINA RESULT:    -4.884     13.040     14.121
REMARK INTER + INTRA:          -5.612
REMARK INTER:                  -5.501
REMARK INTRA:                  -0.112
REMARK UNBOUND:                -0.157
REMARK  Name = 1550473
REMARK  2 active torsions:
REMARK  status: ('A' for Active; 'I' for Inactive)
REMARK    1  A    between atoms: N_1  and  C_4
REMARK    2  A    between atoms: C_4  and  C_5
REMARK                            x       y       z     vdW  Elec       q    Type
REMARK                         _______ _______ _______ _____ _____    ______ ____
ROOT
ATOM      1  N   UNL     1       5.013  10.551   3.015  0.00  0.00    -0.354 N 
ATOM      2  N   UNL     1       4.458   9.328   1.128  0.00  0.00    -0.372 N 
ATOM      3  N   UNL     1       6.576   9.139   1.989  0.00  0.00    -0.372 N 
ATOM      4  C   UNL     1       5.355   9.680   2.056  0.00  0.00    +0.166 C 
ATOM      5  H   UNL     1       4.081  10.948   2.993  0.00  0.00    +0.163 HD
ATOM      6  H   UNL     1       4.686   8.670   0.395  0.00  0.00    +0.159 HD
ATOM      7  H   UNL     1       3.512   9.691   1.136  0.00  0.00    +0.159 HD
ATOM      8  H   UNL     1       7.301   9.368   2.655  0.00  0.00    +0.159 HD
ATOM      9  H   UNL     1       6.828   8.488   1.255  0.00  0.00    +0.159 HD
ENDROOT
BRANCH   1  10
ATOM     10  C   UNL     1       5.899  10.959   4.103  0.00  0.00    +0.151 C 
BRANCH  10  11
ATOM     11  C   UNL     1       5.175  11.938   4.986  0.00  0.00    -0.028 A 
ATOM     12  C   UNL     1       3.817  11.754   5.288  0.00  0.00    +0.005 A 
ATOM     13  C   UNL     1       5.841  13.048   5.528  0.00  0.00    +0.005 A 
ATOM     14  C   UNL     1       3.151  12.647   6.132  0.00  0.00    +0.000 A 
ATOM     15  C   UNL     1       5.173  13.937   6.369  0.00  0.00    +0.000 A 
ATOM     16  C   UNL     1       3.829  13.734   6.673  0.00  0.00    +0.000 A 
ENDBRANCH  10  11
ENDBRANCH   1  10
TORSDOF 2
ENDMDL
MODEL 6
REMARK VINA RESULT:    -4.859     76.164     77.292
REMARK INTER + INTRA:          -5.584
REMARK INTER:                  -5.449
REMARK INTRA:                  -0.135
REMARK UNBOUND:                -0.157
REMARK  Name = 1550473
REMARK  2 active torsions:
REMARK  status: ('A' for Active; 'I' for Inactive)
REMARK    1  A    between atoms: N_1  and  C_4
REMARK    2  A    between atoms: C_4  and  C_5
REMARK                            x       y       z     vdW  Elec       q    Type
REMARK                         _______ _______ _______ _____ _____    ______ ____
ROOT
ATOM      1  N   UNL     1      -6.997 -31.417 -47.270  0.00  0.00    -0.354 N 
ATOM      2  N   UNL     1      -9.286 -31.298 -46.932  0.00  0.00    -0.372 N 
ATOM      3  N   UNL     1      -8.373 -30.211 -48.735  0.00  0.00    -0.372 N 
ATOM      4  C   UNL     1      -8.203 -30.974 -47.650  0.00  0.00    +0.166 C 
ATOM      5  H   UNL     1      -6.932 -31.966 -46.421  0.00  0.00    +0.163 HD
ATOM      6  H   UNL     1     -10.209 -30.982 -47.197  0.00  0.00    +0.159 HD
ATOM      7  H   UNL     1      -9.223 -31.886 -46.110  0.00  0.00    +0.159 HD
ATOM      8  H   UNL     1      -7.595 -29.927 -49.317  0.00  0.00    +0.159 HD
ATOM      9  H   UNL     1      -9.287 -29.875 -49.010  0.00  0.00    +0.159 HD
ENDROOT
BRANCH   1  10
ATOM     10  C   UNL     1      -5.763 -31.166 -48.012  0.00  0.00    +0.151 C 
BRANCH  10  11
ATOM     11  C   UNL     1      -4.893 -32.391 -47.947  0.00  0.00    -0.028 A 
ATOM     12  C   UNL     1      -5.304 -33.518 -47.219  0.00  0.00    +0.005 A 
ATOM     13  C   UNL     1      -3.661 -32.434 -48.616  0.00  0.00    +0.005 A 
ATOM     14  C   UNL     1      -4.510 -34.667 -47.183  0.00  0.00    +0.000 A 
ATOM     15  C   UNL     1      -2.871 -33.583 -48.577  0.00  0.00    +0.000 A 
ATOM     16  C   UNL     1      -3.297 -34.700 -47.862  0.00  0.00    +0.000 A 
ENDBRANCH  10  11
ENDBRANCH   1  10
TORSDOF 2
ENDMDL
MODEL 7
REMARK VINA RESULT:    -4.677     58.923     59.999
REMARK INTER + INTRA:          -5.381
REMARK INTER:                  -5.212
REMARK INTRA:                  -0.168
REMARK UNBOUND:                -0.157
REMARK  Name = 1550473
REMARK  2 active torsions:
REMARK  status: ('A' for Active; 'I' for Inactive)
REMARK    1  A    between atoms: N_1  and  C_4
REMARK    2  A    between atoms: C_4  and  C_5
REMARK                            x       y       z     vdW  Elec       q    Type
REMARK                         _______ _______ _______ _____ _____    ______ ____
ROOT
ATOM      1  N   UNL     1      -1.224 -25.089 -31.771  0.00  0.00    -0.354 N 
ATOM      2  N   UNL     1      -3.485 -25.519 -31.513  0.00  0.00    -0.372 N 
ATOM      3  N   UNL     1      -2.697 -23.413 -31.056  0.00  0.00    -0.372 N 
ATOM      4  C   UNL     1      -2.454 -24.669 -31.447  0.00  0.00    +0.166 C 
ATOM      5  H   UNL     1      -1.100 -26.061 -32.031  0.00  0.00    +0.163 HD
ATOM      6  H   UNL     1      -4.425 -25.230 -31.279  0.00  0.00    +0.159 HD
ATOM      7  H   UNL     1      -3.366 -26.478 -31.818  0.00  0.00    +0.159 HD
ATOM      8  H   UNL     1      -1.962 -22.724 -30.980  0.00  0.00    +0.159 HD
ATOM      9  H   UNL     1      -3.630 -23.108 -30.806  0.00  0.00    +0.159 HD
ENDROOT
BRANCH   1  10
ATOM     10  C   UNL     1      -0.042 -24.229 -31.784  0.00  0.00    +0.151 C 
BRANCH  10  11
ATOM     11  C   UNL     1       0.859 -24.613 -30.643  0.00  0.00    -0.028 A 
ATOM     12  C   UNL     1       0.977 -23.784 -29.518  0.00  0.00    +0.005 A 
ATOM     13  C   UNL     1       1.592 -25.809 -30.678  0.00  0.00    +0.005 A 
ATOM     14  C   UNL     1       1.791 -24.156 -28.445  0.00  0.00    +0.000 A 
ATOM     15  C   UNL     1       2.404 -26.176 -29.605  0.00  0.00    +0.000 A 
ATOM     16  C   UNL     1       2.501 -25.351 -28.488  0.00  0.00    +0.000 A 
ENDBRANCH  10  11
ENDBRANCH   1  10
TORSDOF 2
ENDMDL
MODEL 8
REMARK VINA RESULT:    -4.665     57.309     58.406
REMARK INTER + INTRA:          -5.367
REMARK INTER:                  -5.230
REMARK INTRA:                  -0.138
REMARK UNBOUND:                -0.157
REMARK  Name = 1550473
REMARK  2 active torsions:
REMARK  status: ('A' for Active; 'I' for Inactive)
REMARK    1  A    between atoms: N_1  and  C_4
REMARK    2  A    between atoms: C_4  and  C_5
REMARK                            x       y       z     vdW  Elec       q    Type
REMARK                         _______ _______ _______ _____ _____    ______ ____
ROOT
ATOM      1  N   UNL     1      -3.498 -24.697 -31.000  0.00  0.00    -0.354 N 
ATOM      2  N   UNL     1      -3.008 -25.116 -33.225  0.00  0.00    -0.372 N 
ATOM      3  N   UNL     1      -1.390 -24.187 -31.888  0.00  0.00    -0.372 N 
ATOM      4  C   UNL     1      -2.633 -24.663 -32.023  0.00  0.00    +0.166 C 
ATOM      5  H   UNL     1      -4.435 -25.042 -31.175  0.00  0.00    +0.163 HD
ATOM      6  H   UNL     1      -2.375 -25.106 -34.014  0.00  0.00    +0.159 HD
ATOM      7  H   UNL     1      -3.930 -25.503 -33.385  0.00  0.00    +0.159 HD
ATOM      8  H   UNL     1      -1.048 -23.825 -31.009  0.00  0.00    +0.159 HD
ATOM      9  H   UNL     1      -0.747 -24.158 -32.669  0.00  0.00    +0.159 HD
ENDROOT
BRANCH   1  10
ATOM     10  C   UNL     1      -3.172 -24.278 -29.639  0.00  0.00    +0.151 C 
BRANCH  10  11
ATOM     11  C   UNL     1      -4.183 -23.263 -29.182  0.00  0.00    -0.028 A 
ATOM     12  C   UNL     1      -4.719 -22.335 -30.086  0.00  0.00    +0.005 A 
ATOM     13  C   UNL     1      -4.615 -23.229 -27.847  0.00  0.00    +0.005 A 
ATOM     14  C   UNL     1      -5.681 -21.411 -29.669  0.00  0.00    +0.000 A 
ATOM     15  C   UNL     1      -5.575 -22.305 -27.434  0.00  0.00    +0.000 A 
ATOM     16  C   UNL     1      -6.109 -21.398 -28.346  0.00  0.00    +0.000 A 
ENDBRANCH  10  11
ENDBRANCH   1  10
TORSDOF 2
ENDMDL
MODEL 9
REMARK VINA RESULT:    -4.577     11.176     12.228
REMARK INTER + INTRA:          -5.269
REMARK INTER:                  -5.144
REMARK INTRA:                  -0.125
REMARK UNBOUND:                -0.157
REMARK  Name = 1550473
REMARK  2 active torsions:
REMARK  status: ('A' for Active; 'I' for Inactive)
REMARK    1  A    between atoms: N_1  and  C_4
REMARK    2  A    between atoms: C_4  and  C_5
REMARK                            x       y       z     vdW  Elec       q    Type
REMARK                         _______ _______ _______ _____ _____    ______ ____
ROOT
ATOM      1  N   UNL     1       2.987  13.751   1.515  0.00  0.00    -0.354 N 
ATOM      2  N   UNL     1       1.899  14.440  -0.410  0.00  0.00    -0.372 N 
ATOM      3  N   UNL     1       3.930  13.389  -0.600  0.00  0.00    -0.372 N 
ATOM      4  C   UNL     1       2.948  13.855   0.180  0.00  0.00    +0.166 C 
ATOM      5  H   UNL     1       2.226  14.150   2.051  0.00  0.00    +0.163 HD
ATOM      6  H   UNL     1       1.840  14.530  -1.415  0.00  0.00    +0.159 HD
ATOM      7  H   UNL     1       1.118  14.797   0.126  0.00  0.00    +0.159 HD
ATOM      8  H   UNL     1       4.752  12.942  -0.217  0.00  0.00    +0.159 HD
ATOM      9  H   UNL     1       3.895  13.480  -1.608  0.00  0.00    +0.159 HD
ENDROOT
BRANCH   1  10
ATOM     10  C   UNL     1       4.059  13.084   2.252  0.00  0.00    +0.151 C 
BRANCH  10  11
ATOM     11  C   UNL     1       3.625  12.886   3.678  0.00  0.00    -0.028 A 
ATOM     12  C   UNL     1       2.325  13.229   4.081  0.00  0.00    +0.005 A 
ATOM     13  C   UNL     1       4.506  12.352   4.631  0.00  0.00    +0.005 A 
ATOM     14  C   UNL     1       1.912  13.018   5.399  0.00  0.00    +0.000 A 
ATOM     15  C   UNL     1       4.090  12.144   5.946  0.00  0.00    +0.000 A 
ATOM     16  C   UNL     1       2.792  12.474   6.329  0.00  0.00    +0.000 A 
ENDBRANCH  10  11
ENDBRANCH   1  10
TORSDOF 2
ENDMDL
