MODEL 1
REMARK VINA RESULT:    -4.887      0.000      0.000
REMARK INTER + INTRA:          -5.560
REMARK INTER:                  -5.459
REMARK INTRA:                  -0.101
REMARK UNBOUND:                -0.101
REMARK  Name = 1550473
REMARK  2 active torsions:
REMARK  status: ('A' for Active; 'I' for Inactive)
REMARK    1  A    between atoms: N_1  and  C_4
REMARK    2  A    between atoms: C_4  and  C_5
REMARK                            x       y       z     vdW  Elec       q    Type
REMARK                         _______ _______ _______ _____ _____    ______ ____
ROOT
ATOM      1  N   UNL     1     -11.065   2.348  -3.902  0.00  0.00    -0.354 N 
ATOM      2  N   UNL     1     -10.689   4.621  -3.663  0.00  0.00    -0.372 N 
ATOM      3  N   UNL     1     -10.711   3.716  -5.771  0.00  0.00    -0.372 N 
ATOM      4  C   UNL     1     -10.824   3.547  -4.450  0.00  0.00    +0.166 C 
ATOM      5  H   UNL     1     -11.110   2.281  -2.892  0.00  0.00    +0.163 HD
ATOM      6  H   UNL     1     -10.510   5.539  -4.048  0.00  0.00    +0.159 HD
ATOM      7  H   UNL     1     -10.780   4.559  -2.656  0.00  0.00    +0.159 HD
ATOM      8  H   UNL     1     -10.796   2.945  -6.419  0.00  0.00    +0.159 HD
ATOM      9  H   UNL     1     -10.520   4.625  -6.175  0.00  0.00    +0.159 HD
ENDROOT
BRANCH   1  10
ATOM     10  C   UNL     1     -11.281   1.125  -4.673  0.00  0.00    +0.151 C 
BRANCH  10  11
ATOM     11  C   UNL     1     -10.772  -0.049  -3.884  0.00  0.00    -0.028 A 
ATOM     12  C   UNL     1      -9.614  -0.730  -4.287  0.00  0.00    +0.005 A 
ATOM     13  C   UNL     1     -11.440  -0.483  -2.729  0.00  0.00    +0.005 A 
ATOM     14  C   UNL     1      -9.124  -1.802  -3.538  0.00  0.00    +0.000 A 
ATOM     15  C   UNL     1     -10.948  -1.555  -1.984  0.00  0.00    +0.000 A 
ATOM     16  C   UNL     1      -9.789  -2.212  -2.387  0.00  0.00    +0.000 A 
ENDBRANCH  10  11
ENDBRANCH   1  10
TORSDOF 2
ENDMDL
MODEL 2
REMARK VINA RESULT:    -4.680      3.756      5.028
REMARK INTER + INTRA:          -5.328
REMARK INTER:                  -5.158
REMARK INTRA:                  -0.170
REMARK UNBOUND:                -0.101
REMARK  Name = 1550473
REMARK  2 active torsions:
REMARK  status: ('A' for Active; 'I' for Inactive)
REMARK    1  A    between atoms: N_1  and  C_4
REMARK    2  A    between atoms: C_4  and  C_5
REMARK                            x       y       z     vdW  Elec       q    Type
REMARK                         _______ _______ _______ _____ _____    ______ ____
ROOT
ATOM      1  N   UNL     1     -10.753  -1.570  -0.219  0.00  0.00    -0.354 N 
ATOM      2  N   UNL     1      -9.595  -0.927   1.681  0.00  0.00    -0.372 N 
ATOM      3  N   UNL     1      -8.813  -2.700   0.452  0.00  0.00    -0.372 N 
ATOM      4  C   UNL     1      -9.726  -1.739   0.625  0.00  0.00    +0.166 C 
ATOM      5  H   UNL     1     -11.429  -0.842  -0.015  0.00  0.00    +0.163 HD
ATOM      6  H   UNL     1      -8.828  -1.028   2.333  0.00  0.00    +0.159 HD
ATOM      7  H   UNL     1     -10.246  -0.172   1.856  0.00  0.00    +0.159 HD
ATOM      8  H   UNL     1      -8.858  -3.349  -0.322  0.00  0.00    +0.159 HD
ATOM      9  H   UNL     1      -8.045  -2.824   1.100  0.00  0.00    +0.159 HD
ENDROOT
BRANCH   1  10
ATOM     10  C   UNL     1     -10.957  -2.366  -1.428  0.00  0.00    +0.151 C 
BRANCH  10  11
ATOM     11  C   UNL     1     -10.321  -1.660  -2.594  0.00  0.00    -0.028 A 
ATOM     12  C   UNL     1      -9.126  -2.139  -3.150  0.00  0.00    +0.005 A 
ATOM     13  C   UNL     1     -10.912  -0.515  -3.150  0.00  0.00    +0.005 A 
ATOM     14  C   UNL     1      -8.551  -1.501  -4.252  0.00  0.00    +0.000 A 
ATOM     15  C   UNL     1     -10.334   0.120  -4.249  0.00  0.00    +0.000 A 
ATOM     16  C   UNL     1      -9.155  -0.375  -4.801  0.00  0.00    +0.000 A 
ENDBRANCH  10  11
ENDBRANCH   1  10
TORSDOF 2
ENDMDL
MODEL 3
REMARK VINA RESULT:    -4.445     20.348     21.659
REMARK INTER + INTRA:          -5.065
REMARK INTER:                  -4.931
REMARK INTRA:                  -0.134
REMARK UNBOUND:                -0.101
REMARK  Name = 1550473
REMARK  2 active torsions:
REMARK  status: ('A' for Active; 'I' for Inactive)
REMARK    1  A    between atoms: N_1  and  C_4
REMARK    2  A    between atoms: C_4  and  C_5
REMARK                            x       y       z     vdW  Elec       q    Type
REMARK                         _______ _______ _______ _____ _____    ______ ____
ROOT
ATOM      1  N   UNL     1       7.451 -10.253  -2.458  0.00  0.00    -0.354 N 
ATOM      2  N   UNL     1       5.747  -9.445  -1.113  0.00  0.00    -0.372 N 
ATOM      3  N   UNL     1       7.832  -8.503  -0.947  0.00  0.00    -0.372 N 
ATOM      4  C   UNL     1       7.023  -9.404  -1.514  0.00  0.00    +0.166 C 
ATOM      5  H   UNL     1       6.795 -10.933  -2.827  0.00  0.00    +0.163 HD
ATOM      6  H   UNL     1       5.395  -8.815  -0.405  0.00  0.00    +0.159 HD
ATOM      7  H   UNL     1       5.083 -10.095  -1.516  0.00  0.00    +0.159 HD
ATOM      8  H   UNL     1       8.808  -8.424  -1.201  0.00  0.00    +0.159 HD
ATOM      9  H   UNL     1       7.501  -7.871  -0.228  0.00  0.00    +0.159 HD
ENDROOT
BRANCH   1  10
ATOM     10  C   UNL     1       8.807 -10.255  -3.003  0.00  0.00    +0.151 C 
BRANCH  10  11
ATOM     11  C   UNL     1       8.768  -9.756  -4.421  0.00  0.00    -0.028 A 
ATOM     12  C   UNL     1       9.955  -9.441  -5.098  0.00  0.00    +0.005 A 
ATOM     13  C   UNL     1       7.547  -9.600  -5.094  0.00  0.00    +0.005 A 
ATOM     14  C   UNL     1       9.921  -9.006  -6.425  0.00  0.00    +0.000 A 
ATOM     15  C   UNL     1       7.517  -9.165  -6.419  0.00  0.00    +0.000 A 
ATOM     16  C   UNL     1       8.704  -8.871  -7.085  0.00  0.00    +0.000 A 
ENDBRANCH  10  11
ENDBRANCH   1  10
TORSDOF 2
ENDMDL
MODEL 4
REMARK VINA RESULT:    -4.438      3.507      5.095
REMARK INTER + INTRA:          -5.058
REMARK INTER:                  -4.911
REMARK INTRA:                  -0.147
REMARK UNBOUND:                -0.101
REMARK  Name = 1550473
REMARK  2 active torsions:
REMARK  status: ('A' for Active; 'I' for Inactive)
REMARK    1  A    between atoms: N_1  and  C_4
REMARK    2  A    between atoms: C_4  and  C_5
REMARK                            x       y       z     vdW  Elec       q    Type
REMARK                         _______ _______ _______ _____ _____    ______ ____
ROOT
ATOM      1  N   UNL     1     -10.399  -1.626  -1.813  0.00  0.00    -0.354 N 
ATOM      2  N   UNL     1     -10.416  -1.141   0.451  0.00  0.00    -0.372 N 
ATOM      3  N   UNL     1      -9.218  -2.954  -0.285  0.00  0.00    -0.372 N 
ATOM      4  C   UNL     1     -10.009  -1.913  -0.564  0.00  0.00    +0.166 C 
ATOM      5  H   UNL     1     -11.023  -0.840  -1.954  0.00  0.00    +0.163 HD
ATOM      6  H   UNL     1     -10.136  -1.330   1.404  0.00  0.00    +0.159 HD
ATOM      7  H   UNL     1     -11.003  -0.329   0.302  0.00  0.00    +0.159 HD
ATOM      8  H   UNL     1      -8.882  -3.579  -1.005  0.00  0.00    +0.159 HD
ATOM      9  H   UNL     1      -8.937  -3.167   0.664  0.00  0.00    +0.159 HD
ENDROOT
BRANCH   1  10
ATOM     10  C   UNL     1      -9.968  -2.371  -2.995  0.00  0.00    +0.151 C 
BRANCH  10  11
ATOM     11  C   UNL     1      -9.218  -1.446  -3.913  0.00  0.00    -0.028 A 
ATOM     12  C   UNL     1      -9.508  -0.074  -3.933  0.00  0.00    +0.005 A 
ATOM     13  C   UNL     1      -8.212  -1.934  -4.761  0.00  0.00    +0.005 A 
ATOM     14  C   UNL     1      -8.791   0.791  -4.764  0.00  0.00    +0.000 A 
ATOM     15  C   UNL     1      -7.499  -1.068  -5.589  0.00  0.00    +0.000 A 
ATOM     16  C   UNL     1      -7.788   0.295  -5.589  0.00  0.00    +0.000 A 
ENDBRANCH  10  11
ENDBRANCH   1  10
TORSDOF 2
ENDMDL
MODEL 5
REMARK VINA RESULT:    -4.401     20.243     21.120
REMARK INTER + INTRA:          -5.016
REMARK INTER:                  -4.869
REMARK INTRA:                  -0.147
REMARK UNBOUND:                -0.101
REMARK  Name = 1550473
REMARK  2 active torsions:
REMARK  status: ('A' for Active; 'I' for Inactive)
REMARK    1  A    between atoms: N_1  and  C_4
REMARK    2  A    between atoms: C_4  and  C_5
REMARK                            x       y       z     vdW  Elec       q    Type
REMARK                         _______ _______ _______ _____ _____    ______ ____
ROOT
ATOM      1  N   UNL     1       6.519 -10.542   0.804  0.00  0.00    -0.354 N 
ATOM      2  N   UNL     1       5.985  -9.540  -1.214  0.00  0.00    -0.372 N 
ATOM      3  N   UNL     1       7.381  -8.438   0.236  0.00  0.00    -0.372 N 
ATOM      4  C   UNL     1       6.633  -9.511  -0.044  0.00  0.00    +0.166 C 
ATOM      5  H   UNL     1       5.913 -11.313   0.546  0.00  0.00    +0.163 HD
ATOM      6  H   UNL     1       6.054  -8.778  -1.875  0.00  0.00    +0.159 HD
ATOM      7  H   UNL     1       5.416 -10.331  -1.489  0.00  0.00    +0.159 HD
ATOM      8  H   UNL     1       7.891  -8.353   1.105  0.00  0.00    +0.159 HD
ATOM      9  H   UNL     1       7.454  -7.661  -0.408  0.00  0.00    +0.159 HD
ENDROOT
BRANCH   1  10
ATOM     10  C   UNL     1       7.227 -10.634   2.080  0.00  0.00    +0.151 C 
BRANCH  10  11
ATOM     11  C   UNL     1       6.226 -10.851   3.182  0.00  0.00    -0.028 A 
ATOM     12  C   UNL     1       4.905 -11.216   2.882  0.00  0.00    +0.005 A 
ATOM     13  C   UNL     1       6.595 -10.700   4.527  0.00  0.00    +0.005 A 
ATOM     14  C   UNL     1       3.984 -11.447   3.906  0.00  0.00    +0.000 A 
ATOM     15  C   UNL     1       5.671 -10.931   5.547  0.00  0.00    +0.000 A 
ATOM     16  C   UNL     1       4.367 -11.306   5.236  0.00  0.00    +0.000 A 
ENDBRANCH  10  11
ENDBRANCH   1  10
TORSDOF 2
ENDMDL
MODEL 6
REMARK VINA RESULT:    -4.304     23.126     24.157
REMARK INTER + INTRA:          -4.908
REMARK INTER:                  -4.786
REMARK INTRA:                  -0.122
REMARK UNBOUND:                -0.101
REMARK  Name = 1550473
REMARK  2 active torsions:
REMARK  status: ('A' for Active; 'I' for Inactive)
REMARK    1  A    between atoms: N_1  and  C_4
REMARK    2  A    between atoms: C_4  and  C_5
REMARK                            x       y       z     vdW  Elec       q    Type
REMARK                         _______ _______ _______ _____ _____    ______ ____
ROOT
ATOM      1  N   UNL     1      12.129  -0.722   2.793  0.00  0.00    -0.354 N 
ATOM      2  N   UNL     1      11.734  -2.923   2.190  0.00  0.00    -0.372 N 
ATOM      3  N   UNL     1      12.515  -2.474   4.300  0.00  0.00    -0.372 N 
ATOM      4  C   UNL     1      12.130  -2.026   3.101  0.00  0.00    +0.166 C 
ATOM      5  H   UNL     1      11.854  -0.449   1.857  0.00  0.00    +0.163 HD
ATOM      6  H   UNL     1      11.720  -3.913   2.395  0.00  0.00    +0.159 HD
ATOM      7  H   UNL     1      11.416  -2.644   1.270  0.00  0.00    +0.159 HD
ATOM      8  H   UNL     1      12.831  -1.849   5.030  0.00  0.00    +0.159 HD
ATOM      9  H   UNL     1      12.520  -3.463   4.520  0.00  0.00    +0.159 HD
ENDROOT
BRANCH   1  10
ATOM     10  C   UNL     1      12.490   0.340   3.731  0.00  0.00    +0.151 C 
BRANCH  10  11
ATOM     11  C   UNL     1      12.229   1.673   3.086  0.00  0.00    -0.028 A 
ATOM     12  C   UNL     1      12.807   2.841   3.607  0.00  0.00    +0.005 A 
ATOM     13  C   UNL     1      11.409   1.776   1.952  0.00  0.00    +0.005 A 
ATOM     14  C   UNL     1      12.589   4.075   2.991  0.00  0.00    +0.000 A 
ATOM     15  C   UNL     1      11.194   3.011   1.341  0.00  0.00    +0.000 A 
ATOM     16  C   UNL     1      11.786   4.160   1.859  0.00  0.00    +0.000 A 
ENDBRANCH  10  11
ENDBRANCH   1  10
TORSDOF 2
ENDMDL
MODEL 7
REMARK VINA RESULT:    -4.214     20.971     22.116
REMARK INTER + INTRA:          -4.808
REMARK INTER:                  -4.688
REMARK INTRA:                  -0.119
REMARK UNBOUND:                -0.101
REMARK  Name = 1550473
REMARK  2 active torsions:
REMARK  status: ('A' for Active; 'I' for Inactive)
REMARK    1  A    between atoms: N_1  and  C_4
REMARK    2  A    between atoms: C_4  and  C_5
REMARK                            x       y       z     vdW  Elec       q    Type
REMARK                         _______ _______ _______ _____ _____    ______ ____
ROOT
ATOM      1  N   UNL     1       9.100  -9.029  -0.536  0.00  0.00    -0.354 N 
ATOM      2  N   UNL     1       9.457  -7.495   1.162  0.00  0.00    -0.372 N 
ATOM      3  N   UNL     1       7.325  -8.252   0.781  0.00  0.00    -0.372 N 
ATOM      4  C   UNL     1       8.622  -8.269   0.458  0.00  0.00    +0.166 C 
ATOM      5  H   UNL     1      10.089  -8.974  -0.751  0.00  0.00    +0.163 HD
ATOM      6  H   UNL     1       9.126  -6.913   1.920  0.00  0.00    +0.159 HD
ATOM      7  H   UNL     1      10.452  -7.477   0.974  0.00  0.00    +0.159 HD
ATOM      8  H   UNL     1       6.642  -8.809   0.285  0.00  0.00    +0.159 HD
ATOM      9  H   UNL     1       6.973  -7.668   1.529  0.00  0.00    +0.159 HD
ENDROOT
BRANCH   1  10
ATOM     10  C   UNL     1       8.284  -9.948  -1.328  0.00  0.00    +0.151 C 
BRANCH  10  11
ATOM     11  C   UNL     1       8.621  -9.774  -2.783  0.00  0.00    -0.028 A 
ATOM     12  C   UNL     1       7.606  -9.566  -3.729  0.00  0.00    +0.005 A 
ATOM     13  C   UNL     1       9.953  -9.809  -3.223  0.00  0.00    +0.005 A 
ATOM     14  C   UNL     1       7.920  -9.375  -5.076  0.00  0.00    +0.000 A 
ATOM     15  C   UNL     1      10.262  -9.618  -4.569  0.00  0.00    +0.000 A 
ATOM     16  C   UNL     1       9.246  -9.398  -5.495  0.00  0.00    +0.000 A 
ENDBRANCH  10  11
ENDBRANCH   1  10
TORSDOF 2
ENDMDL
MODEL 8
REMARK VINA RESULT:    -4.185     20.699     21.491
REMARK INTER + INTRA:          -4.775
REMARK INTER:                  -4.648
REMARK INTRA:                  -0.127
REMARK UNBOUND:                -0.101
REMARK  Name = 1550473
REMARK  2 active torsions:
REMARK  status: ('A' for Active; 'I' for Inactive)
REMARK    1  A    between atoms: N_1  and  C_4
REMARK    2  A    between atoms: C_4  and  C_5
REMARK                            x       y       z     vdW  Elec       q    Type
REMARK                         _______ _______ _______ _____ _____    ______ ____
ROOT
ATOM      1  N   UNL     1       7.957  -9.098   1.693  0.00  0.00    -0.354 N 
ATOM      2  N   UNL     1       9.506  -7.459   1.164  0.00  0.00    -0.372 N 
ATOM      3  N   UNL     1       7.728  -7.802  -0.246  0.00  0.00    -0.372 N 
ATOM      4  C   UNL     1       8.385  -8.130   0.872  0.00  0.00    +0.166 C 
ATOM      5  H   UNL     1       8.517  -9.319   2.509  0.00  0.00    +0.163 HD
ATOM      6  H   UNL     1       9.851  -6.722   0.564  0.00  0.00    +0.159 HD
ATOM      7  H   UNL     1      10.038  -7.651   2.003  0.00  0.00    +0.159 HD
ATOM      8  H   UNL     1       6.879  -8.274  -0.526  0.00  0.00    +0.159 HD
ATOM      9  H   UNL     1       8.064  -7.075  -0.864  0.00  0.00    +0.159 HD
ENDROOT
BRANCH   1  10
ATOM     10  C   UNL     1       6.721  -9.852   1.494  0.00  0.00    +0.151 C 
BRANCH  10  11
ATOM     11  C   UNL     1       6.275 -10.422   2.813  0.00  0.00    -0.028 A 
ATOM     12  C   UNL     1       7.072 -10.274   3.958  0.00  0.00    +0.005 A 
ATOM     13  C   UNL     1       5.055 -11.106   2.925  0.00  0.00    +0.005 A 
ATOM     14  C   UNL     1       6.645 -10.778   5.189  0.00  0.00    +0.000 A 
ATOM     15  C   UNL     1       4.633 -11.608   4.156  0.00  0.00    +0.000 A 
ATOM     16  C   UNL     1       5.427 -11.441   5.288  0.00  0.00    +0.000 A 
ENDBRANCH  10  11
ENDBRANCH   1  10
TORSDOF 2
ENDMDL
MODEL 9
REMARK VINA RESULT:    -3.978     18.043     19.653
REMARK INTER + INTRA:          -4.544
REMARK INTER:                  -4.439
REMARK INTRA:                  -0.105
REMARK UNBOUND:                -0.101
REMARK  Name = 1550473
REMARK  2 active torsions:
REMARK  status: ('A' for Active; 'I' for Inactive)
REMARK    1  A    between atoms: N_1  and  C_4
REMARK    2  A    between atoms: C_4  and  C_5
REMARK                            x       y       z     vdW  Elec       q    Type
REMARK                         _______ _______ _______ _____ _____    ______ ____
ROOT
ATOM      1  N   UNL     1      -2.545 -14.459  -9.412  0.00  0.00    -0.354 N 
ATOM      2  N   UNL     1      -3.687 -12.971  -8.054  0.00  0.00    -0.372 N 
ATOM      3  N   UNL     1      -1.628 -13.728  -7.382  0.00  0.00    -0.372 N 
ATOM      4  C   UNL     1      -2.611 -13.730  -8.290  0.00  0.00    +0.166 C 
ATOM      5  H   UNL     1      -3.336 -14.440 -10.045  0.00  0.00    +0.163 HD
ATOM      6  H   UNL     1      -3.764 -12.407  -7.218  0.00  0.00    +0.159 HD
ATOM      7  H   UNL     1      -4.456 -12.918  -8.711  0.00  0.00    +0.159 HD
ATOM      8  H   UNL     1      -0.792 -14.284  -7.498  0.00  0.00    +0.159 HD
ATOM      9  H   UNL     1      -1.691 -13.180  -6.534  0.00  0.00    +0.159 HD
ENDROOT
BRANCH   1  10
ATOM     10  C   UNL     1      -1.394 -15.277  -9.789  0.00  0.00    +0.151 C 
BRANCH  10  11
ATOM     11  C   UNL     1      -1.458 -15.566 -11.263  0.00  0.00    -0.028 A 
ATOM     12  C   UNL     1      -0.328 -15.388 -12.074  0.00  0.00    +0.005 A 
ATOM     13  C   UNL     1      -2.646 -16.023 -11.855  0.00  0.00    +0.005 A 
ATOM     14  C   UNL     1      -0.379 -15.684 -13.438  0.00  0.00    +0.000 A 
ATOM     15  C   UNL     1      -2.693 -16.318 -13.218  0.00  0.00    +0.000 A 
ATOM     16  C   UNL     1      -1.558 -16.150 -14.008  0.00  0.00    +0.000 A 
ENDBRANCH  10  11
ENDBRANCH   1  10
TORSDOF 2
ENDMDL
