MODEL 1
REMARK VINA RESULT:    -5.459      0.000      0.000
REMARK INTER + INTRA:          -6.201
REMARK INTER:                  -6.097
REMARK INTRA:                  -0.104
REMARK UNBOUND:                -0.104
REMARK  Name = 1550473
REMARK  2 active torsions:
REMARK  status: ('A' for Active; 'I' for Inactive)
REMARK    1  A    between atoms: N_1  and  C_4
REMARK    2  A    between atoms: C_4  and  C_5
REMARK                            x       y       z     vdW  Elec       q    Type
REMARK                         _______ _______ _______ _____ _____    ______ ____
ROOT
ATOM      1  N   UNL     1      -6.475   1.087 -10.189  0.00  0.00    -0.354 N 
ATOM      2  N   UNL     1      -5.359   0.096  -8.418  0.00  0.00    -0.372 N 
ATOM      3  N   UNL     1      -5.380  -0.968 -10.451  0.00  0.00    -0.372 N 
ATOM      4  C   UNL     1      -5.745   0.076  -9.700  0.00  0.00    +0.166 C 
ATOM      5  H   UNL     1      -6.745   1.835  -9.560  0.00  0.00    +0.163 HD
ATOM      6  H   UNL     1      -4.804  -0.651  -8.022  0.00  0.00    +0.159 HD
ATOM      7  H   UNL     1      -5.591   0.867  -7.804  0.00  0.00    +0.159 HD
ATOM      8  H   UNL     1      -5.644  -1.046 -11.424  0.00  0.00    +0.159 HD
ATOM      9  H   UNL     1      -4.835  -1.731 -10.069  0.00  0.00    +0.159 HD
ENDROOT
BRANCH   1  10
ATOM     10  C   UNL     1      -6.901   1.188 -11.584  0.00  0.00    +0.151 C 
BRANCH  10  11
ATOM     11  C   UNL     1      -8.047   2.158 -11.679  0.00  0.00    -0.028 A 
ATOM     12  C   UNL     1      -7.942   3.440 -11.121  0.00  0.00    +0.005 A 
ATOM     13  C   UNL     1      -9.237   1.802 -12.331  0.00  0.00    +0.005 A 
ATOM     14  C   UNL     1      -8.994   4.352 -11.235  0.00  0.00    +0.000 A 
ATOM     15  C   UNL     1     -10.286   2.715 -12.442  0.00  0.00    +0.000 A 
ATOM     16  C   UNL     1     -10.163   3.990 -11.896  0.00  0.00    +0.000 A 
ENDBRANCH  10  11
ENDBRANCH   1  10
TORSDOF 2
ENDMDL
MODEL 2
REMARK VINA RESULT:    -5.105      4.435      6.040
REMARK INTER + INTRA:          -5.806
REMARK INTER:                  -5.660
REMARK INTRA:                  -0.145
REMARK UNBOUND:                -0.104
REMARK  Name = 1550473
REMARK  2 active torsions:
REMARK  status: ('A' for Active; 'I' for Inactive)
REMARK    1  A    between atoms: N_1  and  C_4
REMARK    2  A    between atoms: C_4  and  C_5
REMARK                            x       y       z     vdW  Elec       q    Type
REMARK                         _______ _______ _______ _____ _____    ______ ____
ROOT
ATOM      1  N   UNL     1     -10.021   6.742 -11.080  0.00  0.00    -0.354 N 
ATOM      2  N   UNL     1     -10.997   8.501 -12.227  0.00  0.00    -0.372 N 
ATOM      3  N   UNL     1      -8.735   8.544 -11.849  0.00  0.00    -0.372 N 
ATOM      4  C   UNL     1      -9.909   7.919 -11.711  0.00  0.00    +0.166 C 
ATOM      5  H   UNL     1     -10.943   6.334 -10.983  0.00  0.00    +0.163 HD
ATOM      6  H   UNL     1     -10.943   9.387 -12.712  0.00  0.00    +0.159 HD
ATOM      7  H   UNL     1     -11.912   8.069 -12.169  0.00  0.00    +0.159 HD
ATOM      8  H   UNL     1      -7.876   8.160 -11.477  0.00  0.00    +0.159 HD
ATOM      9  H   UNL     1      -8.662   9.437 -12.321  0.00  0.00    +0.159 HD
ENDROOT
BRANCH   1  10
ATOM     10  C   UNL     1      -8.889   5.998 -10.530  0.00  0.00    +0.151 C 
BRANCH  10  11
ATOM     11  C   UNL     1      -8.878   4.615 -11.118  0.00  0.00    -0.028 A 
ATOM     12  C   UNL     1      -7.729   3.815 -11.035  0.00  0.00    +0.005 A 
ATOM     13  C   UNL     1     -10.015   4.095 -11.756  0.00  0.00    +0.005 A 
ATOM     14  C   UNL     1      -7.727   2.518 -11.555  0.00  0.00    +0.000 A 
ATOM     15  C   UNL     1     -10.009   2.801 -12.275  0.00  0.00    +0.000 A 
ATOM     16  C   UNL     1      -8.866   2.012 -12.172  0.00  0.00    +0.000 A 
ENDBRANCH  10  11
ENDBRANCH   1  10
TORSDOF 2
ENDMDL
MODEL 3
REMARK VINA RESULT:    -5.017     14.686     16.042
REMARK INTER + INTRA:          -5.707
REMARK INTER:                  -5.586
REMARK INTRA:                  -0.122
REMARK UNBOUND:                -0.104
REMARK  Name = 1550473
REMARK  2 active torsions:
REMARK  status: ('A' for Active; 'I' for Inactive)
REMARK    1  A    between atoms: N_1  and  C_4
REMARK    2  A    between atoms: C_4  and  C_5
REMARK                            x       y       z     vdW  Elec       q    Type
REMARK                         _______ _______ _______ _____ _____    ______ ____
ROOT
ATOM      1  N   UNL     1     -12.142 -13.462  -9.865  0.00  0.00    -0.354 N 
ATOM      2  N   UNL     1     -14.192 -14.493 -10.180  0.00  0.00    -0.372 N 
ATOM      3  N   UNL     1     -13.552 -12.832 -11.628  0.00  0.00    -0.372 N 
ATOM      4  C   UNL     1     -13.282 -13.587 -10.558  0.00  0.00    +0.166 C 
ATOM      5  H   UNL     1     -12.011 -14.044  -9.045  0.00  0.00    +0.163 HD
ATOM      6  H   UNL     1     -15.060 -14.613 -10.685  0.00  0.00    +0.159 HD
ATOM      7  H   UNL     1     -14.038 -15.105  -9.388  0.00  0.00    +0.159 HD
ATOM      8  H   UNL     1     -12.909 -12.126 -11.961  0.00  0.00    +0.159 HD
ATOM      9  H   UNL     1     -14.420 -12.929 -12.139  0.00  0.00    +0.159 HD
ENDROOT
BRANCH   1  10
ATOM     10  C   UNL     1     -11.064 -12.544 -10.225  0.00  0.00    +0.151 C 
BRANCH  10  11
ATOM     11  C   UNL     1      -9.942 -12.692  -9.235  0.00  0.00    -0.028 A 
ATOM     12  C   UNL     1      -9.885 -13.806  -8.384  0.00  0.00    +0.005 A 
ATOM     13  C   UNL     1      -8.928 -11.725  -9.146  0.00  0.00    +0.005 A 
ATOM     14  C   UNL     1      -8.827 -13.959  -7.485  0.00  0.00    +0.000 A 
ATOM     15  C   UNL     1      -7.874 -11.881  -8.247  0.00  0.00    +0.000 A 
ATOM     16  C   UNL     1      -7.822 -13.000  -7.418  0.00  0.00    +0.000 A 
ENDBRANCH  10  11
ENDBRANCH   1  10
TORSDOF 2
ENDMDL
MODEL 4
REMARK VINA RESULT:    -5.004      2.912      4.947
REMARK INTER + INTRA:          -5.692
REMARK INTER:                  -5.563
REMARK INTRA:                  -0.129
REMARK UNBOUND:                -0.104
REMARK  Name = 1550473
REMARK  2 active torsions:
REMARK  status: ('A' for Active; 'I' for Inactive)
REMARK    1  A    between atoms: N_1  and  C_4
REMARK    2  A    between atoms: C_4  and  C_5
REMARK                            x       y       z     vdW  Elec       q    Type
REMARK                         _______ _______ _______ _____ _____    ______ ____
ROOT
ATOM      1  N   UNL     1      -8.914   3.343 -11.492  0.00  0.00    -0.354 N 
ATOM      2  N   UNL     1     -11.111   4.028 -11.750  0.00  0.00    -0.372 N 
ATOM      3  N   UNL     1     -10.423   2.097 -12.780  0.00  0.00    -0.372 N 
ATOM      4  C   UNL     1     -10.135   3.149 -12.007  0.00  0.00    +0.166 C 
ATOM      5  H   UNL     1      -8.751   4.177 -10.939  0.00  0.00    +0.163 HD
ATOM      6  H   UNL     1     -12.043   3.907 -12.122  0.00  0.00    +0.159 HD
ATOM      7  H   UNL     1     -10.958   4.836 -11.159  0.00  0.00    +0.159 HD
ATOM      8  H   UNL     1      -9.729   1.400 -13.017  0.00  0.00    +0.159 HD
ATOM      9  H   UNL     1     -11.347   1.964 -13.172  0.00  0.00    +0.159 HD
ENDROOT
BRANCH   1  10
ATOM     10  C   UNL     1      -7.796   2.417 -11.667  0.00  0.00    +0.151 C 
BRANCH  10  11
ATOM     11  C   UNL     1      -7.480   1.772 -10.346  0.00  0.00    -0.028 A 
ATOM     12  C   UNL     1      -6.544   0.731 -10.268  0.00  0.00    +0.005 A 
ATOM     13  C   UNL     1      -8.110   2.201  -9.168  0.00  0.00    +0.005 A 
ATOM     14  C   UNL     1      -6.228   0.151  -9.037  0.00  0.00    +0.000 A 
ATOM     15  C   UNL     1      -7.793   1.619  -7.941  0.00  0.00    +0.000 A 
ATOM     16  C   UNL     1      -6.850   0.596  -7.875  0.00  0.00    +0.000 A 
ENDBRANCH  10  11
ENDBRANCH   1  10
TORSDOF 2
ENDMDL
MODEL 5
REMARK VINA RESULT:    -4.974     14.948     16.477
REMARK INTER + INTRA:          -5.659
REMARK INTER:                  -5.527
REMARK INTRA:                  -0.132
REMARK UNBOUND:                -0.104
REMARK  Name = 1550473
REMARK  2 active torsions:
REMARK  status: ('A' for Active; 'I' for Inactive)
REMARK    1  A    between atoms: N_1  and  C_4
REMARK    2  A    between atoms: C_4  and  C_5
REMARK                            x       y       z     vdW  Elec       q    Type
REMARK                         _______ _______ _______ _____ _____    ______ ____
ROOT
ATOM      1  N   UNL     1      -7.615 -14.892  -5.184  0.00  0.00    -0.354 N 
ATOM      2  N   UNL     1      -7.946 -16.663  -3.729  0.00  0.00    -0.372 N 
ATOM      3  N   UNL     1      -7.524 -14.580  -2.863  0.00  0.00    -0.372 N 
ATOM      4  C   UNL     1      -7.692 -15.365  -3.933  0.00  0.00    +0.166 C 
ATOM      5  H   UNL     1      -7.722 -15.544  -5.953  0.00  0.00    +0.163 HD
ATOM      6  H   UNL     1      -8.014 -17.048  -2.796  0.00  0.00    +0.159 HD
ATOM      7  H   UNL     1      -8.098 -17.304  -4.498  0.00  0.00    +0.159 HD
ATOM      8  H   UNL     1      -7.324 -13.593  -2.950  0.00  0.00    +0.159 HD
ATOM      9  H   UNL     1      -7.576 -14.949  -1.922  0.00  0.00    +0.159 HD
ENDROOT
BRANCH   1  10
ATOM     10  C   UNL     1      -7.396 -13.485  -5.515  0.00  0.00    +0.151 C 
BRANCH  10  11
ATOM     11  C   UNL     1      -8.109 -13.166  -6.800  0.00  0.00    -0.028 A 
ATOM     12  C   UNL     1      -7.789 -12.007  -7.522  0.00  0.00    +0.005 A 
ATOM     13  C   UNL     1      -9.101 -14.021  -7.304  0.00  0.00    +0.005 A 
ATOM     14  C   UNL     1      -8.430 -11.725  -8.731  0.00  0.00    +0.000 A 
ATOM     15  C   UNL     1      -9.738 -13.736  -8.511  0.00  0.00    +0.000 A 
ATOM     16  C   UNL     1      -9.401 -12.589  -9.225  0.00  0.00    +0.000 A 
ENDBRANCH  10  11
ENDBRANCH   1  10
TORSDOF 2
ENDMDL
MODEL 6
REMARK VINA RESULT:    -4.740      3.700      4.746
REMARK INTER + INTRA:          -5.398
REMARK INTER:                  -5.223
REMARK INTRA:                  -0.175
REMARK UNBOUND:                -0.104
REMARK  Name = 1550473
REMARK  2 active torsions:
REMARK  status: ('A' for Active; 'I' for Inactive)
REMARK    1  A    between atoms: N_1  and  C_4
REMARK    2  A    between atoms: C_4  and  C_5
REMARK                            x       y       z     vdW  Elec       q    Type
REMARK                         _______ _______ _______ _____ _____    ______ ____
ROOT
ATOM      1  N   UNL     1      -8.506  -2.599 -13.182  0.00  0.00    -0.354 N 
ATOM      2  N   UNL     1     -10.455  -3.831 -12.963  0.00  0.00    -0.372 N 
ATOM      3  N   UNL     1     -10.388  -2.124 -14.495  0.00  0.00    -0.372 N 
ATOM      4  C   UNL     1      -9.771  -2.841 -13.550  0.00  0.00    +0.166 C 
ATOM      5  H   UNL     1      -8.106  -3.158 -12.438  0.00  0.00    +0.163 HD
ATOM      6  H   UNL     1     -11.410  -4.039 -13.222  0.00  0.00    +0.159 HD
ATOM      7  H   UNL     1     -10.037  -4.418 -12.252  0.00  0.00    +0.159 HD
ATOM      8  H   UNL     1      -9.929  -1.360 -14.973  0.00  0.00    +0.159 HD
ATOM      9  H   UNL     1     -11.347  -2.310 -14.761  0.00  0.00    +0.159 HD
ENDROOT
BRANCH   1  10
ATOM     10  C   UNL     1      -7.657  -1.580 -13.796  0.00  0.00    +0.151 C 
BRANCH  10  11
ATOM     11  C   UNL     1      -7.568  -0.394 -12.876  0.00  0.00    -0.028 A 
ATOM     12  C   UNL     1      -6.533  -0.299 -11.935  0.00  0.00    +0.005 A 
ATOM     13  C   UNL     1      -8.514   0.641 -12.944  0.00  0.00    +0.005 A 
ATOM     14  C   UNL     1      -6.433   0.817 -11.100  0.00  0.00    +0.000 A 
ATOM     15  C   UNL     1      -8.411   1.753 -12.108  0.00  0.00    +0.000 A 
ATOM     16  C   UNL     1      -7.369   1.842 -11.188  0.00  0.00    +0.000 A 
ENDBRANCH  10  11
ENDBRANCH   1  10
TORSDOF 2
ENDMDL
MODEL 7
REMARK VINA RESULT:    -4.729      8.597      9.688
REMARK INTER + INTRA:          -5.386
REMARK INTER:                  -5.222
REMARK INTRA:                  -0.164
REMARK UNBOUND:                -0.104
REMARK  Name = 1550473
REMARK  2 active torsions:
REMARK  status: ('A' for Active; 'I' for Inactive)
REMARK    1  A    between atoms: N_1  and  C_4
REMARK    2  A    between atoms: C_4  and  C_5
REMARK                            x       y       z     vdW  Elec       q    Type
REMARK                         _______ _______ _______ _____ _____    ______ ____
ROOT
ATOM      1  N   UNL     1      -9.817   2.018  -3.873  0.00  0.00    -0.354 N 
ATOM      2  N   UNL     1     -10.457   0.050  -4.912  0.00  0.00    -0.372 N 
ATOM      3  N   UNL     1      -8.245   0.659  -4.957  0.00  0.00    -0.372 N 
ATOM      4  C   UNL     1      -9.499   0.922  -4.574  0.00  0.00    +0.166 C 
ATOM      5  H   UNL     1     -10.791   2.175  -3.640  0.00  0.00    +0.163 HD
ATOM      6  H   UNL     1     -10.247  -0.788  -5.438  0.00  0.00    +0.159 HD
ATOM      7  H   UNL     1     -11.422   0.186  -4.638  0.00  0.00    +0.159 HD
ATOM      8  H   UNL     1      -7.478   1.281  -4.739  0.00  0.00    +0.159 HD
ATOM      9  H   UNL     1      -8.017  -0.168  -5.494  0.00  0.00    +0.159 HD
ENDROOT
BRANCH   1  10
ATOM     10  C   UNL     1      -8.841   3.003  -3.409  0.00  0.00    +0.151 C 
BRANCH  10  11
ATOM     11  C   UNL     1      -8.708   2.896  -1.915  0.00  0.00    -0.028 A 
ATOM     12  C   UNL     1      -9.320   3.838  -1.076  0.00  0.00    +0.005 A 
ATOM     13  C   UNL     1      -7.974   1.851  -1.332  0.00  0.00    +0.005 A 
ATOM     14  C   UNL     1      -9.221   3.722   0.313  0.00  0.00    +0.000 A 
ATOM     15  C   UNL     1      -7.877   1.739   0.055  0.00  0.00    +0.000 A 
ATOM     16  C   UNL     1      -8.502   2.673   0.877  0.00  0.00    +0.000 A 
ENDBRANCH  10  11
ENDBRANCH   1  10
TORSDOF 2
ENDMDL
MODEL 8
REMARK VINA RESULT:    -4.729     14.578     15.947
REMARK INTER + INTRA:          -5.386
REMARK INTER:                  -5.253
REMARK INTRA:                  -0.132
REMARK UNBOUND:                -0.104
REMARK  Name = 1550473
REMARK  2 active torsions:
REMARK  status: ('A' for Active; 'I' for Inactive)
REMARK    1  A    between atoms: N_1  and  C_4
REMARK    2  A    between atoms: C_4  and  C_5
REMARK                            x       y       z     vdW  Elec       q    Type
REMARK                         _______ _______ _______ _____ _____    ______ ____
ROOT
ATOM      1  N   UNL     1     -14.079 -12.242 -12.105  0.00  0.00    -0.354 N 
ATOM      2  N   UNL     1     -14.804 -11.220 -14.053  0.00  0.00    -0.372 N 
ATOM      3  N   UNL     1     -14.444  -9.929 -12.191  0.00  0.00    -0.372 N 
ATOM      4  C   UNL     1     -14.438 -11.135 -12.768  0.00  0.00    +0.166 C 
ATOM      5  H   UNL     1     -14.124 -13.130 -12.591  0.00  0.00    +0.163 HD
ATOM      6  H   UNL     1     -15.076 -10.401 -14.580  0.00  0.00    +0.159 HD
ATOM      7  H   UNL     1     -14.804 -12.103 -14.549  0.00  0.00    +0.159 HD
ATOM      8  H   UNL     1     -14.185  -9.797 -11.222  0.00  0.00    +0.159 HD
ATOM      9  H   UNL     1     -14.725  -9.099 -12.699  0.00  0.00    +0.159 HD
ENDROOT
BRANCH   1  10
ATOM     10  C   UNL     1     -13.613 -12.250 -10.719  0.00  0.00    +0.151 C 
BRANCH  10  11
ATOM     11  C   UNL     1     -12.259 -12.903 -10.661  0.00  0.00    -0.028 A 
ATOM     12  C   UNL     1     -11.213 -12.309  -9.939  0.00  0.00    +0.005 A 
ATOM     13  C   UNL     1     -12.018 -14.119 -11.319  0.00  0.00    +0.005 A 
ATOM     14  C   UNL     1      -9.964 -12.931  -9.860  0.00  0.00    +0.000 A 
ATOM     15  C   UNL     1     -10.770 -14.735 -11.237  0.00  0.00    +0.000 A 
ATOM     16  C   UNL     1      -9.744 -14.142 -10.506  0.00  0.00    +0.000 A 
ENDBRANCH  10  11
ENDBRANCH   1  10
TORSDOF 2
ENDMDL
MODEL 9
REMARK VINA RESULT:    -4.698      5.974      7.873
REMARK INTER + INTRA:          -5.351
REMARK INTER:                  -5.231
REMARK INTRA:                  -0.120
REMARK UNBOUND:                -0.104
REMARK  Name = 1550473
REMARK  2 active torsions:
REMARK  status: ('A' for Active; 'I' for Inactive)
REMARK    1  A    between atoms: N_1  and  C_4
REMARK    2  A    between atoms: C_4  and  C_5
REMARK                            x       y       z     vdW  Elec       q    Type
REMARK                         _______ _______ _______ _____ _____    ______ ____
ROOT
ATOM      1  N   UNL     1      -8.003   2.354  -3.349  0.00  0.00    -0.354 N 
ATOM      2  N   UNL     1     -10.037   3.106  -2.536  0.00  0.00    -0.372 N 
ATOM      3  N   UNL     1      -8.805   1.646  -1.265  0.00  0.00    -0.372 N 
ATOM      4  C   UNL     1      -8.934   2.362  -2.387  0.00  0.00    +0.166 C 
ATOM      5  H   UNL     1      -8.174   2.895  -4.189  0.00  0.00    +0.163 HD
ATOM      6  H   UNL     1     -10.755   3.135  -1.825  0.00  0.00    +0.159 HD
ATOM      7  H   UNL     1     -10.184   3.681  -3.357  0.00  0.00    +0.159 HD
ATOM      8  H   UNL     1      -8.000   1.059  -1.093  0.00  0.00    +0.159 HD
ATOM      9  H   UNL     1      -9.519   1.652  -0.547  0.00  0.00    +0.159 HD
ENDROOT
BRANCH   1  10
ATOM     10  C   UNL     1      -6.742   1.620  -3.261  0.00  0.00    +0.151 C 
BRANCH  10  11
ATOM     11  C   UNL     1      -6.294   1.243  -4.646  0.00  0.00    -0.028 A 
ATOM     12  C   UNL     1      -5.533   0.084  -4.858  0.00  0.00    +0.005 A 
ATOM     13  C   UNL     1      -6.634   2.037  -5.752  0.00  0.00    +0.005 A 
ATOM     14  C   UNL     1      -5.143  -0.283  -6.148  0.00  0.00    +0.000 A 
ATOM     15  C   UNL     1      -6.242   1.668  -7.039  0.00  0.00    +0.000 A 
ATOM     16  C   UNL     1      -5.498   0.507  -7.237  0.00  0.00    +0.000 A 
ENDBRANCH  10  11
ENDBRANCH   1  10
TORSDOF 2
ENDMDL
