MODEL 1
REMARK VINA RESULT:    -5.005      0.000      0.000
REMARK INTER + INTRA:          -5.742
REMARK INTER:                  -5.590
REMARK INTRA:                  -0.152
REMARK UNBOUND:                -0.152
REMARK  Name = 1550473
REMARK  2 active torsions:
REMARK  status: ('A' for Active; 'I' for Inactive)
REMARK    1  A    between atoms: N_1  and  C_4
REMARK    2  A    between atoms: C_4  and  C_5
REMARK                            x       y       z     vdW  Elec       q    Type
REMARK                         _______ _______ _______ _____ _____    ______ ____
ROOT
ATOM      1  N   UNL     1      -6.197 -11.791   2.734  0.00  0.00    -0.354 N 
ATOM      2  N   UNL     1      -6.660 -13.624   4.072  0.00  0.00    -0.372 N 
ATOM      3  N   UNL     1      -8.183 -13.007   2.470  0.00  0.00    -0.372 N 
ATOM      4  C   UNL     1      -7.013 -12.795   3.082  0.00  0.00    +0.166 C 
ATOM      5  H   UNL     1      -5.338 -11.666   3.257  0.00  0.00    +0.163 HD
ATOM      6  H   UNL     1      -7.254 -14.393   4.354  0.00  0.00    +0.159 HD
ATOM      7  H   UNL     1      -5.780 -13.524   4.562  0.00  0.00    +0.159 HD
ATOM      8  H   UNL     1      -8.509 -12.414   1.719  0.00  0.00    +0.159 HD
ATOM      9  H   UNL     1      -8.796 -13.764   2.746  0.00  0.00    +0.159 HD
ENDROOT
BRANCH   1  10
ATOM     10  C   UNL     1      -6.462 -10.866   1.634  0.00  0.00    +0.151 C 
BRANCH  10  11
ATOM     11  C   UNL     1      -5.626 -11.260   0.448  0.00  0.00    -0.028 A 
ATOM     12  C   UNL     1      -6.038 -12.299  -0.400  0.00  0.00    +0.005 A 
ATOM     13  C   UNL     1      -4.424 -10.595   0.162  0.00  0.00    +0.005 A 
ATOM     14  C   UNL     1      -5.277 -12.646  -1.519  0.00  0.00    +0.000 A 
ATOM     15  C   UNL     1      -3.667 -10.944  -0.956  0.00  0.00    +0.000 A 
ATOM     16  C   UNL     1      -4.094 -11.968  -1.797  0.00  0.00    +0.000 A 
ENDBRANCH  10  11
ENDBRANCH   1  10
TORSDOF 2
ENDMDL
MODEL 2
REMARK VINA RESULT:    -4.721      8.548      9.843
REMARK INTER + INTRA:          -5.425
REMARK INTER:                  -5.307
REMARK INTRA:                  -0.118
REMARK UNBOUND:                -0.152
REMARK  Name = 1550473
REMARK  2 active torsions:
REMARK  status: ('A' for Active; 'I' for Inactive)
REMARK    1  A    between atoms: N_1  and  C_4
REMARK    2  A    between atoms: C_4  and  C_5
REMARK                            x       y       z     vdW  Elec       q    Type
REMARK                         _______ _______ _______ _____ _____    ______ ____
ROOT
ATOM      1  N   UNL     1       1.009  -4.694   2.486  0.00  0.00    -0.354 N 
ATOM      2  N   UNL     1       1.045  -4.791   4.800  0.00  0.00    -0.372 N 
ATOM      3  N   UNL     1       2.997  -5.137   3.645  0.00  0.00    -0.372 N 
ATOM      4  C   UNL     1       1.686  -4.874   3.628  0.00  0.00    +0.166 C 
ATOM      5  H   UNL     1       0.011  -4.528   2.540  0.00  0.00    +0.163 HD
ATOM      6  H   UNL     1       1.530  -4.919   5.678  0.00  0.00    +0.159 HD
ATOM      7  H   UNL     1       0.056  -4.579   4.853  0.00  0.00    +0.159 HD
ATOM      8  H   UNL     1       3.538  -5.219   2.795  0.00  0.00    +0.159 HD
ATOM      9  H   UNL     1       3.498  -5.280   4.513  0.00  0.00    +0.159 HD
ENDROOT
BRANCH   1  10
ATOM     10  C   UNL     1       1.623  -4.711   1.160  0.00  0.00    +0.151 C 
BRANCH  10  11
ATOM     11  C   UNL     1       1.683  -6.129   0.664  0.00  0.00    -0.028 A 
ATOM     12  C   UNL     1       2.860  -6.635   0.093  0.00  0.00    +0.005 A 
ATOM     13  C   UNL     1       0.568  -6.975   0.768  0.00  0.00    +0.005 A 
ATOM     14  C   UNL     1       2.925  -7.961  -0.340  0.00  0.00    +0.000 A 
ATOM     15  C   UNL     1       0.637  -8.298   0.334  0.00  0.00    +0.000 A 
ATOM     16  C   UNL     1       1.816  -8.792  -0.218  0.00  0.00    +0.000 A 
ENDBRANCH  10  11
ENDBRANCH   1  10
TORSDOF 2
ENDMDL
MODEL 3
REMARK VINA RESULT:    -4.687     55.471     56.647
REMARK INTER + INTRA:          -5.388
REMARK INTER:                  -5.242
REMARK INTRA:                  -0.145
REMARK UNBOUND:                -0.152
REMARK  Name = 1550473
REMARK  2 active torsions:
REMARK  status: ('A' for Active; 'I' for Inactive)
REMARK    1  A    between atoms: N_1  and  C_4
REMARK    2  A    between atoms: C_4  and  C_5
REMARK                            x       y       z     vdW  Elec       q    Type
REMARK                         _______ _______ _______ _____ _____    ______ ____
ROOT
ATOM      1  N   UNL     1      12.849  29.238  35.416  0.00  0.00    -0.354 N 
ATOM      2  N   UNL     1      12.783  30.236  33.327  0.00  0.00    -0.372 N 
ATOM      3  N   UNL     1      11.807  31.313  35.102  0.00  0.00    -0.372 N 
ATOM      4  C   UNL     1      12.479  30.258  34.630  0.00  0.00    +0.166 C 
ATOM      5  H   UNL     1      13.330  28.453  34.992  0.00  0.00    +0.163 HD
ATOM      6  H   UNL     1      12.520  30.992  32.710  0.00  0.00    +0.159 HD
ATOM      7  H   UNL     1      13.304  29.471  32.915  0.00  0.00    +0.159 HD
ATOM      8  H   UNL     1      11.541  31.388  36.075  0.00  0.00    +0.159 HD
ATOM      9  H   UNL     1      11.524  32.075  34.498  0.00  0.00    +0.159 HD
ENDROOT
BRANCH   1  10
ATOM     10  C   UNL     1      12.614  29.190  36.858  0.00  0.00    +0.151 C 
BRANCH  10  11
ATOM     11  C   UNL     1      11.837  27.945  37.188  0.00  0.00    -0.028 A 
ATOM     12  C   UNL     1      12.262  27.092  38.217  0.00  0.00    +0.005 A 
ATOM     13  C   UNL     1      10.672  27.616  36.478  0.00  0.00    +0.005 A 
ATOM     14  C   UNL     1      11.524  25.951  38.543  0.00  0.00    +0.000 A 
ATOM     15  C   UNL     1       9.939  26.476  36.806  0.00  0.00    +0.000 A 
ATOM     16  C   UNL     1      10.363  25.645  37.840  0.00  0.00    +0.000 A 
ENDBRANCH  10  11
ENDBRANCH   1  10
TORSDOF 2
ENDMDL
MODEL 4
REMARK VINA RESULT:    -4.562     14.289     15.258
REMARK INTER + INTRA:          -5.248
REMARK INTER:                  -5.107
REMARK INTRA:                  -0.141
REMARK UNBOUND:                -0.152
REMARK  Name = 1550473
REMARK  2 active torsions:
REMARK  status: ('A' for Active; 'I' for Inactive)
REMARK    1  A    between atoms: N_1  and  C_4
REMARK    2  A    between atoms: C_4  and  C_5
REMARK                            x       y       z     vdW  Elec       q    Type
REMARK                         _______ _______ _______ _____ _____    ______ ____
ROOT
ATOM      1  N   UNL     1     -19.461  -3.931  -3.405  0.00  0.00    -0.354 N 
ATOM      2  N   UNL     1     -21.396  -3.864  -2.134  0.00  0.00    -0.372 N 
ATOM      3  N   UNL     1     -20.313  -1.898  -2.610  0.00  0.00    -0.372 N 
ATOM      4  C   UNL     1     -20.376  -3.228  -2.725  0.00  0.00    +0.166 C 
ATOM      5  H   UNL     1     -19.549  -4.940  -3.429  0.00  0.00    +0.163 HD
ATOM      6  H   UNL     1     -22.103  -3.360  -1.616  0.00  0.00    +0.159 HD
ATOM      7  H   UNL     1     -21.507  -4.868  -2.198  0.00  0.00    +0.159 HD
ATOM      8  H   UNL     1     -19.565  -1.359  -3.028  0.00  0.00    +0.159 HD
ATOM      9  H   UNL     1     -21.005  -1.377  -2.086  0.00  0.00    +0.159 HD
ENDROOT
BRANCH   1  10
ATOM     10  C   UNL     1     -18.342  -3.330  -4.130  0.00  0.00    +0.151 C 
BRANCH  10  11
ATOM     11  C   UNL     1     -17.053  -3.884  -3.589  0.00  0.00    -0.028 A 
ATOM     12  C   UNL     1     -15.935  -3.053  -3.425  0.00  0.00    +0.005 A 
ATOM     13  C   UNL     1     -16.945  -5.237  -3.233  0.00  0.00    +0.005 A 
ATOM     14  C   UNL     1     -14.746  -3.560  -2.895  0.00  0.00    +0.000 A 
ATOM     15  C   UNL     1     -15.756  -5.740  -2.705  0.00  0.00    +0.000 A 
ATOM     16  C   UNL     1     -14.658  -4.900  -2.533  0.00  0.00    +0.000 A 
ENDBRANCH  10  11
ENDBRANCH   1  10
TORSDOF 2
ENDMDL
MODEL 5
REMARK VINA RESULT:    -4.502     14.488     15.374
REMARK INTER + INTRA:          -5.181
REMARK INTER:                  -5.052
REMARK INTRA:                  -0.129
REMARK UNBOUND:                -0.152
REMARK  Name = 1550473
REMARK  2 active torsions:
REMARK  status: ('A' for Active; 'I' for Inactive)
REMARK    1  A    between atoms: N_1  and  C_4
REMARK    2  A    between atoms: C_4  and  C_5
REMARK                            x       y       z     vdW  Elec       q    Type
REMARK                         _______ _______ _______ _____ _____    ______ ____
ROOT
ATOM      1  N   UNL     1     -16.253  -0.914  -4.300  0.00  0.00    -0.354 N 
ATOM      2  N   UNL     1     -16.155   1.378  -3.986  0.00  0.00    -0.372 N 
ATOM      3  N   UNL     1     -18.097   0.450  -4.780  0.00  0.00    -0.372 N 
ATOM      4  C   UNL     1     -16.838   0.289  -4.358  0.00  0.00    +0.166 C 
ATOM      5  H   UNL     1     -15.286  -0.965  -4.000  0.00  0.00    +0.163 HD
ATOM      6  H   UNL     1     -16.571   2.299  -4.016  0.00  0.00    +0.159 HD
ATOM      7  H   UNL     1     -15.204   1.319  -3.643  0.00  0.00    +0.159 HD
ATOM      8  H   UNL     1     -18.665  -0.331  -5.081  0.00  0.00    +0.159 HD
ATOM      9  H   UNL     1     -18.527   1.365  -4.828  0.00  0.00    +0.159 HD
ENDROOT
BRANCH   1  10
ATOM     10  C   UNL     1     -16.927  -2.168  -4.632  0.00  0.00    +0.151 C 
BRANCH  10  11
ATOM     11  C   UNL     1     -16.299  -3.286  -3.846  0.00  0.00    -0.028 A 
ATOM     12  C   UNL     1     -16.831  -4.583  -3.903  0.00  0.00    +0.005 A 
ATOM     13  C   UNL     1     -15.169  -3.056  -3.046  0.00  0.00    +0.005 A 
ATOM     14  C   UNL     1     -16.230  -5.628  -3.197  0.00  0.00    +0.000 A 
ATOM     15  C   UNL     1     -14.573  -4.102  -2.342  0.00  0.00    +0.000 A 
ATOM     16  C   UNL     1     -15.102  -5.388  -2.420  0.00  0.00    +0.000 A 
ENDBRANCH  10  11
ENDBRANCH   1  10
TORSDOF 2
ENDMDL
MODEL 6
REMARK VINA RESULT:    -4.481     13.801     14.728
REMARK INTER + INTRA:          -5.158
REMARK INTER:                  -5.017
REMARK INTRA:                  -0.141
REMARK UNBOUND:                -0.152
REMARK  Name = 1550473
REMARK  2 active torsions:
REMARK  status: ('A' for Active; 'I' for Inactive)
REMARK    1  A    between atoms: N_1  and  C_4
REMARK    2  A    between atoms: C_4  and  C_5
REMARK                            x       y       z     vdW  Elec       q    Type
REMARK                         _______ _______ _______ _____ _____    ______ ____
ROOT
ATOM      1  N   UNL     1     -15.117  -0.803  -3.599  0.00  0.00    -0.354 N 
ATOM      2  N   UNL     1     -16.104   1.261  -3.957  0.00  0.00    -0.372 N 
ATOM      3  N   UNL     1     -15.129   0.836  -1.924  0.00  0.00    -0.372 N 
ATOM      4  C   UNL     1     -15.443   0.418  -3.155  0.00  0.00    +0.166 C 
ATOM      5  H   UNL     1     -15.410  -1.070  -4.532  0.00  0.00    +0.163 HD
ATOM      6  H   UNL     1     -16.360   2.190  -3.651  0.00  0.00    +0.159 HD
ATOM      7  H   UNL     1     -16.355   1.008  -4.905  0.00  0.00    +0.159 HD
ATOM      8  H   UNL     1     -14.635   0.245  -1.268  0.00  0.00    +0.159 HD
ATOM      9  H   UNL     1     -15.387   1.758  -1.595  0.00  0.00    +0.159 HD
ENDROOT
BRANCH   1  10
ATOM     10  C   UNL     1     -14.351  -1.778  -2.824  0.00  0.00    +0.151 C 
BRANCH  10  11
ATOM     11  C   UNL     1     -15.011  -3.124  -2.938  0.00  0.00    -0.028 A 
ATOM     12  C   UNL     1     -16.160  -3.289  -3.725  0.00  0.00    +0.005 A 
ATOM     13  C   UNL     1     -14.488  -4.240  -2.267  0.00  0.00    +0.005 A 
ATOM     14  C   UNL     1     -16.756  -4.546  -3.855  0.00  0.00    +0.000 A 
ATOM     15  C   UNL     1     -15.087  -5.493  -2.399  0.00  0.00    +0.000 A 
ATOM     16  C   UNL     1     -16.219  -5.646  -3.195  0.00  0.00    +0.000 A 
ENDBRANCH  10  11
ENDBRANCH   1  10
TORSDOF 2
ENDMDL
MODEL 7
REMARK VINA RESULT:    -4.183     13.458     14.342
REMARK INTER + INTRA:          -4.824
REMARK INTER:                  -4.670
REMARK INTRA:                  -0.153
REMARK UNBOUND:                -0.152
REMARK  Name = 1550473
REMARK  2 active torsions:
REMARK  status: ('A' for Active; 'I' for Inactive)
REMARK    1  A    between atoms: N_1  and  C_4
REMARK    2  A    between atoms: C_4  and  C_5
REMARK                            x       y       z     vdW  Elec       q    Type
REMARK                         _______ _______ _______ _____ _____    ______ ____
ROOT
ATOM      1  N   UNL     1     -16.360  -5.368  -1.464  0.00  0.00    -0.354 N 
ATOM      2  N   UNL     1     -16.409  -4.824   0.787  0.00  0.00    -0.372 N 
ATOM      3  N   UNL     1     -14.920  -3.742  -0.583  0.00  0.00    -0.372 N 
ATOM      4  C   UNL     1     -15.894  -4.647  -0.435  0.00  0.00    +0.166 C 
ATOM      5  H   UNL     1     -17.078  -6.059  -1.280  0.00  0.00    +0.163 HD
ATOM      6  H   UNL     1     -16.079  -4.292   1.582  0.00  0.00    +0.159 HD
ATOM      7  H   UNL     1     -17.158  -5.483   0.959  0.00  0.00    +0.159 HD
ATOM      8  H   UNL     1     -14.486  -3.565  -1.479  0.00  0.00    +0.159 HD
ATOM      9  H   UNL     1     -14.569  -3.208   0.202  0.00  0.00    +0.159 HD
ENDROOT
BRANCH   1  10
ATOM     10  C   UNL     1     -15.905  -5.213  -2.844  0.00  0.00    +0.151 C 
BRANCH  10  11
ATOM     11  C   UNL     1     -16.729  -4.150  -3.517  0.00  0.00    -0.028 A 
ATOM     12  C   UNL     1     -18.125  -4.269  -3.586  0.00  0.00    +0.005 A 
ATOM     13  C   UNL     1     -16.121  -3.019  -4.082  0.00  0.00    +0.005 A 
ATOM     14  C   UNL     1     -18.893  -3.267  -4.184  0.00  0.00    +0.000 A 
ATOM     15  C   UNL     1     -16.891  -2.021  -4.679  0.00  0.00    +0.000 A 
ATOM     16  C   UNL     1     -18.278  -2.144  -4.727  0.00  0.00    +0.000 A 
ENDBRANCH  10  11
ENDBRANCH   1  10
TORSDOF 2
ENDMDL
MODEL 8
REMARK VINA RESULT:    -3.952     16.529     17.423
REMARK INTER + INTRA:          -4.567
REMARK INTER:                  -4.440
REMARK INTRA:                  -0.127
REMARK UNBOUND:                -0.152
REMARK  Name = 1550473
REMARK  2 active torsions:
REMARK  status: ('A' for Active; 'I' for Inactive)
REMARK    1  A    between atoms: N_1  and  C_4
REMARK    2  A    between atoms: C_4  and  C_5
REMARK                            x       y       z     vdW  Elec       q    Type
REMARK                         _______ _______ _______ _____ _____    ______ ____
ROOT
ATOM      1  N   UNL     1     -16.569   1.223  -3.938  0.00  0.00    -0.354 N 
ATOM      2  N   UNL     1     -15.161   2.942  -3.282  0.00  0.00    -0.372 N 
ATOM      3  N   UNL     1     -16.046   2.979  -5.399  0.00  0.00    -0.372 N 
ATOM      4  C   UNL     1     -15.935   2.371  -4.213  0.00  0.00    +0.166 C 
ATOM      5  H   UNL     1     -16.419   0.797  -3.030  0.00  0.00    +0.163 HD
ATOM      6  H   UNL     1     -14.674   3.809  -3.460  0.00  0.00    +0.159 HD
ATOM      7  H   UNL     1     -15.050   2.537  -2.361  0.00  0.00    +0.159 HD
ATOM      8  H   UNL     1     -16.610   2.597  -6.146  0.00  0.00    +0.159 HD
ATOM      9  H   UNL     1     -15.557   3.842  -5.600  0.00  0.00    +0.159 HD
ENDROOT
BRANCH   1  10
ATOM     10  C   UNL     1     -17.477   0.548  -4.863  0.00  0.00    +0.151 C 
BRANCH  10  11
ATOM     11  C   UNL     1     -17.459  -0.929  -4.579  0.00  0.00    -0.028 A 
ATOM     12  C   UNL     1     -16.291  -1.551  -4.116  0.00  0.00    +0.005 A 
ATOM     13  C   UNL     1     -18.610  -1.710  -4.765  0.00  0.00    +0.005 A 
ATOM     14  C   UNL     1     -16.282  -2.917  -3.824  0.00  0.00    +0.000 A 
ATOM     15  C   UNL     1     -18.597  -3.074  -4.472  0.00  0.00    +0.000 A 
ATOM     16  C   UNL     1     -17.434  -3.676  -3.999  0.00  0.00    +0.000 A 
ENDBRANCH  10  11
ENDBRANCH   1  10
TORSDOF 2
ENDMDL
MODEL 9
REMARK VINA RESULT:    -3.906     13.406     14.311
REMARK INTER + INTRA:          -4.515
REMARK INTER:                  -4.397
REMARK INTRA:                  -0.118
REMARK UNBOUND:                -0.152
REMARK  Name = 1550473
REMARK  2 active torsions:
REMARK  status: ('A' for Active; 'I' for Inactive)
REMARK    1  A    between atoms: N_1  and  C_4
REMARK    2  A    between atoms: C_4  and  C_5
REMARK                            x       y       z     vdW  Elec       q    Type
REMARK                         _______ _______ _______ _____ _____    ______ ____
ROOT
ATOM      1  N   UNL     1     -14.463  -1.094  -1.914  0.00  0.00    -0.354 N 
ATOM      2  N   UNL     1     -14.120   0.421  -0.196  0.00  0.00    -0.372 N 
ATOM      3  N   UNL     1     -15.167   1.133  -2.109  0.00  0.00    -0.372 N 
ATOM      4  C   UNL     1     -14.587   0.145  -1.419  0.00  0.00    +0.166 C 
ATOM      5  H   UNL     1     -13.986  -1.790  -1.353  0.00  0.00    +0.163 HD
ATOM      6  H   UNL     1     -14.202   1.346   0.205  0.00  0.00    +0.159 HD
ATOM      7  H   UNL     1     -13.684  -0.289   0.381  0.00  0.00    +0.159 HD
ATOM      8  H   UNL     1     -15.535   0.992  -3.040  0.00  0.00    +0.159 HD
ATOM      9  H   UNL     1     -15.248   2.068  -1.729  0.00  0.00    +0.159 HD
ENDROOT
BRANCH   1  10
ATOM     10  C   UNL     1     -14.986  -1.511  -3.213  0.00  0.00    +0.151 C 
BRANCH  10  11
ATOM     11  C   UNL     1     -15.318  -2.977  -3.162  0.00  0.00    -0.028 A 
ATOM     12  C   UNL     1     -14.544  -3.855  -2.390  0.00  0.00    +0.005 A 
ATOM     13  C   UNL     1     -16.409  -3.493  -3.878  0.00  0.00    +0.005 A 
ATOM     14  C   UNL     1     -14.870  -5.212  -2.317  0.00  0.00    +0.000 A 
ATOM     15  C   UNL     1     -16.731  -4.848  -3.803  0.00  0.00    +0.000 A 
ATOM     16  C   UNL     1     -15.963  -5.707  -3.021  0.00  0.00    +0.000 A 
ENDBRANCH  10  11
ENDBRANCH   1  10
TORSDOF 2
ENDMDL
