MODEL 1
REMARK VINA RESULT:    -5.230      0.000      0.000
REMARK INTER + INTRA:          -5.968
REMARK INTER:                  -5.841
REMARK INTRA:                  -0.127
REMARK UNBOUND:                -0.127
REMARK  Name = 1550473
REMARK  2 active torsions:
REMARK  status: ('A' for Active; 'I' for Inactive)
REMARK    1  A    between atoms: N_1  and  C_4
REMARK    2  A    between atoms: C_4  and  C_5
REMARK                            x       y       z     vdW  Elec       q    Type
REMARK                         _______ _______ _______ _____ _____    ______ ____
ROOT
ATOM      1  N   UNL     1       2.297  -2.642 -12.731  0.00  0.00    -0.354 N 
ATOM      2  N   UNL     1       3.477  -3.672 -11.025  0.00  0.00    -0.372 N 
ATOM      3  N   UNL     1       4.280  -3.810 -13.171  0.00  0.00    -0.372 N 
ATOM      4  C   UNL     1       3.345  -3.369 -12.322  0.00  0.00    +0.166 C 
ATOM      5  H   UNL     1       1.607  -2.363 -12.043  0.00  0.00    +0.163 HD
ATOM      6  H   UNL     1       4.260  -4.216 -10.687  0.00  0.00    +0.159 HD
ATOM      7  H   UNL     1       2.811  -3.353 -10.333  0.00  0.00    +0.159 HD
ATOM      8  H   UNL     1       4.236  -3.620 -14.163  0.00  0.00    +0.159 HD
ATOM      9  H   UNL     1       5.064  -4.366 -12.853  0.00  0.00    +0.159 HD
ENDROOT
BRANCH   1  10
ATOM     10  C   UNL     1       2.089  -2.211 -14.112  0.00  0.00    +0.151 C 
BRANCH  10  11
ATOM     11  C   UNL     1       0.612  -2.136 -14.386  0.00  0.00    -0.028 A 
ATOM     12  C   UNL     1      -0.305  -2.058 -13.328  0.00  0.00    +0.005 A 
ATOM     13  C   UNL     1       0.124  -2.137 -15.702  0.00  0.00    +0.005 A 
ATOM     14  C   UNL     1      -1.675  -1.958 -13.582  0.00  0.00    +0.000 A 
ATOM     15  C   UNL     1      -1.245  -2.038 -15.952  0.00  0.00    +0.000 A 
ATOM     16  C   UNL     1      -2.144  -1.946 -14.892  0.00  0.00    +0.000 A 
ENDBRANCH  10  11
ENDBRANCH   1  10
TORSDOF 2
ENDMDL
MODEL 2
REMARK VINA RESULT:    -5.025      1.936      3.010
REMARK INTER + INTRA:          -5.740
REMARK INTER:                  -5.606
REMARK INTRA:                  -0.134
REMARK UNBOUND:                -0.127
REMARK  Name = 1550473
REMARK  2 active torsions:
REMARK  status: ('A' for Active; 'I' for Inactive)
REMARK    1  A    between atoms: N_1  and  C_4
REMARK    2  A    between atoms: C_4  and  C_5
REMARK                            x       y       z     vdW  Elec       q    Type
REMARK                         _______ _______ _______ _____ _____    ______ ____
ROOT
ATOM      1  N   UNL     1       0.126  -3.815 -13.431  0.00  0.00    -0.354 N 
ATOM      2  N   UNL     1       1.632  -4.467 -11.797  0.00  0.00    -0.372 N 
ATOM      3  N   UNL     1      -0.416  -3.655 -11.156  0.00  0.00    -0.372 N 
ATOM      4  C   UNL     1       0.435  -3.973 -12.137  0.00  0.00    +0.166 C 
ATOM      5  H   UNL     1       0.827  -4.047 -14.125  0.00  0.00    +0.163 HD
ATOM      6  H   UNL     1       1.892  -4.602 -10.829  0.00  0.00    +0.159 HD
ATOM      7  H   UNL     1       2.313  -4.742 -12.494  0.00  0.00    +0.159 HD
ATOM      8  H   UNL     1      -1.333  -3.272 -11.347  0.00  0.00    +0.159 HD
ATOM      9  H   UNL     1      -0.170  -3.771 -10.181  0.00  0.00    +0.159 HD
ENDROOT
BRANCH   1  10
ATOM     10  C   UNL     1      -1.170  -3.335 -13.909  0.00  0.00    +0.151 C 
BRANCH  10  11
ATOM     11  C   UNL     1      -0.962  -2.510 -15.148  0.00  0.00    -0.028 A 
ATOM     12  C   UNL     1       0.331  -2.283 -15.644  0.00  0.00    +0.005 A 
ATOM     13  C   UNL     1      -2.053  -1.956 -15.835  0.00  0.00    +0.005 A 
ATOM     14  C   UNL     1       0.523  -1.541 -16.812  0.00  0.00    +0.000 A 
ATOM     15  C   UNL     1      -1.857  -1.216 -17.001  0.00  0.00    +0.000 A 
ATOM     16  C   UNL     1      -0.569  -1.011 -17.490  0.00  0.00    +0.000 A 
ENDBRANCH  10  11
ENDBRANCH   1  10
TORSDOF 2
ENDMDL
MODEL 3
REMARK VINA RESULT:    -5.023     17.544     18.291
REMARK INTER + INTRA:          -5.737
REMARK INTER:                  -5.637
REMARK INTRA:                  -0.099
REMARK UNBOUND:                -0.127
REMARK  Name = 1550473
REMARK  2 active torsions:
REMARK  status: ('A' for Active; 'I' for Inactive)
REMARK    1  A    between atoms: N_1  and  C_4
REMARK    2  A    between atoms: C_4  and  C_5
REMARK                            x       y       z     vdW  Elec       q    Type
REMARK                         _______ _______ _______ _____ _____    ______ ____
ROOT
ATOM      1  N   UNL     1      -9.005 -15.990  -9.785  0.00  0.00    -0.354 N 
ATOM      2  N   UNL     1      -6.941 -15.073  -9.270  0.00  0.00    -0.372 N 
ATOM      3  N   UNL     1      -7.162 -17.357  -9.310  0.00  0.00    -0.372 N 
ATOM      4  C   UNL     1      -7.716 -16.149  -9.458  0.00  0.00    +0.166 C 
ATOM      5  H   UNL     1      -9.372 -15.047  -9.852  0.00  0.00    +0.163 HD
ATOM      6  H   UNL     1      -5.964 -15.162  -9.027  0.00  0.00    +0.159 HD
ATOM      7  H   UNL     1      -7.299 -14.132  -9.383  0.00  0.00    +0.159 HD
ATOM      8  H   UNL     1      -7.694 -18.208  -9.432  0.00  0.00    +0.159 HD
ATOM      9  H   UNL     1      -6.188 -17.466  -9.055  0.00  0.00    +0.159 HD
ENDROOT
BRANCH   1  10
ATOM     10  C   UNL     1      -9.920 -17.095 -10.064  0.00  0.00    +0.151 C 
BRANCH  10  11
ATOM     11  C   UNL     1     -11.309 -16.548 -10.250  0.00  0.00    -0.028 A 
ATOM     12  C   UNL     1     -11.980 -15.930  -9.185  0.00  0.00    +0.005 A 
ATOM     13  C   UNL     1     -11.957 -16.640 -11.491  0.00  0.00    +0.005 A 
ATOM     14  C   UNL     1     -13.257 -15.395  -9.365  0.00  0.00    +0.000 A 
ATOM     15  C   UNL     1     -13.233 -16.105 -11.668  0.00  0.00    +0.000 A 
ATOM     16  C   UNL     1     -13.882 -15.481 -10.605  0.00  0.00    +0.000 A 
ENDBRANCH  10  11
ENDBRANCH   1  10
TORSDOF 2
ENDMDL
MODEL 4
REMARK VINA RESULT:    -4.970     25.344     26.157
REMARK INTER + INTRA:          -5.678
REMARK INTER:                  -5.567
REMARK INTRA:                  -0.111
REMARK UNBOUND:                -0.127
REMARK  Name = 1550473
REMARK  2 active torsions:
REMARK  status: ('A' for Active; 'I' for Inactive)
REMARK    1  A    between atoms: N_1  and  C_4
REMARK    2  A    between atoms: C_4  and  C_5
REMARK                            x       y       z     vdW  Elec       q    Type
REMARK                         _______ _______ _______ _____ _____    ______ ____
ROOT
ATOM      1  N   UNL     1      -2.330  15.464   3.476  0.00  0.00    -0.354 N 
ATOM      2  N   UNL     1      -3.693  13.702   2.842  0.00  0.00    -0.372 N 
ATOM      3  N   UNL     1      -4.485  15.224   4.366  0.00  0.00    -0.372 N 
ATOM      4  C   UNL     1      -3.496  14.809   3.568  0.00  0.00    +0.166 C 
ATOM      5  H   UNL     1      -1.609  15.081   2.876  0.00  0.00    +0.163 HD
ATOM      6  H   UNL     1      -4.564  13.189   2.887  0.00  0.00    +0.159 HD
ATOM      7  H   UNL     1      -2.988  13.348   2.208  0.00  0.00    +0.159 HD
ATOM      8  H   UNL     1      -4.396  16.049   4.944  0.00  0.00    +0.159 HD
ATOM      9  H   UNL     1      -5.359  14.718   4.434  0.00  0.00    +0.159 HD
ENDROOT
BRANCH   1  10
ATOM     10  C   UNL     1      -2.034  16.709   4.183  0.00  0.00    +0.151 C 
BRANCH  10  11
ATOM     11  C   UNL     1      -1.118  17.548   3.336  0.00  0.00    -0.028 A 
ATOM     12  C   UNL     1       0.235  17.691   3.677  0.00  0.00    +0.005 A 
ATOM     13  C   UNL     1      -1.595  18.199   2.188  0.00  0.00    +0.005 A 
ATOM     14  C   UNL     1       1.093  18.447   2.874  0.00  0.00    +0.000 A 
ATOM     15  C   UNL     1      -0.735  18.953   1.389  0.00  0.00    +0.000 A 
ATOM     16  C   UNL     1       0.609  19.074   1.731  0.00  0.00    +0.000 A 
ENDBRANCH  10  11
ENDBRANCH   1  10
TORSDOF 2
ENDMDL
MODEL 5
REMARK VINA RESULT:    -4.772     27.250     28.519
REMARK INTER + INTRA:          -5.457
REMARK INTER:                  -5.361
REMARK INTRA:                  -0.096
REMARK UNBOUND:                -0.127
REMARK  Name = 1550473
REMARK  2 active torsions:
REMARK  status: ('A' for Active; 'I' for Inactive)
REMARK    1  A    between atoms: N_1  and  C_4
REMARK    2  A    between atoms: C_4  and  C_5
REMARK                            x       y       z     vdW  Elec       q    Type
REMARK                         _______ _______ _______ _____ _____    ______ ____
ROOT
ATOM      1  N   UNL     1     -10.345   7.464   8.791  0.00  0.00    -0.354 N 
ATOM      2  N   UNL     1     -10.331   6.055   6.953  0.00  0.00    -0.372 N 
ATOM      3  N   UNL     1     -11.774   7.839   6.972  0.00  0.00    -0.372 N 
ATOM      4  C   UNL     1     -10.819   7.130   7.583  0.00  0.00    +0.166 C 
ATOM      5  H   UNL     1      -9.642   6.869   9.213  0.00  0.00    +0.163 HD
ATOM      6  H   UNL     1     -10.667   5.780   6.039  0.00  0.00    +0.159 HD
ATOM      7  H   UNL     1      -9.596   5.488   7.358  0.00  0.00    +0.159 HD
ATOM      8  H   UNL     1     -12.188   8.658   7.397  0.00  0.00    +0.159 HD
ATOM      9  H   UNL     1     -12.131   7.574   6.063  0.00  0.00    +0.159 HD
ENDROOT
BRANCH   1  10
ATOM     10  C   UNL     1     -10.770   8.647   9.538  0.00  0.00    +0.151 C 
BRANCH  10  11
ATOM     11  C   UNL     1      -9.669   9.057  10.477  0.00  0.00    -0.028 A 
ATOM     12  C   UNL     1      -8.762  10.063  10.114  0.00  0.00    +0.005 A 
ATOM     13  C   UNL     1      -9.531   8.447  11.733  0.00  0.00    +0.005 A 
ATOM     14  C   UNL     1      -7.758  10.465  10.997  0.00  0.00    +0.000 A 
ATOM     15  C   UNL     1      -8.527   8.851  12.612  0.00  0.00    +0.000 A 
ATOM     16  C   UNL     1      -7.642   9.862  12.245  0.00  0.00    +0.000 A 
ENDBRANCH  10  11
ENDBRANCH   1  10
TORSDOF 2
ENDMDL
MODEL 6
REMARK VINA RESULT:    -4.582     19.965     21.601
REMARK INTER + INTRA:          -5.245
REMARK INTER:                  -5.076
REMARK INTRA:                  -0.170
REMARK UNBOUND:                -0.127
REMARK  Name = 1550473
REMARK  2 active torsions:
REMARK  status: ('A' for Active; 'I' for Inactive)
REMARK    1  A    between atoms: N_1  and  C_4
REMARK    2  A    between atoms: C_4  and  C_5
REMARK                            x       y       z     vdW  Elec       q    Type
REMARK                         _______ _______ _______ _____ _____    ______ ____
ROOT
ATOM      1  N   UNL     1     -16.937  -0.603  -4.814  0.00  0.00    -0.354 N 
ATOM      2  N   UNL     1     -14.775   0.228  -4.780  0.00  0.00    -0.372 N 
ATOM      3  N   UNL     1     -16.193   0.757  -3.056  0.00  0.00    -0.372 N 
ATOM      4  C   UNL     1     -15.983   0.123  -4.215  0.00  0.00    +0.166 C 
ATOM      5  H   UNL     1     -16.724  -1.034  -5.706  0.00  0.00    +0.163 HD
ATOM      6  H   UNL     1     -14.035   0.766  -4.349  0.00  0.00    +0.159 HD
ATOM      7  H   UNL     1     -14.551  -0.242  -5.649  0.00  0.00    +0.159 HD
ATOM      8  H   UNL     1     -17.085   0.723  -2.581  0.00  0.00    +0.159 HD
ATOM      9  H   UNL     1     -15.469   1.310  -2.615  0.00  0.00    +0.159 HD
ENDROOT
BRANCH   1  10
ATOM     10  C   UNL     1     -18.269  -0.824  -4.255  0.00  0.00    +0.151 C 
BRANCH  10  11
ATOM     11  C   UNL     1     -19.280  -0.084  -5.086  0.00  0.00    -0.028 A 
ATOM     12  C   UNL     1     -19.775  -0.645  -6.272  0.00  0.00    +0.005 A 
ATOM     13  C   UNL     1     -19.751   1.177  -4.690  0.00  0.00    +0.005 A 
ATOM     14  C   UNL     1     -20.736   0.030  -7.029  0.00  0.00    +0.000 A 
ATOM     15  C   UNL     1     -20.710   1.848  -5.449  0.00  0.00    +0.000 A 
ATOM     16  C   UNL     1     -21.204   1.273  -6.617  0.00  0.00    +0.000 A 
ENDBRANCH  10  11
ENDBRANCH   1  10
TORSDOF 2
ENDMDL
MODEL 7
REMARK VINA RESULT:    -4.534     26.476     27.294
REMARK INTER + INTRA:          -5.191
REMARK INTER:                  -5.017
REMARK INTRA:                  -0.173
REMARK UNBOUND:                -0.127
REMARK  Name = 1550473
REMARK  2 active torsions:
REMARK  status: ('A' for Active; 'I' for Inactive)
REMARK    1  A    between atoms: N_1  and  C_4
REMARK    2  A    between atoms: C_4  and  C_5
REMARK                            x       y       z     vdW  Elec       q    Type
REMARK                         _______ _______ _______ _____ _____    ______ ____
ROOT
ATOM      1  N   UNL     1      -2.424  15.935   6.836  0.00  0.00    -0.354 N 
ATOM      2  N   UNL     1      -2.645  17.089   8.832  0.00  0.00    -0.372 N 
ATOM      3  N   UNL     1      -4.509  16.144   7.885  0.00  0.00    -0.372 N 
ATOM      4  C   UNL     1      -3.194  16.381   7.837  0.00  0.00    +0.166 C 
ATOM      5  H   UNL     1      -1.439  16.174   6.843  0.00  0.00    +0.163 HD
ATOM      6  H   UNL     1      -3.200  17.436   9.603  0.00  0.00    +0.159 HD
ATOM      7  H   UNL     1      -1.652  17.287   8.860  0.00  0.00    +0.159 HD
ATOM      8  H   UNL     1      -4.985  15.621   7.163  0.00  0.00    +0.159 HD
ATOM      9  H   UNL     1      -5.083  16.493   8.642  0.00  0.00    +0.159 HD
ENDROOT
BRANCH   1  10
ATOM     10  C   UNL     1      -2.914  15.109   5.733  0.00  0.00    +0.151 C 
BRANCH  10  11
ATOM     11  C   UNL     1      -3.008  15.954   4.492  0.00  0.00    -0.028 A 
ATOM     12  C   UNL     1      -1.853  16.504   3.916  0.00  0.00    +0.005 A 
ATOM     13  C   UNL     1      -4.248  16.202   3.885  0.00  0.00    +0.005 A 
ATOM     14  C   UNL     1      -1.937  17.263   2.747  0.00  0.00    +0.000 A 
ATOM     15  C   UNL     1      -4.327  16.962   2.717  0.00  0.00    +0.000 A 
ATOM     16  C   UNL     1      -3.172  17.490   2.147  0.00  0.00    +0.000 A 
ENDBRANCH  10  11
ENDBRANCH   1  10
TORSDOF 2
ENDMDL
MODEL 8
REMARK VINA RESULT:    -4.526     19.606     21.277
REMARK INTER + INTRA:          -5.182
REMARK INTER:                  -5.063
REMARK INTRA:                  -0.119
REMARK UNBOUND:                -0.127
REMARK  Name = 1550473
REMARK  2 active torsions:
REMARK  status: ('A' for Active; 'I' for Inactive)
REMARK    1  A    between atoms: N_1  and  C_4
REMARK    2  A    between atoms: C_4  and  C_5
REMARK                            x       y       z     vdW  Elec       q    Type
REMARK                         _______ _______ _______ _____ _____    ______ ____
ROOT
ATOM      1  N   UNL     1     -16.996  -0.342  -4.766  0.00  0.00    -0.354 N 
ATOM      2  N   UNL     1     -14.790   0.242  -5.162  0.00  0.00    -0.372 N 
ATOM      3  N   UNL     1     -15.580   0.288  -3.008  0.00  0.00    -0.372 N 
ATOM      4  C   UNL     1     -15.803   0.059  -4.307  0.00  0.00    +0.166 C 
ATOM      5  H   UNL     1     -17.109  -0.470  -5.765  0.00  0.00    +0.163 HD
ATOM      6  H   UNL     1     -13.878   0.541  -4.845  0.00  0.00    +0.159 HD
ATOM      7  H   UNL     1     -14.893   0.070  -6.155  0.00  0.00    +0.159 HD
ATOM      8  H   UNL     1     -16.304   0.175  -2.312  0.00  0.00    +0.159 HD
ATOM      9  H   UNL     1     -14.677   0.600  -2.672  0.00  0.00    +0.159 HD
ENDROOT
BRANCH   1  10
ATOM     10  C   UNL     1     -18.149  -0.622  -3.912  0.00  0.00    +0.151 C 
BRANCH  10  11
ATOM     11  C   UNL     1     -18.710  -1.971  -4.269  0.00  0.00    -0.028 A 
ATOM     12  C   UNL     1     -19.326  -2.179  -5.512  0.00  0.00    +0.005 A 
ATOM     13  C   UNL     1     -18.623  -3.046  -3.372  0.00  0.00    +0.005 A 
ATOM     14  C   UNL     1     -19.820  -3.439  -5.857  0.00  0.00    +0.000 A 
ATOM     15  C   UNL     1     -19.119  -4.303  -3.720  0.00  0.00    +0.000 A 
ATOM     16  C   UNL     1     -19.715  -4.499  -4.963  0.00  0.00    +0.000 A 
ENDBRANCH  10  11
ENDBRANCH   1  10
TORSDOF 2
ENDMDL
MODEL 9
REMARK VINA RESULT:    -4.486     29.235     30.905
REMARK INTER + INTRA:          -5.138
REMARK INTER:                  -5.042
REMARK INTRA:                  -0.096
REMARK UNBOUND:                -0.127
REMARK  Name = 1550473
REMARK  2 active torsions:
REMARK  status: ('A' for Active; 'I' for Inactive)
REMARK    1  A    between atoms: N_1  and  C_4
REMARK    2  A    between atoms: C_4  and  C_5
REMARK                            x       y       z     vdW  Elec       q    Type
REMARK                         _______ _______ _______ _____ _____    ______ ____
ROOT
ATOM      1  N   UNL     1       8.578  11.737  13.076  0.00  0.00    -0.354 N 
ATOM      2  N   UNL     1       7.880  10.283  14.739  0.00  0.00    -0.372 N 
ATOM      3  N   UNL     1       8.192  12.496  15.259  0.00  0.00    -0.372 N 
ATOM      4  C   UNL     1       8.222  11.517  14.349  0.00  0.00    +0.166 C 
ATOM      5  H   UNL     1       8.609  10.947  12.442  0.00  0.00    +0.163 HD
ATOM      6  H   UNL     1       7.604  10.087  15.692  0.00  0.00    +0.159 HD
ATOM      7  H   UNL     1       7.868   9.504  14.092  0.00  0.00    +0.159 HD
ATOM      8  H   UNL     1       8.444  13.448  15.030  0.00  0.00    +0.159 HD
ATOM      9  H   UNL     1       7.929  12.318  16.221  0.00  0.00    +0.159 HD
ENDROOT
BRANCH   1  10
ATOM     10  C   UNL     1       8.915  13.053  12.537  0.00  0.00    +0.151 C 
BRANCH  10  11
ATOM     11  C   UNL     1       9.579  12.880  11.199  0.00  0.00    -0.028 A 
ATOM     12  C   UNL     1      10.931  13.211  11.027  0.00  0.00    +0.005 A 
ATOM     13  C   UNL     1       8.863  12.380  10.100  0.00  0.00    +0.005 A 
ATOM     14  C   UNL     1      11.557  13.022   9.792  0.00  0.00    +0.000 A 
ATOM     15  C   UNL     1       9.491  12.194   8.869  0.00  0.00    +0.000 A 
ATOM     16  C   UNL     1      10.838  12.513   8.716  0.00  0.00    +0.000 A 
ENDBRANCH  10  11
ENDBRANCH   1  10
TORSDOF 2
ENDMDL
