MODEL 1
REMARK VINA RESULT:    -4.788      0.000      0.000
REMARK INTER + INTRA:          -5.473
REMARK INTER:                  -5.348
REMARK INTRA:                  -0.125
REMARK UNBOUND:                -0.125
REMARK  Name = 1550473
REMARK  2 active torsions:
REMARK  status: ('A' for Active; 'I' for Inactive)
REMARK    1  A    between atoms: N_1  and  C_4
REMARK    2  A    between atoms: C_4  and  C_5
REMARK                            x       y       z     vdW  Elec       q    Type
REMARK                         _______ _______ _______ _____ _____    ______ ____
ROOT
ATOM      1  N   UNL     1      12.750   4.380  -3.923  0.00  0.00    -0.354 N 
ATOM      2  N   UNL     1      13.786   3.372  -2.114  0.00  0.00    -0.372 N 
ATOM      3  N   UNL     1      11.495   3.349  -2.234  0.00  0.00    -0.372 N 
ATOM      4  C   UNL     1      12.667   3.707  -2.768  0.00  0.00    +0.166 C 
ATOM      5  H   UNL     1      13.668   4.648  -4.259  0.00  0.00    +0.163 HD
ATOM      6  H   UNL     1      13.755   2.861  -1.242  0.00  0.00    +0.159 HD
ATOM      7  H   UNL     1      14.704   3.601  -2.475  0.00  0.00    +0.159 HD
ATOM      8  H   UNL     1      10.614   3.577  -2.675  0.00  0.00    +0.159 HD
ATOM      9  H   UNL     1      11.443   2.847  -1.356  0.00  0.00    +0.159 HD
ENDROOT
BRANCH   1  10
ATOM     10  C   UNL     1      11.595   4.746  -4.741  0.00  0.00    +0.151 C 
BRANCH  10  11
ATOM     11  C   UNL     1      11.763   4.163  -6.117  0.00  0.00    -0.028 A 
ATOM     12  C   UNL     1      12.642   3.092  -6.334  0.00  0.00    +0.005 A 
ATOM     13  C   UNL     1      11.041   4.674  -7.207  0.00  0.00    +0.005 A 
ATOM     14  C   UNL     1      12.776   2.531  -7.606  0.00  0.00    +0.000 A 
ATOM     15  C   UNL     1      11.179   4.111  -8.476  0.00  0.00    +0.000 A 
ATOM     16  C   UNL     1      12.044   3.038  -8.675  0.00  0.00    +0.000 A 
ENDBRANCH  10  11
ENDBRANCH   1  10
TORSDOF 2
ENDMDL
MODEL 2
REMARK VINA RESULT:    -4.725     21.656     23.548
REMARK INTER + INTRA:          -5.403
REMARK INTER:                  -5.285
REMARK INTRA:                  -0.118
REMARK UNBOUND:                -0.125
REMARK  Name = 1550473
REMARK  2 active torsions:
REMARK  status: ('A' for Active; 'I' for Inactive)
REMARK    1  A    between atoms: N_1  and  C_4
REMARK    2  A    between atoms: C_4  and  C_5
REMARK                            x       y       z     vdW  Elec       q    Type
REMARK                         _______ _______ _______ _____ _____    ______ ____
ROOT
ATOM      1  N   UNL     1       2.319  -5.268  15.709  0.00  0.00    -0.354 N 
ATOM      2  N   UNL     1       1.555  -7.114  16.881  0.00  0.00    -0.372 N 
ATOM      3  N   UNL     1       3.297  -5.896  17.744  0.00  0.00    -0.372 N 
ATOM      4  C   UNL     1       2.397  -6.080  16.772  0.00  0.00    +0.166 C 
ATOM      5  H   UNL     1       1.635  -5.480  14.992  0.00  0.00    +0.163 HD
ATOM      6  H   UNL     1       1.588  -7.742  17.673  0.00  0.00    +0.159 HD
ATOM      7  H   UNL     1       0.842  -7.296  16.185  0.00  0.00    +0.159 HD
ATOM      8  H   UNL     1       3.965  -5.137  17.719  0.00  0.00    +0.159 HD
ATOM      9  H   UNL     1       3.353  -6.520  18.539  0.00  0.00    +0.159 HD
ENDROOT
BRANCH   1  10
ATOM     10  C   UNL     1       3.154  -4.083  15.522  0.00  0.00    +0.151 C 
BRANCH  10  11
ATOM     11  C   UNL     1       3.132  -3.691  14.070  0.00  0.00    -0.028 A 
ATOM     12  C   UNL     1       3.081  -2.340  13.698  0.00  0.00    +0.005 A 
ATOM     13  C   UNL     1       3.169  -4.666  13.062  0.00  0.00    +0.005 A 
ATOM     14  C   UNL     1       3.092  -1.974  12.350  0.00  0.00    +0.000 A 
ATOM     15  C   UNL     1       3.178  -4.297  11.717  0.00  0.00    +0.000 A 
ATOM     16  C   UNL     1       3.142  -2.951  11.362  0.00  0.00    +0.000 A 
ENDBRANCH  10  11
ENDBRANCH   1  10
TORSDOF 2
ENDMDL
MODEL 3
REMARK VINA RESULT:    -4.681     21.395     22.280
REMARK INTER + INTRA:          -5.354
REMARK INTER:                  -5.194
REMARK INTRA:                  -0.159
REMARK UNBOUND:                -0.125
REMARK  Name = 1550473
REMARK  2 active torsions:
REMARK  status: ('A' for Active; 'I' for Inactive)
REMARK    1  A    between atoms: N_1  and  C_4
REMARK    2  A    between atoms: C_4  and  C_5
REMARK                            x       y       z     vdW  Elec       q    Type
REMARK                         _______ _______ _______ _____ _____    ______ ____
ROOT
ATOM      1  N   UNL     1      11.617  -9.020  12.199  0.00  0.00    -0.354 N 
ATOM      2  N   UNL     1       9.326  -8.995  12.538  0.00  0.00    -0.372 N 
ATOM      3  N   UNL     1      10.663 -10.055  14.072  0.00  0.00    -0.372 N 
ATOM      4  C   UNL     1      10.551  -9.359  12.936  0.00  0.00    +0.166 C 
ATOM      5  H   UNL     1      11.463  -8.517  11.332  0.00  0.00    +0.163 HD
ATOM      6  H   UNL     1       8.503  -9.234  13.075  0.00  0.00    +0.159 HD
ATOM      7  H   UNL     1       9.179  -8.454  11.695  0.00  0.00    +0.159 HD
ATOM      8  H   UNL     1      11.559 -10.365  14.424  0.00  0.00    +0.159 HD
ATOM      9  H   UNL     1       9.850 -10.313  14.618  0.00  0.00    +0.159 HD
ENDROOT
BRANCH   1  10
ATOM     10  C   UNL     1      12.998  -9.320  12.572  0.00  0.00    +0.151 C 
BRANCH  10  11
ATOM     11  C   UNL     1      13.610 -10.203  11.520  0.00  0.00    -0.028 A 
ATOM     12  C   UNL     1      14.651  -9.727  10.708  0.00  0.00    +0.005 A 
ATOM     13  C   UNL     1      13.159 -11.519  11.334  0.00  0.00    +0.005 A 
ATOM     14  C   UNL     1      15.240 -10.557   9.751  0.00  0.00    +0.000 A 
ATOM     15  C   UNL     1      13.749 -12.344  10.377  0.00  0.00    +0.000 A 
ATOM     16  C   UNL     1      14.791 -11.863   9.587  0.00  0.00    +0.000 A 
ENDBRANCH  10  11
ENDBRANCH   1  10
TORSDOF 2
ENDMDL
MODEL 4
REMARK VINA RESULT:    -4.673     21.162     22.061
REMARK INTER + INTRA:          -5.344
REMARK INTER:                  -5.231
REMARK INTRA:                  -0.113
REMARK UNBOUND:                -0.125
REMARK  Name = 1550473
REMARK  2 active torsions:
REMARK  status: ('A' for Active; 'I' for Inactive)
REMARK    1  A    between atoms: N_1  and  C_4
REMARK    2  A    between atoms: C_4  and  C_5
REMARK                            x       y       z     vdW  Elec       q    Type
REMARK                         _______ _______ _______ _____ _____    ______ ____
ROOT
ATOM      1  N   UNL     1      11.968  -9.276  11.997  0.00  0.00    -0.354 N 
ATOM      2  N   UNL     1      10.609  -7.415  12.230  0.00  0.00    -0.372 N 
ATOM      3  N   UNL     1       9.932  -9.405  13.150  0.00  0.00    -0.372 N 
ATOM      4  C   UNL     1      10.844  -8.713  12.459  0.00  0.00    +0.166 C 
ATOM      5  H   UNL     1      12.605  -8.704  11.454  0.00  0.00    +0.163 HD
ATOM      6  H   UNL     1       9.771  -6.962  12.570  0.00  0.00    +0.159 HD
ATOM      7  H   UNL     1      11.269  -6.835  11.727  0.00  0.00    +0.159 HD
ATOM      8  H   UNL     1      10.047 -10.390  13.351  0.00  0.00    +0.159 HD
ATOM      9  H   UNL     1       9.082  -8.972  13.487  0.00  0.00    +0.159 HD
ENDROOT
BRANCH   1  10
ATOM     10  C   UNL     1      12.344 -10.668  12.237  0.00  0.00    +0.151 C 
BRANCH  10  11
ATOM     11  C   UNL     1      13.313 -11.106  11.173  0.00  0.00    -0.028 A 
ATOM     12  C   UNL     1      13.253 -12.404  10.647  0.00  0.00    +0.005 A 
ATOM     13  C   UNL     1      14.289 -10.225  10.684  0.00  0.00    +0.005 A 
ATOM     14  C   UNL     1      14.134 -12.802   9.638  0.00  0.00    +0.000 A 
ATOM     15  C   UNL     1      15.167 -10.626   9.677  0.00  0.00    +0.000 A 
ATOM     16  C   UNL     1      15.087 -11.913   9.152  0.00  0.00    +0.000 A 
ENDBRANCH  10  11
ENDBRANCH   1  10
TORSDOF 2
ENDMDL
MODEL 5
REMARK VINA RESULT:    -4.634     21.115     21.610
REMARK INTER + INTRA:          -5.301
REMARK INTER:                  -5.174
REMARK INTRA:                  -0.127
REMARK UNBOUND:                -0.125
REMARK  Name = 1550473
REMARK  2 active torsions:
REMARK  status: ('A' for Active; 'I' for Inactive)
REMARK    1  A    between atoms: N_1  and  C_4
REMARK    2  A    between atoms: C_4  and  C_5
REMARK                            x       y       z     vdW  Elec       q    Type
REMARK                         _______ _______ _______ _____ _____    ______ ____
ROOT
ATOM      1  N   UNL     1      11.106  -8.325  11.865  0.00  0.00    -0.354 N 
ATOM      2  N   UNL     1       9.847  -7.078  13.357  0.00  0.00    -0.372 N 
ATOM      3  N   UNL     1      10.223  -9.297  13.806  0.00  0.00    -0.372 N 
ATOM      4  C   UNL     1      10.400  -8.244  13.001  0.00  0.00    +0.166 C 
ATOM      5  H   UNL     1      11.178  -7.498  11.283  0.00  0.00    +0.163 HD
ATOM      6  H   UNL     1       9.312  -6.986  14.210  0.00  0.00    +0.159 HD
ATOM      7  H   UNL     1       9.960  -6.242  12.796  0.00  0.00    +0.159 HD
ATOM      8  H   UNL     1      10.609 -10.206  13.591  0.00  0.00    +0.159 HD
ATOM      9  H   UNL     1       9.680  -9.227  14.658  0.00  0.00    +0.159 HD
ENDROOT
BRANCH   1  10
ATOM     10  C   UNL     1      11.793  -9.534  11.414  0.00  0.00    +0.151 C 
BRANCH  10  11
ATOM     11  C   UNL     1      13.259  -9.235  11.255  0.00  0.00    -0.028 A 
ATOM     12  C   UNL     1      13.804  -8.050  11.770  0.00  0.00    +0.005 A 
ATOM     13  C   UNL     1      14.109 -10.137  10.597  0.00  0.00    +0.005 A 
ATOM     14  C   UNL     1      15.170  -7.787  11.649  0.00  0.00    +0.000 A 
ATOM     15  C   UNL     1      15.473  -9.870  10.478  0.00  0.00    +0.000 A 
ATOM     16  C   UNL     1      16.003  -8.696  11.006  0.00  0.00    +0.000 A 
ENDBRANCH  10  11
ENDBRANCH   1  10
TORSDOF 2
ENDMDL
MODEL 6
REMARK VINA RESULT:    -4.554     12.516     13.316
REMARK INTER + INTRA:          -5.212
REMARK INTER:                  -5.043
REMARK INTRA:                  -0.169
REMARK UNBOUND:                -0.125
REMARK  Name = 1550473
REMARK  2 active torsions:
REMARK  status: ('A' for Active; 'I' for Inactive)
REMARK    1  A    between atoms: N_1  and  C_4
REMARK    2  A    between atoms: C_4  and  C_5
REMARK                            x       y       z     vdW  Elec       q    Type
REMARK                         _______ _______ _______ _____ _____    ______ ____
ROOT
ATOM      1  N   UNL     1       4.774  -8.089  -7.262  0.00  0.00    -0.354 N 
ATOM      2  N   UNL     1       5.022  -7.109  -5.178  0.00  0.00    -0.372 N 
ATOM      3  N   UNL     1       6.895  -7.807  -6.306  0.00  0.00    -0.372 N 
ATOM      4  C   UNL     1       5.565  -7.676  -6.263  0.00  0.00    +0.166 C 
ATOM      5  H   UNL     1       3.771  -7.989  -7.155  0.00  0.00    +0.163 HD
ATOM      6  H   UNL     1       5.594  -6.784  -4.410  0.00  0.00    +0.159 HD
ATOM      7  H   UNL     1       4.023  -6.968  -5.094  0.00  0.00    +0.159 HD
ATOM      8  H   UNL     1       7.366  -8.231  -7.093  0.00  0.00    +0.159 HD
ATOM      9  H   UNL     1       7.483  -7.498  -5.541  0.00  0.00    +0.159 HD
ENDROOT
BRANCH   1  10
ATOM     10  C   UNL     1       5.269  -8.669  -8.509  0.00  0.00    +0.151 C 
BRANCH  10  11
ATOM     11  C   UNL     1       5.462  -7.572  -9.519  0.00  0.00    -0.028 A 
ATOM     12  C   UNL     1       4.367  -6.825  -9.977  0.00  0.00    +0.005 A 
ATOM     13  C   UNL     1       6.739  -7.270 -10.016  0.00  0.00    +0.005 A 
ATOM     14  C   UNL     1       4.551  -5.785 -10.892  0.00  0.00    +0.000 A 
ATOM     15  C   UNL     1       6.918  -6.232 -10.930  0.00  0.00    +0.000 A 
ATOM     16  C   UNL     1       5.824  -5.488 -11.366  0.00  0.00    +0.000 A 
ENDBRANCH  10  11
ENDBRANCH   1  10
TORSDOF 2
ENDMDL
MODEL 7
REMARK VINA RESULT:    -4.497      7.650      8.621
REMARK INTER + INTRA:          -5.148
REMARK INTER:                  -4.987
REMARK INTRA:                  -0.161
REMARK UNBOUND:                -0.125
REMARK  Name = 1550473
REMARK  2 active torsions:
REMARK  status: ('A' for Active; 'I' for Inactive)
REMARK    1  A    between atoms: N_1  and  C_4
REMARK    2  A    between atoms: C_4  and  C_5
REMARK                            x       y       z     vdW  Elec       q    Type
REMARK                         _______ _______ _______ _____ _____    ______ ____
ROOT
ATOM      1  N   UNL     1       5.215   6.760  -1.748  0.00  0.00    -0.354 N 
ATOM      2  N   UNL     1       3.493   8.309  -1.750  0.00  0.00    -0.372 N 
ATOM      3  N   UNL     1       3.659   6.836   0.002  0.00  0.00    -0.372 N 
ATOM      4  C   UNL     1       4.133   7.290  -1.163  0.00  0.00    +0.166 C 
ATOM      5  H   UNL     1       5.507   7.130  -2.646  0.00  0.00    +0.163 HD
ATOM      6  H   UNL     1       2.676   8.732  -1.330  0.00  0.00    +0.159 HD
ATOM      7  H   UNL     1       3.814   8.707  -2.624  0.00  0.00    +0.159 HD
ATOM      8  H   UNL     1       4.092   6.065   0.493  0.00  0.00    +0.159 HD
ATOM      9  H   UNL     1       2.835   7.238   0.432  0.00  0.00    +0.159 HD
ENDROOT
BRANCH   1  10
ATOM     10  C   UNL     1       6.015   5.684  -1.166  0.00  0.00    +0.151 C 
BRANCH  10  11
ATOM     11  C   UNL     1       5.735   4.407  -1.909  0.00  0.00    -0.028 A 
ATOM     12  C   UNL     1       5.450   4.430  -3.282  0.00  0.00    +0.005 A 
ATOM     13  C   UNL     1       5.758   3.170  -1.246  0.00  0.00    +0.005 A 
ATOM     14  C   UNL     1       5.219   3.241  -3.979  0.00  0.00    +0.000 A 
ATOM     15  C   UNL     1       5.526   1.986  -1.945  0.00  0.00    +0.000 A 
ATOM     16  C   UNL     1       5.259   2.021  -3.311  0.00  0.00    +0.000 A 
ENDBRANCH  10  11
ENDBRANCH   1  10
TORSDOF 2
ENDMDL
MODEL 8
REMARK VINA RESULT:    -4.361     21.375     22.387
REMARK INTER + INTRA:          -4.996
REMARK INTER:                  -4.845
REMARK INTRA:                  -0.152
REMARK UNBOUND:                -0.125
REMARK  Name = 1550473
REMARK  2 active torsions:
REMARK  status: ('A' for Active; 'I' for Inactive)
REMARK    1  A    between atoms: N_1  and  C_4
REMARK    2  A    between atoms: C_4  and  C_5
REMARK                            x       y       z     vdW  Elec       q    Type
REMARK                         _______ _______ _______ _____ _____    ______ ____
ROOT
ATOM      1  N   UNL     1      14.461 -14.367   6.855  0.00  0.00    -0.354 N 
ATOM      2  N   UNL     1      14.670 -14.383   4.548  0.00  0.00    -0.372 N 
ATOM      3  N   UNL     1      16.539 -14.730   5.833  0.00  0.00    -0.372 N 
ATOM      4  C   UNL     1      15.225 -14.494   5.761  0.00  0.00    +0.166 C 
ATOM      5  H   UNL     1      13.477 -14.158   6.733  0.00  0.00    +0.163 HD
ATOM      6  H   UNL     1      15.219 -14.478   3.705  0.00  0.00    +0.159 HD
ATOM      7  H   UNL     1      13.677 -14.220   4.429  0.00  0.00    +0.159 HD
ATOM      8  H   UNL     1      17.019 -14.818   6.718  0.00  0.00    +0.159 HD
ATOM      9  H   UNL     1      17.108 -14.816   5.000  0.00  0.00    +0.159 HD
ENDROOT
BRANCH   1  10
ATOM     10  C   UNL     1      14.958 -14.523   8.221  0.00  0.00    +0.151 C 
BRANCH  10  11
ATOM     11  C   UNL     1      14.662 -13.270   8.998  0.00  0.00    -0.028 A 
ATOM     12  C   UNL     1      15.405 -12.101   8.774  0.00  0.00    +0.005 A 
ATOM     13  C   UNL     1      13.635 -13.243   9.954  0.00  0.00    +0.005 A 
ATOM     14  C   UNL     1      15.110 -10.929   9.474  0.00  0.00    +0.000 A 
ATOM     15  C   UNL     1      13.345 -12.070  10.651  0.00  0.00    +0.000 A 
ATOM     16  C   UNL     1      14.081 -10.913  10.409  0.00  0.00    +0.000 A 
ENDBRANCH  10  11
ENDBRANCH   1  10
TORSDOF 2
ENDMDL
MODEL 9
REMARK VINA RESULT:    -4.257      7.440      8.127
REMARK INTER + INTRA:          -4.881
REMARK INTER:                  -4.744
REMARK INTRA:                  -0.136
REMARK UNBOUND:                -0.125
REMARK  Name = 1550473
REMARK  2 active torsions:
REMARK  status: ('A' for Active; 'I' for Inactive)
REMARK    1  A    between atoms: N_1  and  C_4
REMARK    2  A    between atoms: C_4  and  C_5
REMARK                            x       y       z     vdW  Elec       q    Type
REMARK                         _______ _______ _______ _____ _____    ______ ____
ROOT
ATOM      1  N   UNL     1       6.133   6.873  -2.810  0.00  0.00    -0.354 N 
ATOM      2  N   UNL     1       6.458   8.736  -1.474  0.00  0.00    -0.372 N 
ATOM      3  N   UNL     1       4.462   8.500  -2.581  0.00  0.00    -0.372 N 
ATOM      4  C   UNL     1       5.680   8.025  -2.299  0.00  0.00    +0.166 C 
ATOM      5  H   UNL     1       7.077   6.582  -2.581  0.00  0.00    +0.163 HD
ATOM      6  H   UNL     1       6.141   9.607  -1.070  0.00  0.00    +0.159 HD
ATOM      7  H   UNL     1       7.383   8.421  -1.210  0.00  0.00    +0.159 HD
ATOM      8  H   UNL     1       3.828   8.013  -3.201  0.00  0.00    +0.159 HD
ATOM      9  H   UNL     1       4.132   9.376  -2.196  0.00  0.00    +0.159 HD
ENDROOT
BRANCH   1  10
ATOM     10  C   UNL     1       5.345   5.996  -3.675  0.00  0.00    +0.151 C 
BRANCH  10  11
ATOM     11  C   UNL     1       5.412   4.591  -3.142  0.00  0.00    -0.028 A 
ATOM     12  C   UNL     1       5.709   4.356  -1.791  0.00  0.00    +0.005 A 
ATOM     13  C   UNL     1       5.173   3.492  -3.980  0.00  0.00    +0.005 A 
ATOM     14  C   UNL     1       5.741   3.053  -1.289  0.00  0.00    +0.000 A 
ATOM     15  C   UNL     1       5.207   2.192  -3.475  0.00  0.00    +0.000 A 
ATOM     16  C   UNL     1       5.488   1.973  -2.129  0.00  0.00    +0.000 A 
ENDBRANCH  10  11
ENDBRANCH   1  10
TORSDOF 2
ENDMDL
