MODEL 1
REMARK VINA RESULT:    -5.112      0.000      0.000
REMARK INTER + INTRA:          -5.814
REMARK INTER:                  -5.710
REMARK INTRA:                  -0.104
REMARK UNBOUND:                -0.104
REMARK  Name = 1550473
REMARK  2 active torsions:
REMARK  status: ('A' for Active; 'I' for Inactive)
REMARK    1  A    between atoms: N_1  and  C_4
REMARK    2  A    between atoms: C_4  and  C_5
REMARK                            x       y       z     vdW  Elec       q    Type
REMARK                         _______ _______ _______ _____ _____    ______ ____
ROOT
ATOM      1  N   UNL     1      -2.740  10.925  -5.463  0.00  0.00    -0.354 N 
ATOM      2  N   UNL     1      -4.699  10.812  -6.693  0.00  0.00    -0.372 N 
ATOM      3  N   UNL     1      -4.117  12.805  -5.716  0.00  0.00    -0.372 N 
ATOM      4  C   UNL     1      -3.840  11.517  -5.948  0.00  0.00    +0.166 C 
ATOM      5  H   UNL     1      -2.603   9.938  -5.650  0.00  0.00    +0.163 HD
ATOM      6  H   UNL     1      -5.536  11.233  -7.076  0.00  0.00    +0.159 HD
ATOM      7  H   UNL     1      -4.536   9.838  -6.917  0.00  0.00    +0.159 HD
ATOM      8  H   UNL     1      -3.511  13.390  -5.156  0.00  0.00    +0.159 HD
ATOM      9  H   UNL     1      -4.955  13.241  -6.080  0.00  0.00    +0.159 HD
ENDROOT
BRANCH   1  10
ATOM     10  C   UNL     1      -1.714  11.618  -4.686  0.00  0.00    +0.151 C 
BRANCH  10  11
ATOM     11  C   UNL     1      -0.537  10.700  -4.498  0.00  0.00    -0.028 A 
ATOM     12  C   UNL     1      -0.095  10.365  -3.210  0.00  0.00    +0.005 A 
ATOM     13  C   UNL     1       0.135  10.157  -5.603  0.00  0.00    +0.005 A 
ATOM     14  C   UNL     1       0.979   9.488  -3.034  0.00  0.00    +0.000 A 
ATOM     15  C   UNL     1       1.207   9.283  -5.424  0.00  0.00    +0.000 A 
ATOM     16  C   UNL     1       1.627   8.947  -4.139  0.00  0.00    +0.000 A 
ENDBRANCH  10  11
ENDBRANCH   1  10
TORSDOF 2
ENDMDL
MODEL 2
REMARK VINA RESULT:    -5.106     25.395     27.127
REMARK INTER + INTRA:          -5.806
REMARK INTER:                  -5.691
REMARK INTRA:                  -0.115
REMARK UNBOUND:                -0.104
REMARK  Name = 1550473
REMARK  2 active torsions:
REMARK  status: ('A' for Active; 'I' for Inactive)
REMARK    1  A    between atoms: N_1  and  C_4
REMARK    2  A    between atoms: C_4  and  C_5
REMARK                            x       y       z     vdW  Elec       q    Type
REMARK                         _______ _______ _______ _____ _____    ______ ____
ROOT
ATOM      1  N   UNL     1       8.054  -2.481  14.879  0.00  0.00    -0.354 N 
ATOM      2  N   UNL     1       7.250  -1.749  12.835  0.00  0.00    -0.372 N 
ATOM      3  N   UNL     1       5.754  -2.227  14.508  0.00  0.00    -0.372 N 
ATOM      4  C   UNL     1       7.022  -2.158  14.089  0.00  0.00    +0.166 C 
ATOM      5  H   UNL     1       8.990  -2.436  14.492  0.00  0.00    +0.163 HD
ATOM      6  H   UNL     1       6.491  -1.495  12.216  0.00  0.00    +0.159 HD
ATOM      7  H   UNL     1       8.188  -1.661  12.465  0.00  0.00    +0.159 HD
ATOM      8  H   UNL     1       5.515  -2.533  15.442  0.00  0.00    +0.159 HD
ATOM      9  H   UNL     1       4.981  -1.988  13.900  0.00  0.00    +0.159 HD
ENDROOT
BRANCH   1  10
ATOM     10  C   UNL     1       7.918  -2.885  16.278  0.00  0.00    +0.151 C 
BRANCH  10  11
ATOM     11  C   UNL     1       8.817  -4.062  16.538  0.00  0.00    -0.028 A 
ATOM     12  C   UNL     1       8.293  -5.258  17.053  0.00  0.00    +0.005 A 
ATOM     13  C   UNL     1      10.192  -3.991  16.268  0.00  0.00    +0.005 A 
ATOM     14  C   UNL     1       9.123  -6.361  17.267  0.00  0.00    +0.000 A 
ATOM     15  C   UNL     1      11.017  -5.095  16.483  0.00  0.00    +0.000 A 
ATOM     16  C   UNL     1      10.481  -6.280  16.981  0.00  0.00    +0.000 A 
ENDBRANCH  10  11
ENDBRANCH   1  10
TORSDOF 2
ENDMDL
MODEL 3
REMARK VINA RESULT:    -4.942      9.488     10.263
REMARK INTER + INTRA:          -5.624
REMARK INTER:                  -5.477
REMARK INTRA:                  -0.147
REMARK UNBOUND:                -0.104
REMARK  Name = 1550473
REMARK  2 active torsions:
REMARK  status: ('A' for Active; 'I' for Inactive)
REMARK    1  A    between atoms: N_1  and  C_4
REMARK    2  A    between atoms: C_4  and  C_5
REMARK                            x       y       z     vdW  Elec       q    Type
REMARK                         _______ _______ _______ _____ _____    ______ ____
ROOT
ATOM      1  N   UNL     1       2.455  19.476  -4.998  0.00  0.00    -0.354 N 
ATOM      2  N   UNL     1       4.076  19.402  -6.651  0.00  0.00    -0.372 N 
ATOM      3  N   UNL     1       3.650  21.399  -5.604  0.00  0.00    -0.372 N 
ATOM      4  C   UNL     1       3.383  20.096  -5.740  0.00  0.00    +0.166 C 
ATOM      5  H   UNL     1       2.279  18.493  -5.171  0.00  0.00    +0.163 HD
ATOM      6  H   UNL     1       4.785  19.842  -7.223  0.00  0.00    +0.159 HD
ATOM      7  H   UNL     1       3.930  18.410  -6.789  0.00  0.00    +0.159 HD
ATOM      8  H   UNL     1       3.158  21.980  -4.938  0.00  0.00    +0.159 HD
ATOM      9  H   UNL     1       4.348  21.860  -6.175  0.00  0.00    +0.159 HD
ENDROOT
BRANCH   1  10
ATOM     10  C   UNL     1       1.684  20.128  -3.942  0.00  0.00    +0.151 C 
BRANCH  10  11
ATOM     11  C   UNL     1       1.977  19.452  -2.631  0.00  0.00    -0.028 A 
ATOM     12  C   UNL     1       1.563  20.032  -1.423  0.00  0.00    +0.005 A 
ATOM     13  C   UNL     1       2.663  18.229  -2.590  0.00  0.00    +0.005 A 
ATOM     14  C   UNL     1       1.809  19.390  -0.207  0.00  0.00    +0.000 A 
ATOM     15  C   UNL     1       2.907  17.591  -1.374  0.00  0.00    +0.000 A 
ATOM     16  C   UNL     1       2.478  18.171  -0.183  0.00  0.00    +0.000 A 
ENDBRANCH  10  11
ENDBRANCH   1  10
TORSDOF 2
ENDMDL
MODEL 4
REMARK VINA RESULT:    -4.816     12.745     14.252
REMARK INTER + INTRA:          -5.483
REMARK INTER:                  -5.376
REMARK INTRA:                  -0.106
REMARK UNBOUND:                -0.104
REMARK  Name = 1550473
REMARK  2 active torsions:
REMARK  status: ('A' for Active; 'I' for Inactive)
REMARK    1  A    between atoms: N_1  and  C_4
REMARK    2  A    between atoms: C_4  and  C_5
REMARK                            x       y       z     vdW  Elec       q    Type
REMARK                         _______ _______ _______ _____ _____    ______ ____
ROOT
ATOM      1  N   UNL     1       5.780   4.899 -13.749  0.00  0.00    -0.354 N 
ATOM      2  N   UNL     1       4.308   6.512 -12.977  0.00  0.00    -0.372 N 
ATOM      3  N   UNL     1       3.521   4.395 -13.384  0.00  0.00    -0.372 N 
ATOM      4  C   UNL     1       4.544   5.256 -13.376  0.00  0.00    +0.166 C 
ATOM      5  H   UNL     1       6.506   5.607 -13.750  0.00  0.00    +0.163 HD
ATOM      6  H   UNL     1       3.386   6.809 -12.686  0.00  0.00    +0.159 HD
ATOM      7  H   UNL     1       5.045   7.205 -12.935  0.00  0.00    +0.159 HD
ATOM      8  H   UNL     1       3.631   3.435 -13.679  0.00  0.00    +0.159 HD
ATOM      9  H   UNL     1       2.588   4.677 -13.107  0.00  0.00    +0.159 HD
ENDROOT
BRANCH   1  10
ATOM     10  C   UNL     1       6.154   3.544 -14.149  0.00  0.00    +0.151 C 
BRANCH  10  11
ATOM     11  C   UNL     1       7.605   3.531 -14.544  0.00  0.00    -0.028 A 
ATOM     12  C   UNL     1       8.471   2.548 -14.041  0.00  0.00    +0.005 A 
ATOM     13  C   UNL     1       8.119   4.495 -15.424  0.00  0.00    +0.005 A 
ATOM     14  C   UNL     1       9.812   2.518 -14.431  0.00  0.00    +0.000 A 
ATOM     15  C   UNL     1       9.459   4.461 -15.811  0.00  0.00    +0.000 A 
ATOM     16  C   UNL     1      10.304   3.471 -15.316  0.00  0.00    +0.000 A 
ENDBRANCH  10  11
ENDBRANCH   1  10
TORSDOF 2
ENDMDL
MODEL 5
REMARK VINA RESULT:    -4.687      5.090      6.660
REMARK INTER + INTRA:          -5.339
REMARK INTER:                  -5.213
REMARK INTRA:                  -0.126
REMARK UNBOUND:                -0.104
REMARK  Name = 1550473
REMARK  2 active torsions:
REMARK  status: ('A' for Active; 'I' for Inactive)
REMARK    1  A    between atoms: N_1  and  C_4
REMARK    2  A    between atoms: C_4  and  C_5
REMARK                            x       y       z     vdW  Elec       q    Type
REMARK                         _______ _______ _______ _____ _____    ______ ____
ROOT
ATOM      1  N   UNL     1       2.759   6.073  -2.852  0.00  0.00    -0.354 N 
ATOM      2  N   UNL     1       2.321   4.146  -1.642  0.00  0.00    -0.372 N 
ATOM      3  N   UNL     1       3.540   5.822  -0.656  0.00  0.00    -0.372 N 
ATOM      4  C   UNL     1       2.878   5.361  -1.723  0.00  0.00    +0.166 C 
ATOM      5  H   UNL     1       2.270   5.654  -3.635  0.00  0.00    +0.163 HD
ATOM      6  H   UNL     1       2.391   3.588  -0.802  0.00  0.00    +0.159 HD
ATOM      7  H   UNL     1       1.794   3.750  -2.411  0.00  0.00    +0.159 HD
ATOM      8  H   UNL     1       3.988   6.729  -0.655  0.00  0.00    +0.159 HD
ATOM      9  H   UNL     1       3.631   5.273   0.189  0.00  0.00    +0.159 HD
ENDROOT
BRANCH   1  10
ATOM     10  C   UNL     1       3.282   7.427  -3.023  0.00  0.00    +0.151 C 
BRANCH  10  11
ATOM     11  C   UNL     1       2.188   8.312  -3.554  0.00  0.00    -0.028 A 
ATOM     12  C   UNL     1       1.386   9.056  -2.676  0.00  0.00    +0.005 A 
ATOM     13  C   UNL     1       1.953   8.416  -4.933  0.00  0.00    +0.005 A 
ATOM     14  C   UNL     1       0.389   9.901  -3.169  0.00  0.00    +0.000 A 
ATOM     15  C   UNL     1       0.956   9.261  -5.422  0.00  0.00    +0.000 A 
ATOM     16  C   UNL     1       0.176  10.005  -4.540  0.00  0.00    +0.000 A 
ENDBRANCH  10  11
ENDBRANCH   1  10
TORSDOF 2
ENDMDL
MODEL 6
REMARK VINA RESULT:    -4.604      9.095     10.720
REMARK INTER + INTRA:          -5.246
REMARK INTER:                  -5.089
REMARK INTRA:                  -0.157
REMARK UNBOUND:                -0.104
REMARK  Name = 1550473
REMARK  2 active torsions:
REMARK  status: ('A' for Active; 'I' for Inactive)
REMARK    1  A    between atoms: N_1  and  C_4
REMARK    2  A    between atoms: C_4  and  C_5
REMARK                            x       y       z     vdW  Elec       q    Type
REMARK                         _______ _______ _______ _____ _____    ______ ____
ROOT
ATOM      1  N   UNL     1       1.865   4.529   0.279  0.00  0.00    -0.354 N 
ATOM      2  N   UNL     1       3.742   5.753  -0.306  0.00  0.00    -0.372 N 
ATOM      3  N   UNL     1       2.871   4.266  -1.821  0.00  0.00    -0.372 N 
ATOM      4  C   UNL     1       2.813   4.840  -0.615  0.00  0.00    +0.166 C 
ATOM      5  H   UNL     1       1.894   4.977   1.188  0.00  0.00    +0.163 HD
ATOM      6  H   UNL     1       4.467   6.011  -0.962  0.00  0.00    +0.159 HD
ATOM      7  H   UNL     1       3.741   6.234   0.585  0.00  0.00    +0.159 HD
ATOM      8  H   UNL     1       2.204   3.565  -2.113  0.00  0.00    +0.159 HD
ATOM      9  H   UNL     1       3.597   4.502  -2.486  0.00  0.00    +0.159 HD
ENDROOT
BRANCH   1  10
ATOM     10  C   UNL     1       0.777   3.586   0.023  0.00  0.00    +0.151 C 
BRANCH  10  11
ATOM     11  C   UNL     1       0.996   2.347   0.846  0.00  0.00    -0.028 A 
ATOM     12  C   UNL     1       0.498   1.109   0.416  0.00  0.00    +0.005 A 
ATOM     13  C   UNL     1       1.706   2.404   2.056  0.00  0.00    +0.005 A 
ATOM     14  C   UNL     1       0.726  -0.047   1.166  0.00  0.00    +0.000 A 
ATOM     15  C   UNL     1       1.931   1.248   2.802  0.00  0.00    +0.000 A 
ATOM     16  C   UNL     1       1.443   0.022   2.356  0.00  0.00    +0.000 A 
ENDBRANCH  10  11
ENDBRANCH   1  10
TORSDOF 2
ENDMDL
MODEL 7
REMARK VINA RESULT:    -4.576     10.216     11.167
REMARK INTER + INTRA:          -5.215
REMARK INTER:                  -5.077
REMARK INTRA:                  -0.138
REMARK UNBOUND:                -0.104
REMARK  Name = 1550473
REMARK  2 active torsions:
REMARK  status: ('A' for Active; 'I' for Inactive)
REMARK    1  A    between atoms: N_1  and  C_4
REMARK    2  A    between atoms: C_4  and  C_5
REMARK                            x       y       z     vdW  Elec       q    Type
REMARK                         _______ _______ _______ _____ _____    ______ ____
ROOT
ATOM      1  N   UNL     1       2.320  20.263  -5.127  0.00  0.00    -0.354 N 
ATOM      2  N   UNL     1       2.995  21.173  -7.147  0.00  0.00    -0.372 N 
ATOM      3  N   UNL     1       4.099  19.332  -6.336  0.00  0.00    -0.372 N 
ATOM      4  C   UNL     1       3.136  20.248  -6.190  0.00  0.00    +0.166 C 
ATOM      5  H   UNL     1       1.629  21.002  -5.061  0.00  0.00    +0.163 HD
ATOM      6  H   UNL     1       3.594  21.185  -7.962  0.00  0.00    +0.159 HD
ATOM      7  H   UNL     1       2.274  21.883  -7.101  0.00  0.00    +0.159 HD
ATOM      8  H   UNL     1       4.261  18.611  -5.646  0.00  0.00    +0.159 HD
ATOM      9  H   UNL     1       4.716  19.335  -7.139  0.00  0.00    +0.159 HD
ENDROOT
BRANCH   1  10
ATOM     10  C   UNL     1       2.354  19.269  -4.056  0.00  0.00    +0.151 C 
BRANCH  10  11
ATOM     11  C   UNL     1       2.169  19.963  -2.735  0.00  0.00    -0.028 A 
ATOM     12  C   UNL     1       1.990  19.220  -1.559  0.00  0.00    +0.005 A 
ATOM     13  C   UNL     1       2.177  21.364  -2.652  0.00  0.00    +0.005 A 
ATOM     14  C   UNL     1       1.848  19.864  -0.328  0.00  0.00    +0.000 A 
ATOM     15  C   UNL     1       2.034  22.003  -1.421  0.00  0.00    +0.000 A 
ATOM     16  C   UNL     1       1.872  21.253  -0.259  0.00  0.00    +0.000 A 
ENDBRANCH  10  11
ENDBRANCH   1  10
TORSDOF 2
ENDMDL
MODEL 8
REMARK VINA RESULT:    -4.294     13.746     15.275
REMARK INTER + INTRA:          -4.900
REMARK INTER:                  -4.745
REMARK INTRA:                  -0.155
REMARK UNBOUND:                -0.104
REMARK  Name = 1550473
REMARK  2 active torsions:
REMARK  status: ('A' for Active; 'I' for Inactive)
REMARK    1  A    between atoms: N_1  and  C_4
REMARK    2  A    between atoms: C_4  and  C_5
REMARK                            x       y       z     vdW  Elec       q    Type
REMARK                         _______ _______ _______ _____ _____    ______ ____
ROOT
ATOM      1  N   UNL     1       7.810   6.565 -15.776  0.00  0.00    -0.354 N 
ATOM      2  N   UNL     1       8.402   8.769 -15.380  0.00  0.00    -0.372 N 
ATOM      3  N   UNL     1       7.092   7.679 -13.844  0.00  0.00    -0.372 N 
ATOM      4  C   UNL     1       7.762   7.656 -15.001  0.00  0.00    +0.166 C 
ATOM      5  H   UNL     1       8.311   6.622 -16.656  0.00  0.00    +0.163 HD
ATOM      6  H   UNL     1       8.386   9.606 -14.814  0.00  0.00    +0.159 HD
ATOM      7  H   UNL     1       8.939   8.808 -16.238  0.00  0.00    +0.159 HD
ATOM      8  H   UNL     1       6.583   6.873 -13.504  0.00  0.00    +0.159 HD
ATOM      9  H   UNL     1       7.055   8.511 -13.269  0.00  0.00    +0.159 HD
ENDROOT
BRANCH   1  10
ATOM     10  C   UNL     1       7.193   5.286 -15.428  0.00  0.00    +0.151 C 
BRANCH  10  11
ATOM     11  C   UNL     1       8.274   4.283 -15.135  0.00  0.00    -0.028 A 
ATOM     12  C   UNL     1       9.507   4.349 -15.801  0.00  0.00    +0.005 A 
ATOM     13  C   UNL     1       8.075   3.268 -14.186  0.00  0.00    +0.005 A 
ATOM     14  C   UNL     1      10.522   3.435 -15.507  0.00  0.00    +0.000 A 
ATOM     15  C   UNL     1       9.091   2.357 -13.896  0.00  0.00    +0.000 A 
ATOM     16  C   UNL     1      10.315   2.443 -14.555  0.00  0.00    +0.000 A 
ENDBRANCH  10  11
ENDBRANCH   1  10
TORSDOF 2
ENDMDL
MODEL 9
REMARK VINA RESULT:    -4.227      3.497      6.909
REMARK INTER + INTRA:          -4.825
REMARK INTER:                  -4.675
REMARK INTRA:                  -0.150
REMARK UNBOUND:                -0.104
REMARK  Name = 1550473
REMARK  2 active torsions:
REMARK  status: ('A' for Active; 'I' for Inactive)
REMARK    1  A    between atoms: N_1  and  C_4
REMARK    2  A    between atoms: C_4  and  C_5
REMARK                            x       y       z     vdW  Elec       q    Type
REMARK                         _______ _______ _______ _____ _____    ______ ____
ROOT
ATOM      1  N   UNL     1      -4.207  12.358  -5.391  0.00  0.00    -0.354 N 
ATOM      2  N   UNL     1      -2.401  11.096  -4.680  0.00  0.00    -0.372 N 
ATOM      3  N   UNL     1      -3.605  10.382  -6.498  0.00  0.00    -0.372 N 
ATOM      4  C   UNL     1      -3.417  11.285  -5.530  0.00  0.00    +0.166 C 
ATOM      5  H   UNL     1      -4.031  12.989  -4.619  0.00  0.00    +0.163 HD
ATOM      6  H   UNL     1      -1.785  10.297  -4.762  0.00  0.00    +0.159 HD
ATOM      7  H   UNL     1      -2.198  11.753  -3.936  0.00  0.00    +0.159 HD
ATOM      8  H   UNL     1      -4.358  10.464  -7.168  0.00  0.00    +0.159 HD
ATOM      9  H   UNL     1      -3.007   9.570  -6.589  0.00  0.00    +0.159 HD
ENDROOT
BRANCH   1  10
ATOM     10  C   UNL     1      -5.308  12.685  -6.296  0.00  0.00    +0.151 C 
BRANCH  10  11
ATOM     11  C   UNL     1      -6.606  12.603  -5.540  0.00  0.00    -0.028 A 
ATOM     12  C   UNL     1      -6.614  12.608  -4.138  0.00  0.00    +0.005 A 
ATOM     13  C   UNL     1      -7.831  12.527  -6.221  0.00  0.00    +0.005 A 
ATOM     14  C   UNL     1      -7.821  12.562  -3.435  0.00  0.00    +0.000 A 
ATOM     15  C   UNL     1      -9.033  12.481  -5.516  0.00  0.00    +0.000 A 
ATOM     16  C   UNL     1      -9.028  12.501  -4.124  0.00  0.00    +0.000 A 
ENDBRANCH  10  11
ENDBRANCH   1  10
TORSDOF 2
ENDMDL
