MODEL 1
REMARK VINA RESULT:    -5.623      0.000      0.000
REMARK INTER + INTRA:          -6.446
REMARK INTER:                  -6.280
REMARK INTRA:                  -0.166
REMARK UNBOUND:                -0.166
REMARK  Name = 1550473
REMARK  2 active torsions:
REMARK  status: ('A' for Active; 'I' for Inactive)
REMARK    1  A    between atoms: N_1  and  C_4
REMARK    2  A    between atoms: C_4  and  C_5
REMARK                            x       y       z     vdW  Elec       q    Type
REMARK                         _______ _______ _______ _____ _____    ______ ____
ROOT
ATOM      1  N   UNL     1       1.043  10.220   7.323  0.00  0.00    -0.354 N 
ATOM      2  N   UNL     1      -0.477  11.908   6.871  0.00  0.00    -0.372 N 
ATOM      3  N   UNL     1      -1.232   9.746   7.021  0.00  0.00    -0.372 N 
ATOM      4  C   UNL     1      -0.214  10.611   7.075  0.00  0.00    +0.166 C 
ATOM      5  H   UNL     1       1.775  10.921   7.321  0.00  0.00    +0.163 HD
ATOM      6  H   UNL     1      -1.416  12.233   6.685  0.00  0.00    +0.159 HD
ATOM      7  H   UNL     1       0.249  12.612   6.915  0.00  0.00    +0.159 HD
ATOM      8  H   UNL     1      -1.099   8.753   7.159  0.00  0.00    +0.159 HD
ATOM      9  H   UNL     1      -2.177  10.051   6.824  0.00  0.00    +0.159 HD
ENDROOT
BRANCH   1  10
ATOM     10  C   UNL     1       1.427   8.839   7.612  0.00  0.00    +0.151 C 
BRANCH  10  11
ATOM     11  C   UNL     1       1.370   8.613   9.097  0.00  0.00    -0.028 A 
ATOM     12  C   UNL     1       0.486   7.669   9.640  0.00  0.00    +0.005 A 
ATOM     13  C   UNL     1       2.201   9.336   9.967  0.00  0.00    +0.005 A 
ATOM     14  C   UNL     1       0.453   7.438  11.017  0.00  0.00    +0.000 A 
ATOM     15  C   UNL     1       2.165   9.102  11.342  0.00  0.00    +0.000 A 
ATOM     16  C   UNL     1       1.292   8.151  11.866  0.00  0.00    +0.000 A 
ENDBRANCH  10  11
ENDBRANCH   1  10
TORSDOF 2
ENDMDL
MODEL 2
REMARK VINA RESULT:    -5.475     24.619     25.954
REMARK INTER + INTRA:          -6.282
REMARK INTER:                  -6.108
REMARK INTRA:                  -0.174
REMARK UNBOUND:                -0.166
REMARK  Name = 1550473
REMARK  2 active torsions:
REMARK  status: ('A' for Active; 'I' for Inactive)
REMARK    1  A    between atoms: N_1  and  C_4
REMARK    2  A    between atoms: C_4  and  C_5
REMARK                            x       y       z     vdW  Elec       q    Type
REMARK                         _______ _______ _______ _____ _____    ______ ____
ROOT
ATOM      1  N   UNL     1     -19.026  -2.263  -1.281  0.00  0.00    -0.354 N 
ATOM      2  N   UNL     1     -17.778  -1.099   0.286  0.00  0.00    -0.372 N 
ATOM      3  N   UNL     1     -18.034  -3.366   0.533  0.00  0.00    -0.372 N 
ATOM      4  C   UNL     1     -18.287  -2.253  -0.163  0.00  0.00    +0.166 C 
ATOM      5  H   UNL     1     -19.207  -1.380  -1.746  0.00  0.00    +0.163 HD
ATOM      6  H   UNL     1     -17.214  -1.061   1.124  0.00  0.00    +0.159 HD
ATOM      7  H   UNL     1     -17.922  -0.226  -0.206  0.00  0.00    +0.159 HD
ATOM      8  H   UNL     1     -18.394  -4.268   0.251  0.00  0.00    +0.159 HD
ATOM      9  H   UNL     1     -17.481  -3.347   1.381  0.00  0.00    +0.159 HD
ENDROOT
BRANCH   1  10
ATOM     10  C   UNL     1     -19.581  -3.473  -1.883  0.00  0.00    +0.151 C 
BRANCH  10  11
ATOM     11  C   UNL     1     -18.797  -3.810  -3.121  0.00  0.00    -0.028 A 
ATOM     12  C   UNL     1     -17.885  -4.876  -3.117  0.00  0.00    +0.005 A 
ATOM     13  C   UNL     1     -18.966  -3.072  -4.302  0.00  0.00    +0.005 A 
ATOM     14  C   UNL     1     -17.178  -5.208  -4.276  0.00  0.00    +0.000 A 
ATOM     15  C   UNL     1     -18.258  -3.407  -5.456  0.00  0.00    +0.000 A 
ATOM     16  C   UNL     1     -17.366  -4.476  -5.443  0.00  0.00    +0.000 A 
ENDBRANCH  10  11
ENDBRANCH   1  10
TORSDOF 2
ENDMDL
MODEL 3
REMARK VINA RESULT:    -5.371      1.099      2.149
REMARK INTER + INTRA:          -6.165
REMARK INTER:                  -6.058
REMARK INTRA:                  -0.106
REMARK UNBOUND:                -0.166
REMARK  Name = 1550473
REMARK  2 active torsions:
REMARK  status: ('A' for Active; 'I' for Inactive)
REMARK    1  A    between atoms: N_1  and  C_4
REMARK    2  A    between atoms: C_4  and  C_5
REMARK                            x       y       z     vdW  Elec       q    Type
REMARK                         _______ _______ _______ _____ _____    ______ ____
ROOT
ATOM      1  N   UNL     1      -0.601   8.766   8.477  0.00  0.00    -0.354 N 
ATOM      2  N   UNL     1      -0.759  10.508   6.959  0.00  0.00    -0.372 N 
ATOM      3  N   UNL     1       0.981   9.024   6.768  0.00  0.00    -0.372 N 
ATOM      4  C   UNL     1      -0.123   9.420   7.410  0.00  0.00    +0.166 C 
ATOM      5  H   UNL     1      -1.425   9.134   8.938  0.00  0.00    +0.163 HD
ATOM      6  H   UNL     1      -0.424  11.020   6.154  0.00  0.00    +0.159 HD
ATOM      7  H   UNL     1      -1.608  10.848   7.394  0.00  0.00    +0.159 HD
ATOM      8  H   UNL     1       1.511   8.215   7.062  0.00  0.00    +0.159 HD
ATOM      9  H   UNL     1       1.339   9.531   5.967  0.00  0.00    +0.159 HD
ENDROOT
BRANCH   1  10
ATOM     10  C   UNL     1      -0.014   7.540   9.015  0.00  0.00    +0.151 C 
BRANCH  10  11
ATOM     11  C   UNL     1       0.695   7.859  10.303  0.00  0.00    -0.028 A 
ATOM     12  C   UNL     1       1.774   8.756  10.318  0.00  0.00    +0.005 A 
ATOM     13  C   UNL     1       0.290   7.273  11.511  0.00  0.00    +0.005 A 
ATOM     14  C   UNL     1       2.413   9.076  11.518  0.00  0.00    +0.000 A 
ATOM     15  C   UNL     1       0.931   7.594  12.707  0.00  0.00    +0.000 A 
ATOM     16  C   UNL     1       1.991   8.497  12.711  0.00  0.00    +0.000 A 
ENDBRANCH  10  11
ENDBRANCH   1  10
TORSDOF 2
ENDMDL
MODEL 4
REMARK VINA RESULT:    -5.117      1.632      2.162
REMARK INTER + INTRA:          -5.882
REMARK INTER:                  -5.749
REMARK INTRA:                  -0.133
REMARK UNBOUND:                -0.166
REMARK  Name = 1550473
REMARK  2 active torsions:
REMARK  status: ('A' for Active; 'I' for Inactive)
REMARK    1  A    between atoms: N_1  and  C_4
REMARK    2  A    between atoms: C_4  and  C_5
REMARK                            x       y       z     vdW  Elec       q    Type
REMARK                         _______ _______ _______ _____ _____    ______ ____
ROOT
ATOM      1  N   UNL     1      -0.771  10.804   8.381  0.00  0.00    -0.354 N 
ATOM      2  N   UNL     1      -0.911  13.114   8.284  0.00  0.00    -0.372 N 
ATOM      3  N   UNL     1       0.958  12.079   7.446  0.00  0.00    -0.372 N 
ATOM      4  C   UNL     1      -0.237  11.983   8.037  0.00  0.00    +0.166 C 
ATOM      5  H   UNL     1      -1.667  10.801   8.854  0.00  0.00    +0.163 HD
ATOM      6  H   UNL     1      -0.536  14.018   8.032  0.00  0.00    +0.159 HD
ATOM      7  H   UNL     1      -1.828  13.104   8.714  0.00  0.00    +0.159 HD
ATOM      8  H   UNL     1       1.520  11.265   7.238  0.00  0.00    +0.159 HD
ATOM      9  H   UNL     1       1.356  12.977   7.197  0.00  0.00    +0.159 HD
ENDROOT
BRANCH   1  10
ATOM     10  C   UNL     1      -0.143   9.512   8.108  0.00  0.00    +0.151 C 
BRANCH  10  11
ATOM     11  C   UNL     1       0.035   8.769   9.404  0.00  0.00    -0.028 A 
ATOM     12  C   UNL     1      -0.160   9.420  10.631  0.00  0.00    +0.005 A 
ATOM     13  C   UNL     1       0.392   7.412   9.411  0.00  0.00    +0.005 A 
ATOM     14  C   UNL     1      -0.024   8.722  11.833  0.00  0.00    +0.000 A 
ATOM     15  C   UNL     1       0.527   6.719  10.614  0.00  0.00    +0.000 A 
ATOM     16  C   UNL     1       0.317   7.374  11.825  0.00  0.00    +0.000 A 
ENDBRANCH  10  11
ENDBRANCH   1  10
TORSDOF 2
ENDMDL
MODEL 5
REMARK VINA RESULT:    -4.998     23.242     24.286
REMARK INTER + INTRA:          -5.749
REMARK INTER:                  -5.597
REMARK INTRA:                  -0.152
REMARK UNBOUND:                -0.166
REMARK  Name = 1550473
REMARK  2 active torsions:
REMARK  status: ('A' for Active; 'I' for Inactive)
REMARK    1  A    between atoms: N_1  and  C_4
REMARK    2  A    between atoms: C_4  and  C_5
REMARK                            x       y       z     vdW  Elec       q    Type
REMARK                         _______ _______ _______ _____ _____    ______ ____
ROOT
ATOM      1  N   UNL     1      -5.023  -5.217  -9.210  0.00  0.00    -0.354 N 
ATOM      2  N   UNL     1      -3.836  -4.489 -11.061  0.00  0.00    -0.372 N 
ATOM      3  N   UNL     1      -5.072  -6.415 -11.223  0.00  0.00    -0.372 N 
ATOM      4  C   UNL     1      -4.652  -5.381 -10.487  0.00  0.00    +0.166 C 
ATOM      5  H   UNL     1      -4.645  -4.428  -8.697  0.00  0.00    +0.163 HD
ATOM      6  H   UNL     1      -3.542  -4.585 -12.024  0.00  0.00    +0.159 HD
ATOM      7  H   UNL     1      -3.497  -3.677 -10.560  0.00  0.00    +0.159 HD
ATOM      8  H   UNL     1      -5.685  -7.126 -10.847  0.00  0.00    +0.159 HD
ATOM      9  H   UNL     1      -4.780  -6.535 -12.185  0.00  0.00    +0.159 HD
ENDROOT
BRANCH   1  10
ATOM     10  C   UNL     1      -5.951  -6.101  -8.508  0.00  0.00    +0.151 C 
BRANCH  10  11
ATOM     11  C   UNL     1      -7.203  -5.337  -8.177  0.00  0.00    -0.028 A 
ATOM     12  C   UNL     1      -8.421  -6.009  -7.998  0.00  0.00    +0.005 A 
ATOM     13  C   UNL     1      -7.177  -3.941  -8.036  0.00  0.00    +0.005 A 
ATOM     14  C   UNL     1      -9.578  -5.302  -7.662  0.00  0.00    +0.000 A 
ATOM     15  C   UNL     1      -8.334  -3.239  -7.701  0.00  0.00    +0.000 A 
ATOM     16  C   UNL     1      -9.534  -3.920  -7.511  0.00  0.00    +0.000 A 
ENDBRANCH  10  11
ENDBRANCH   1  10
TORSDOF 2
ENDMDL
MODEL 6
REMARK VINA RESULT:    -4.932      2.619      3.409
REMARK INTER + INTRA:          -5.675
REMARK INTER:                  -5.550
REMARK INTRA:                  -0.126
REMARK UNBOUND:                -0.166
REMARK  Name = 1550473
REMARK  2 active torsions:
REMARK  status: ('A' for Active; 'I' for Inactive)
REMARK    1  A    between atoms: N_1  and  C_4
REMARK    2  A    between atoms: C_4  and  C_5
REMARK                            x       y       z     vdW  Elec       q    Type
REMARK                         _______ _______ _______ _____ _____    ______ ____
ROOT
ATOM      1  N   UNL     1      -1.005  11.973   9.321  0.00  0.00    -0.354 N 
ATOM      2  N   UNL     1      -1.882  13.895   8.371  0.00  0.00    -0.372 N 
ATOM      3  N   UNL     1      -1.980  13.639  10.650  0.00  0.00    -0.372 N 
ATOM      4  C   UNL     1      -1.617  13.157   9.456  0.00  0.00    +0.166 C 
ATOM      5  H   UNL     1      -0.783  11.650   8.386  0.00  0.00    +0.163 HD
ATOM      6  H   UNL     1      -2.340  14.794   8.443  0.00  0.00    +0.159 HD
ATOM      7  H   UNL     1      -1.618  13.590   7.442  0.00  0.00    +0.159 HD
ATOM      8  H   UNL     1      -1.814  13.128  11.506  0.00  0.00    +0.159 HD
ATOM      9  H   UNL     1      -2.449  14.531  10.740  0.00  0.00    +0.159 HD
ENDROOT
BRANCH   1  10
ATOM     10  C   UNL     1      -0.624  11.116  10.442  0.00  0.00    +0.151 C 
BRANCH  10  11
ATOM     11  C   UNL     1      -0.378   9.722   9.935  0.00  0.00    -0.028 A 
ATOM     12  C   UNL     1       0.251   8.769  10.749  0.00  0.00    +0.005 A 
ATOM     13  C   UNL     1      -0.776   9.347   8.642  0.00  0.00    +0.005 A 
ATOM     14  C   UNL     1       0.452   7.465  10.289  0.00  0.00    +0.000 A 
ATOM     15  C   UNL     1      -0.572   8.045   8.186  0.00  0.00    +0.000 A 
ATOM     16  C   UNL     1       0.040   7.104   9.010  0.00  0.00    +0.000 A 
ENDBRANCH  10  11
ENDBRANCH   1  10
TORSDOF 2
ENDMDL
MODEL 7
REMARK VINA RESULT:    -4.737      2.825      4.061
REMARK INTER + INTRA:          -5.457
REMARK INTER:                  -5.318
REMARK INTRA:                  -0.138
REMARK UNBOUND:                -0.166
REMARK  Name = 1550473
REMARK  2 active torsions:
REMARK  status: ('A' for Active; 'I' for Inactive)
REMARK    1  A    between atoms: N_1  and  C_4
REMARK    2  A    between atoms: C_4  and  C_5
REMARK                            x       y       z     vdW  Elec       q    Type
REMARK                         _______ _______ _______ _____ _____    ______ ____
ROOT
ATOM      1  N   UNL     1       3.734  10.787   9.856  0.00  0.00    -0.354 N 
ATOM      2  N   UNL     1       4.730  12.764   9.173  0.00  0.00    -0.372 N 
ATOM      3  N   UNL     1       3.747  12.675  11.245  0.00  0.00    -0.372 N 
ATOM      4  C   UNL     1       4.063  12.063  10.098  0.00  0.00    +0.166 C 
ATOM      5  H   UNL     1       3.976  10.391   8.955  0.00  0.00    +0.163 HD
ATOM      6  H   UNL     1       4.994  13.728   9.330  0.00  0.00    +0.159 HD
ATOM      7  H   UNL     1       5.010  12.352   8.292  0.00  0.00    +0.159 HD
ATOM      8  H   UNL     1       3.239  12.203  11.981  0.00  0.00    +0.159 HD
ATOM      9  H   UNL     1       3.993  13.642  11.415  0.00  0.00    +0.159 HD
ENDROOT
BRANCH   1  10
ATOM     10  C   UNL     1       3.056   9.921  10.818  0.00  0.00    +0.151 C 
BRANCH  10  11
ATOM     11  C   UNL     1       2.026   9.096  10.095  0.00  0.00    -0.028 A 
ATOM     12  C   UNL     1       1.817   9.265   8.719  0.00  0.00    +0.005 A 
ATOM     13  C   UNL     1       1.261   8.140  10.781  0.00  0.00    +0.005 A 
ATOM     14  C   UNL     1       0.883   8.478   8.041  0.00  0.00    +0.000 A 
ATOM     15  C   UNL     1       0.328   7.357  10.101  0.00  0.00    +0.000 A 
ATOM     16  C   UNL     1       0.141   7.525   8.731  0.00  0.00    +0.000 A 
ENDBRANCH  10  11
ENDBRANCH   1  10
TORSDOF 2
ENDMDL
MODEL 8
REMARK VINA RESULT:    -4.721      2.492      3.582
REMARK INTER + INTRA:          -5.439
REMARK INTER:                  -5.258
REMARK INTRA:                  -0.181
REMARK UNBOUND:                -0.166
REMARK  Name = 1550473
REMARK  2 active torsions:
REMARK  status: ('A' for Active; 'I' for Inactive)
REMARK    1  A    between atoms: N_1  and  C_4
REMARK    2  A    between atoms: C_4  and  C_5
REMARK                            x       y       z     vdW  Elec       q    Type
REMARK                         _______ _______ _______ _____ _____    ______ ____
ROOT
ATOM      1  N   UNL     1       2.171  11.205   9.450  0.00  0.00    -0.354 N 
ATOM      2  N   UNL     1       4.399  11.817   9.607  0.00  0.00    -0.372 N 
ATOM      3  N   UNL     1       3.026  12.158  11.413  0.00  0.00    -0.372 N 
ATOM      4  C   UNL     1       3.183  11.724  10.158  0.00  0.00    +0.166 C 
ATOM      5  H   UNL     1       2.349  10.922   8.493  0.00  0.00    +0.163 HD
ATOM      6  H   UNL     1       5.183  12.201  10.118  0.00  0.00    +0.159 HD
ATOM      7  H   UNL     1       4.584  11.491   8.666  0.00  0.00    +0.159 HD
ATOM      8  H   UNL     1       2.132  12.120  11.884  0.00  0.00    +0.159 HD
ATOM      9  H   UNL     1       3.795  12.556  11.937  0.00  0.00    +0.159 HD
ENDROOT
BRANCH   1  10
ATOM     10  C   UNL     1       0.821  11.009   9.975  0.00  0.00    +0.151 C 
BRANCH  10  11
ATOM     11  C   UNL     1       0.684   9.592  10.460  0.00  0.00    -0.028 A 
ATOM     12  C   UNL     1       0.631   9.312  11.833  0.00  0.00    +0.005 A 
ATOM     13  C   UNL     1       0.600   8.527   9.551  0.00  0.00    +0.005 A 
ATOM     14  C   UNL     1       0.473   7.999  12.284  0.00  0.00    +0.000 A 
ATOM     15  C   UNL     1       0.443   7.217  10.005  0.00  0.00    +0.000 A 
ATOM     16  C   UNL     1       0.377   6.954  11.371  0.00  0.00    +0.000 A 
ENDBRANCH  10  11
ENDBRANCH   1  10
TORSDOF 2
ENDMDL
MODEL 9
REMARK VINA RESULT:    -4.590     23.955     25.259
REMARK INTER + INTRA:          -5.293
REMARK INTER:                  -5.172
REMARK INTRA:                  -0.121
REMARK UNBOUND:                -0.166
REMARK  Name = 1550473
REMARK  2 active torsions:
REMARK  status: ('A' for Active; 'I' for Inactive)
REMARK    1  A    between atoms: N_1  and  C_4
REMARK    2  A    between atoms: C_4  and  C_5
REMARK                            x       y       z     vdW  Elec       q    Type
REMARK                         _______ _______ _______ _____ _____    ______ ____
ROOT
ATOM      1  N   UNL     1      -8.185  -8.106  -7.877  0.00  0.00    -0.354 N 
ATOM      2  N   UNL     1      -8.705 -10.341  -7.567  0.00  0.00    -0.372 N 
ATOM      3  N   UNL     1      -7.228  -9.765  -9.226  0.00  0.00    -0.372 N 
ATOM      4  C   UNL     1      -8.035  -9.390  -8.228  0.00  0.00    +0.166 C 
ATOM      5  H   UNL     1      -8.834  -7.883  -7.131  0.00  0.00    +0.163 HD
ATOM      6  H   UNL     1      -8.609 -11.319  -7.807  0.00  0.00    +0.159 HD
ATOM      7  H   UNL     1      -9.319 -10.120  -6.792  0.00  0.00    +0.159 HD
ATOM      8  H   UNL     1      -6.699  -9.096  -9.768  0.00  0.00    +0.159 HD
ATOM      9  H   UNL     1      -7.128 -10.738  -9.489  0.00  0.00    +0.159 HD
ENDROOT
BRANCH   1  10
ATOM     10  C   UNL     1      -7.460  -6.998  -8.497  0.00  0.00    +0.151 C 
BRANCH  10  11
ATOM     11  C   UNL     1      -8.113  -5.702  -8.104  0.00  0.00    -0.028 A 
ATOM     12  C   UNL     1      -7.370  -4.513  -8.065  0.00  0.00    +0.005 A 
ATOM     13  C   UNL     1      -9.476  -5.655  -7.775  0.00  0.00    +0.005 A 
ATOM     14  C   UNL     1      -7.983  -3.304  -7.729  0.00  0.00    +0.000 A 
ATOM     15  C   UNL     1     -10.085  -4.445  -7.439  0.00  0.00    +0.000 A 
ATOM     16  C   UNL     1      -9.338  -3.270  -7.419  0.00  0.00    +0.000 A 
ENDBRANCH  10  11
ENDBRANCH   1  10
TORSDOF 2
ENDMDL
