MODEL 1
REMARK VINA RESULT:    -5.981      0.000      0.000
REMARK INTER + INTRA:          -6.827
REMARK INTER:                  -6.680
REMARK INTRA:                  -0.146
REMARK UNBOUND:                -0.146
REMARK  Name = 1550473
REMARK  2 active torsions:
REMARK  status: ('A' for Active; 'I' for Inactive)
REMARK    1  A    between atoms: N_1  and  C_4
REMARK    2  A    between atoms: C_4  and  C_5
REMARK                            x       y       z     vdW  Elec       q    Type
REMARK                         _______ _______ _______ _____ _____    ______ ____
ROOT
ATOM      1  N   UNL     1       1.038  -4.821  -7.783  0.00  0.00    -0.354 N 
ATOM      2  N   UNL     1       0.703  -3.742  -9.805  0.00  0.00    -0.372 N 
ATOM      3  N   UNL     1       1.543  -5.877  -9.813  0.00  0.00    -0.372 N 
ATOM      4  C   UNL     1       1.098  -4.823  -9.121  0.00  0.00    +0.166 C 
ATOM      5  H   UNL     1       0.719  -3.979  -7.317  0.00  0.00    +0.163 HD
ATOM      6  H   UNL     1       0.734  -3.715 -10.815  0.00  0.00    +0.159 HD
ATOM      7  H   UNL     1       0.342  -2.919  -9.338  0.00  0.00    +0.159 HD
ATOM      8  H   UNL     1       1.862  -6.721  -9.357  0.00  0.00    +0.159 HD
ATOM      9  H   UNL     1       1.593  -5.865 -10.824  0.00  0.00    +0.159 HD
ENDROOT
BRANCH   1  10
ATOM     10  C   UNL     1       1.393  -5.966  -6.947  0.00  0.00    +0.151 C 
BRANCH  10  11
ATOM     11  C   UNL     1       2.566  -5.597  -6.081  0.00  0.00    -0.028 A 
ATOM     12  C   UNL     1       2.982  -4.262  -5.978  0.00  0.00    +0.005 A 
ATOM     13  C   UNL     1       3.262  -6.578  -5.358  0.00  0.00    +0.005 A 
ATOM     14  C   UNL     1       4.053  -3.915  -5.150  0.00  0.00    +0.000 A 
ATOM     15  C   UNL     1       4.331  -6.227  -4.533  0.00  0.00    +0.000 A 
ATOM     16  C   UNL     1       4.724  -4.896  -4.428  0.00  0.00    +0.000 A 
ENDBRANCH  10  11
ENDBRANCH   1  10
TORSDOF 2
ENDMDL
MODEL 2
REMARK VINA RESULT:    -5.784      1.701      2.613
REMARK INTER + INTRA:          -6.607
REMARK INTER:                  -6.491
REMARK INTRA:                  -0.116
REMARK UNBOUND:                -0.146
REMARK  Name = 1550473
REMARK  2 active torsions:
REMARK  status: ('A' for Active; 'I' for Inactive)
REMARK    1  A    between atoms: N_1  and  C_4
REMARK    2  A    between atoms: C_4  and  C_5
REMARK                            x       y       z     vdW  Elec       q    Type
REMARK                         _______ _______ _______ _____ _____    ______ ____
ROOT
ATOM      1  N   UNL     1       3.351  -4.005  -7.420  0.00  0.00    -0.354 N 
ATOM      2  N   UNL     1       2.530  -3.932  -9.584  0.00  0.00    -0.372 N 
ATOM      3  N   UNL     1       1.118  -4.546  -7.882  0.00  0.00    -0.372 N 
ATOM      4  C   UNL     1       2.336  -4.162  -8.280  0.00  0.00    +0.166 C 
ATOM      5  H   UNL     1       4.257  -3.741  -7.788  0.00  0.00    +0.163 HD
ATOM      6  H   UNL     1       1.782  -4.039 -10.256  0.00  0.00    +0.159 HD
ATOM      7  H   UNL     1       3.425  -3.624  -9.944  0.00  0.00    +0.159 HD
ATOM      8  H   UNL     1       0.908  -4.741  -6.913  0.00  0.00    +0.159 HD
ATOM      9  H   UNL     1       0.360  -4.670  -8.542  0.00  0.00    +0.159 HD
ENDROOT
BRANCH   1  10
ATOM     10  C   UNL     1       3.231  -4.178  -5.973  0.00  0.00    +0.151 C 
BRANCH  10  11
ATOM     11  C   UNL     1       4.545  -4.662  -5.426  0.00  0.00    -0.028 A 
ATOM     12  C   UNL     1       4.581  -5.602  -4.386  0.00  0.00    +0.005 A 
ATOM     13  C   UNL     1       5.759  -4.188  -5.947  0.00  0.00    +0.005 A 
ATOM     14  C   UNL     1       5.802  -6.074  -3.897  0.00  0.00    +0.000 A 
ATOM     15  C   UNL     1       6.976  -4.661  -5.456  0.00  0.00    +0.000 A 
ATOM     16  C   UNL     1       6.997  -5.606  -4.433  0.00  0.00    +0.000 A 
ENDBRANCH  10  11
ENDBRANCH   1  10
TORSDOF 2
ENDMDL
MODEL 3
REMARK VINA RESULT:    -5.611      1.162      2.112
REMARK INTER + INTRA:          -6.413
REMARK INTER:                  -6.236
REMARK INTRA:                  -0.177
REMARK UNBOUND:                -0.146
REMARK  Name = 1550473
REMARK  2 active torsions:
REMARK  status: ('A' for Active; 'I' for Inactive)
REMARK    1  A    between atoms: N_1  and  C_4
REMARK    2  A    between atoms: C_4  and  C_5
REMARK                            x       y       z     vdW  Elec       q    Type
REMARK                         _______ _______ _______ _____ _____    ______ ____
ROOT
ATOM      1  N   UNL     1       2.214  -6.407  -8.443  0.00  0.00    -0.354 N 
ATOM      2  N   UNL     1       3.269  -6.472 -10.504  0.00  0.00    -0.372 N 
ATOM      3  N   UNL     1       2.560  -4.449  -9.684  0.00  0.00    -0.372 N 
ATOM      4  C   UNL     1       2.673  -5.773  -9.530  0.00  0.00    +0.166 C 
ATOM      5  H   UNL     1       2.304  -7.415  -8.400  0.00  0.00    +0.163 HD
ATOM      6  H   UNL     1       3.628  -6.020 -11.334  0.00  0.00    +0.159 HD
ATOM      7  H   UNL     1       3.398  -7.474 -10.438  0.00  0.00    +0.159 HD
ATOM      8  H   UNL     1       2.115  -3.865  -8.988  0.00  0.00    +0.159 HD
ATOM      9  H   UNL     1       2.903  -3.981 -10.513  0.00  0.00    +0.159 HD
ENDROOT
BRANCH   1  10
ATOM     10  C   UNL     1       1.598  -5.732  -7.302  0.00  0.00    +0.151 C 
BRANCH  10  11
ATOM     11  C   UNL     1       2.651  -5.469  -6.260  0.00  0.00    -0.028 A 
ATOM     12  C   UNL     1       3.200  -6.527  -5.520  0.00  0.00    +0.005 A 
ATOM     13  C   UNL     1       3.108  -4.166  -6.013  0.00  0.00    +0.005 A 
ATOM     14  C   UNL     1       4.199  -6.287  -4.574  0.00  0.00    +0.000 A 
ATOM     15  C   UNL     1       4.105  -3.930  -5.066  0.00  0.00    +0.000 A 
ATOM     16  C   UNL     1       4.652  -4.991  -4.349  0.00  0.00    +0.000 A 
ENDBRANCH  10  11
ENDBRANCH   1  10
TORSDOF 2
ENDMDL
MODEL 4
REMARK VINA RESULT:    -5.236      2.178      3.128
REMARK INTER + INTRA:          -5.995
REMARK INTER:                  -5.856
REMARK INTRA:                  -0.139
REMARK UNBOUND:                -0.146
REMARK  Name = 1550473
REMARK  2 active torsions:
REMARK  status: ('A' for Active; 'I' for Inactive)
REMARK    1  A    between atoms: N_1  and  C_4
REMARK    2  A    between atoms: C_4  and  C_5
REMARK                            x       y       z     vdW  Elec       q    Type
REMARK                         _______ _______ _______ _____ _____    ______ ____
ROOT
ATOM      1  N   UNL     1       3.482  -7.197  -7.022  0.00  0.00    -0.354 N 
ATOM      2  N   UNL     1       3.492  -7.802  -9.258  0.00  0.00    -0.372 N 
ATOM      3  N   UNL     1       2.848  -5.675  -8.687  0.00  0.00    -0.372 N 
ATOM      4  C   UNL     1       3.273  -6.885  -8.308  0.00  0.00    +0.166 C 
ATOM      5  H   UNL     1       3.775  -8.141  -6.798  0.00  0.00    +0.163 HD
ATOM      6  H   UNL     1       3.346  -7.594 -10.236  0.00  0.00    +0.159 HD
ATOM      7  H   UNL     1       3.829  -8.730  -9.034  0.00  0.00    +0.159 HD
ATOM      8  H   UNL     1       2.658  -4.940  -8.018  0.00  0.00    +0.159 HD
ATOM      9  H   UNL     1       2.685  -5.451  -9.661  0.00  0.00    +0.159 HD
ENDROOT
BRANCH   1  10
ATOM     10  C   UNL     1       3.325  -6.255  -5.915  0.00  0.00    +0.151 C 
BRANCH  10  11
ATOM     11  C   UNL     1       4.684  -5.868  -5.403  0.00  0.00    -0.028 A 
ATOM     12  C   UNL     1       5.120  -6.299  -4.142  0.00  0.00    +0.005 A 
ATOM     13  C   UNL     1       5.545  -5.074  -6.177  0.00  0.00    +0.005 A 
ATOM     14  C   UNL     1       6.394  -5.965  -3.678  0.00  0.00    +0.000 A 
ATOM     15  C   UNL     1       6.816  -4.741  -5.710  0.00  0.00    +0.000 A 
ATOM     16  C   UNL     1       7.242  -5.189  -4.462  0.00  0.00    +0.000 A 
ENDBRANCH  10  11
ENDBRANCH   1  10
TORSDOF 2
ENDMDL
MODEL 5
REMARK VINA RESULT:    -5.209      2.824      3.634
REMARK INTER + INTRA:          -5.965
REMARK INTER:                  -5.873
REMARK INTRA:                  -0.092
REMARK UNBOUND:                -0.146
REMARK  Name = 1550473
REMARK  2 active torsions:
REMARK  status: ('A' for Active; 'I' for Inactive)
REMARK    1  A    between atoms: N_1  and  C_4
REMARK    2  A    between atoms: C_4  and  C_5
REMARK                            x       y       z     vdW  Elec       q    Type
REMARK                         _______ _______ _______ _____ _____    ______ ____
ROOT
ATOM      1  N   UNL     1       0.458  -6.796  -4.879  0.00  0.00    -0.354 N 
ATOM      2  N   UNL     1      -1.514  -7.369  -3.809  0.00  0.00    -0.372 N 
ATOM      3  N   UNL     1      -1.292  -7.830  -6.045  0.00  0.00    -0.372 N 
ATOM      4  C   UNL     1      -0.770  -7.329  -4.921  0.00  0.00    +0.166 C 
ATOM      5  H   UNL     1       0.784  -6.406  -4.002  0.00  0.00    +0.163 HD
ATOM      6  H   UNL     1      -2.443  -7.768  -3.809  0.00  0.00    +0.159 HD
ATOM      7  H   UNL     1      -1.168  -7.020  -2.923  0.00  0.00    +0.159 HD
ATOM      8  H   UNL     1      -0.785  -7.824  -6.920  0.00  0.00    +0.159 HD
ATOM      9  H   UNL     1      -2.225  -8.222  -6.068  0.00  0.00    +0.159 HD
ENDROOT
BRANCH   1  10
ATOM     10  C   UNL     1       1.369  -6.752  -6.021  0.00  0.00    +0.151 C 
BRANCH  10  11
ATOM     11  C   UNL     1       2.563  -5.910  -5.665  0.00  0.00    -0.028 A 
ATOM     12  C   UNL     1       3.573  -6.420  -4.838  0.00  0.00    +0.005 A 
ATOM     13  C   UNL     1       2.692  -4.602  -6.158  0.00  0.00    +0.005 A 
ATOM     14  C   UNL     1       4.697  -5.648  -4.531  0.00  0.00    +0.000 A 
ATOM     15  C   UNL     1       3.815  -3.834  -5.848  0.00  0.00    +0.000 A 
ATOM     16  C   UNL     1       4.818  -4.359  -5.037  0.00  0.00    +0.000 A 
ENDBRANCH  10  11
ENDBRANCH   1  10
TORSDOF 2
ENDMDL
MODEL 6
REMARK VINA RESULT:    -5.177      5.374      6.699
REMARK INTER + INTRA:          -5.929
REMARK INTER:                  -5.794
REMARK INTRA:                  -0.135
REMARK UNBOUND:                -0.146
REMARK  Name = 1550473
REMARK  2 active torsions:
REMARK  status: ('A' for Active; 'I' for Inactive)
REMARK    1  A    between atoms: N_1  and  C_4
REMARK    2  A    between atoms: C_4  and  C_5
REMARK                            x       y       z     vdW  Elec       q    Type
REMARK                         _______ _______ _______ _____ _____    ______ ____
ROOT
ATOM      1  N   UNL     1       8.282  -6.771  -3.866  0.00  0.00    -0.354 N 
ATOM      2  N   UNL     1       9.546  -8.709  -3.982  0.00  0.00    -0.372 N 
ATOM      3  N   UNL     1      10.201  -6.883  -5.208  0.00  0.00    -0.372 N 
ATOM      4  C   UNL     1       9.336  -7.440  -4.353  0.00  0.00    +0.166 C 
ATOM      5  H   UNL     1       7.647  -7.260  -3.246  0.00  0.00    +0.163 HD
ATOM      6  H   UNL     1      10.334  -9.238  -4.331  0.00  0.00    +0.159 HD
ATOM      7  H   UNL     1       8.935  -9.180  -3.326  0.00  0.00    +0.159 HD
ATOM      8  H   UNL     1      10.095  -5.931  -5.531  0.00  0.00    +0.159 HD
ATOM      9  H   UNL     1      10.989  -7.400  -5.577  0.00  0.00    +0.159 HD
ENDROOT
BRANCH   1  10
ATOM     10  C   UNL     1       7.995  -5.370  -4.165  0.00  0.00    +0.151 C 
BRANCH  10  11
ATOM     11  C   UNL     1       6.559  -5.244  -4.595  0.00  0.00    -0.028 A 
ATOM     12  C   UNL     1       6.176  -4.262  -5.520  0.00  0.00    +0.005 A 
ATOM     13  C   UNL     1       5.577  -6.107  -4.085  0.00  0.00    +0.005 A 
ATOM     14  C   UNL     1       4.848  -4.164  -5.942  0.00  0.00    +0.000 A 
ATOM     15  C   UNL     1       4.252  -6.006  -4.508  0.00  0.00    +0.000 A 
ATOM     16  C   UNL     1       3.889  -5.035  -5.439  0.00  0.00    +0.000 A 
ENDBRANCH  10  11
ENDBRANCH   1  10
TORSDOF 2
ENDMDL
MODEL 7
REMARK VINA RESULT:    -5.050      2.813      3.901
REMARK INTER + INTRA:          -5.787
REMARK INTER:                  -5.657
REMARK INTRA:                  -0.130
REMARK UNBOUND:                -0.146
REMARK  Name = 1550473
REMARK  2 active torsions:
REMARK  status: ('A' for Active; 'I' for Inactive)
REMARK    1  A    between atoms: N_1  and  C_4
REMARK    2  A    between atoms: C_4  and  C_5
REMARK                            x       y       z     vdW  Elec       q    Type
REMARK                         _______ _______ _______ _____ _____    ______ ____
ROOT
ATOM      1  N   UNL     1       4.630  -5.208  -6.582  0.00  0.00    -0.354 N 
ATOM      2  N   UNL     1       3.485  -3.819  -8.040  0.00  0.00    -0.372 N 
ATOM      3  N   UNL     1       2.658  -4.127  -5.922  0.00  0.00    -0.372 N 
ATOM      4  C   UNL     1       3.596  -4.394  -6.836  0.00  0.00    +0.166 C 
ATOM      5  H   UNL     1       5.291  -5.393  -7.327  0.00  0.00    +0.163 HD
ATOM      6  H   UNL     1       2.718  -3.198  -8.260  0.00  0.00    +0.159 HD
ATOM      7  H   UNL     1       4.173  -3.970  -8.768  0.00  0.00    +0.159 HD
ATOM      8  H   UNL     1       2.681  -4.534  -4.997  0.00  0.00    +0.159 HD
ATOM      9  H   UNL     1       1.876  -3.517  -6.127  0.00  0.00    +0.159 HD
ENDROOT
BRANCH   1  10
ATOM     10  C   UNL     1       4.872  -5.841  -5.287  0.00  0.00    +0.151 C 
BRANCH  10  11
ATOM     11  C   UNL     1       6.212  -5.399  -4.767  0.00  0.00    -0.028 A 
ATOM     12  C   UNL     1       6.956  -4.426  -5.452  0.00  0.00    +0.005 A 
ATOM     13  C   UNL     1       6.741  -5.944  -3.587  0.00  0.00    +0.005 A 
ATOM     14  C   UNL     1       8.187  -3.994  -4.953  0.00  0.00    +0.000 A 
ATOM     15  C   UNL     1       7.971  -5.510  -3.093  0.00  0.00    +0.000 A 
ATOM     16  C   UNL     1       8.692  -4.533  -3.775  0.00  0.00    +0.000 A 
ENDBRANCH  10  11
ENDBRANCH   1  10
TORSDOF 2
ENDMDL
MODEL 8
REMARK VINA RESULT:    -4.907      4.466      5.973
REMARK INTER + INTRA:          -5.627
REMARK INTER:                  -5.509
REMARK INTRA:                  -0.118
REMARK UNBOUND:                -0.146
REMARK  Name = 1550473
REMARK  2 active torsions:
REMARK  status: ('A' for Active; 'I' for Inactive)
REMARK    1  A    between atoms: N_1  and  C_4
REMARK    2  A    between atoms: C_4  and  C_5
REMARK                            x       y       z     vdW  Elec       q    Type
REMARK                         _______ _______ _______ _____ _____    ______ ____
ROOT
ATOM      1  N   UNL     1       6.980  -6.157  -4.573  0.00  0.00    -0.354 N 
ATOM      2  N   UNL     1       9.266  -5.825  -4.751  0.00  0.00    -0.372 N 
ATOM      3  N   UNL     1       8.216  -5.282  -2.784  0.00  0.00    -0.372 N 
ATOM      4  C   UNL     1       8.139  -5.756  -4.032  0.00  0.00    +0.166 C 
ATOM      5  H   UNL     1       6.983  -6.478  -5.534  0.00  0.00    +0.163 HD
ATOM      6  H   UNL     1      10.155  -5.533  -4.369  0.00  0.00    +0.159 HD
ATOM      7  H   UNL     1       9.273  -6.189  -5.696  0.00  0.00    +0.159 HD
ATOM      8  H   UNL     1       7.401  -5.199  -2.191  0.00  0.00    +0.159 HD
ATOM      9  H   UNL     1       9.095  -4.974  -2.388  0.00  0.00    +0.159 HD
ENDROOT
BRANCH   1  10
ATOM     10  C   UNL     1       5.706  -6.173  -3.856  0.00  0.00    +0.151 C 
BRANCH  10  11
ATOM     11  C   UNL     1       4.629  -5.634  -4.758  0.00  0.00    -0.028 A 
ATOM     12  C   UNL     1       3.850  -6.503  -5.535  0.00  0.00    +0.005 A 
ATOM     13  C   UNL     1       4.379  -4.255  -4.834  0.00  0.00    +0.005 A 
ATOM     14  C   UNL     1       2.830  -6.006  -6.349  0.00  0.00    +0.000 A 
ATOM     15  C   UNL     1       3.361  -3.762  -5.649  0.00  0.00    +0.000 A 
ATOM     16  C   UNL     1       2.585  -4.638  -6.405  0.00  0.00    +0.000 A 
ENDBRANCH  10  11
ENDBRANCH   1  10
TORSDOF 2
ENDMDL
MODEL 9
REMARK VINA RESULT:    -4.868      3.022      4.943
REMARK INTER + INTRA:          -5.583
REMARK INTER:                  -5.487
REMARK INTRA:                  -0.096
REMARK UNBOUND:                -0.146
REMARK  Name = 1550473
REMARK  2 active torsions:
REMARK  status: ('A' for Active; 'I' for Inactive)
REMARK    1  A    between atoms: N_1  and  C_4
REMARK    2  A    between atoms: C_4  and  C_5
REMARK                            x       y       z     vdW  Elec       q    Type
REMARK                         _______ _______ _______ _____ _____    ______ ____
ROOT
ATOM      1  N   UNL     1       3.781  -6.534  -5.141  0.00  0.00    -0.354 N 
ATOM      2  N   UNL     1       5.821  -5.859  -4.278  0.00  0.00    -0.372 N 
ATOM      3  N   UNL     1       4.244  -4.267  -4.769  0.00  0.00    -0.372 N 
ATOM      4  C   UNL     1       4.601  -5.555  -4.736  0.00  0.00    +0.166 C 
ATOM      5  H   UNL     1       4.122  -7.488  -5.119  0.00  0.00    +0.163 HD
ATOM      6  H   UNL     1       6.461  -5.142  -3.962  0.00  0.00    +0.159 HD
ATOM      7  H   UNL     1       6.143  -6.817  -4.213  0.00  0.00    +0.159 HD
ATOM      8  H   UNL     1       3.339  -3.970  -5.109  0.00  0.00    +0.159 HD
ATOM      9  H   UNL     1       4.874  -3.534  -4.468  0.00  0.00    +0.159 HD
ENDROOT
BRANCH   1  10
ATOM     10  C   UNL     1       2.412  -6.314  -5.606  0.00  0.00    +0.151 C 
BRANCH  10  11
ATOM     11  C   UNL     1       2.376  -6.440  -7.104  0.00  0.00    -0.028 A 
ATOM     12  C   UNL     1       3.518  -6.845  -7.812  0.00  0.00    +0.005 A 
ATOM     13  C   UNL     1       1.202  -6.162  -7.821  0.00  0.00    +0.005 A 
ATOM     14  C   UNL     1       3.476  -6.991  -9.201  0.00  0.00    +0.000 A 
ATOM     15  C   UNL     1       1.165  -6.308  -9.208  0.00  0.00    +0.000 A 
ATOM     16  C   UNL     1       2.302  -6.725  -9.897  0.00  0.00    +0.000 A 
ENDBRANCH  10  11
ENDBRANCH   1  10
TORSDOF 2
ENDMDL
