MODEL 1
REMARK VINA RESULT:    -5.446      0.000      0.000
REMARK INTER + INTRA:          -6.215
REMARK INTER:                  -6.083
REMARK INTRA:                  -0.132
REMARK UNBOUND:                -0.132
REMARK  Name = 1550473
REMARK  2 active torsions:
REMARK  status: ('A' for Active; 'I' for Inactive)
REMARK    1  A    between atoms: N_1  and  C_4
REMARK    2  A    between atoms: C_4  and  C_5
REMARK                            x       y       z     vdW  Elec       q    Type
REMARK                         _______ _______ _______ _____ _____    ______ ____
ROOT
ATOM      1  N   UNL     1       5.268   5.847  -8.930  0.00  0.00    -0.354 N 
ATOM      2  N   UNL     1       5.521   7.458 -10.575  0.00  0.00    -0.372 N 
ATOM      3  N   UNL     1       3.468   7.198  -9.583  0.00  0.00    -0.372 N 
ATOM      4  C   UNL     1       4.748   6.824  -9.685  0.00  0.00    +0.166 C 
ATOM      5  H   UNL     1       6.237   5.590  -9.076  0.00  0.00    +0.163 HD
ATOM      6  H   UNL     1       5.158   8.202 -11.155  0.00  0.00    +0.159 HD
ATOM      7  H   UNL     1       6.502   7.230 -10.686  0.00  0.00    +0.159 HD
ATOM      8  H   UNL     1       2.831   6.755  -8.935  0.00  0.00    +0.159 HD
ATOM      9  H   UNL     1       3.083   7.932 -10.164  0.00  0.00    +0.159 HD
ENDROOT
BRANCH   1  10
ATOM     10  C   UNL     1       4.525   5.130  -7.894  0.00  0.00    +0.151 C 
BRANCH  10  11
ATOM     11  C   UNL     1       4.479   3.669  -8.246  0.00  0.00    -0.028 A 
ATOM     12  C   UNL     1       4.172   3.260  -9.552  0.00  0.00    +0.005 A 
ATOM     13  C   UNL     1       4.746   2.688  -7.278  0.00  0.00    +0.005 A 
ATOM     14  C   UNL     1       4.158   1.903  -9.885  0.00  0.00    +0.000 A 
ATOM     15  C   UNL     1       4.730   1.335  -7.615  0.00  0.00    +0.000 A 
ATOM     16  C   UNL     1       4.438   0.943  -8.919  0.00  0.00    +0.000 A 
ENDBRANCH  10  11
ENDBRANCH   1  10
TORSDOF 2
ENDMDL
MODEL 2
REMARK VINA RESULT:    -5.233      4.732      6.285
REMARK INTER + INTRA:          -5.977
REMARK INTER:                  -5.854
REMARK INTRA:                  -0.123
REMARK UNBOUND:                -0.132
REMARK  Name = 1550473
REMARK  2 active torsions:
REMARK  status: ('A' for Active; 'I' for Inactive)
REMARK    1  A    between atoms: N_1  and  C_4
REMARK    2  A    between atoms: C_4  and  C_5
REMARK                            x       y       z     vdW  Elec       q    Type
REMARK                         _______ _______ _______ _____ _____    ______ ____
ROOT
ATOM      1  N   UNL     1       3.043  -1.042  -9.490  0.00  0.00    -0.354 N 
ATOM      2  N   UNL     1       2.638  -3.313  -9.274  0.00  0.00    -0.372 N 
ATOM      3  N   UNL     1       2.318  -2.318 -11.317  0.00  0.00    -0.372 N 
ATOM      4  C   UNL     1       2.668  -2.209 -10.031  0.00  0.00    +0.166 C 
ATOM      5  H   UNL     1       3.267  -1.020  -8.502  0.00  0.00    +0.163 HD
ATOM      6  H   UNL     1       2.363  -4.208  -9.656  0.00  0.00    +0.159 HD
ATOM      7  H   UNL     1       2.907  -3.297  -8.298  0.00  0.00    +0.159 HD
ATOM      8  H   UNL     1       2.314  -1.522 -11.940  0.00  0.00    +0.159 HD
ATOM      9  H   UNL     1       2.028  -3.203 -11.715  0.00  0.00    +0.159 HD
ENDROOT
BRANCH   1  10
ATOM     10  C   UNL     1       3.161   0.207 -10.240  0.00  0.00    +0.151 C 
BRANCH  10  11
ATOM     11  C   UNL     1       3.743   1.265  -9.344  0.00  0.00    -0.028 A 
ATOM     12  C   UNL     1       4.302   0.920  -8.105  0.00  0.00    +0.005 A 
ATOM     13  C   UNL     1       3.743   2.614  -9.731  0.00  0.00    +0.005 A 
ATOM     14  C   UNL     1       4.870   1.898  -7.285  0.00  0.00    +0.000 A 
ATOM     15  C   UNL     1       4.310   3.588  -8.909  0.00  0.00    +0.000 A 
ATOM     16  C   UNL     1       4.875   3.230  -7.688  0.00  0.00    +0.000 A 
ENDBRANCH  10  11
ENDBRANCH   1  10
TORSDOF 2
ENDMDL
MODEL 3
REMARK VINA RESULT:    -5.206     20.350     21.027
REMARK INTER + INTRA:          -5.946
REMARK INTER:                  -5.813
REMARK INTRA:                  -0.133
REMARK UNBOUND:                -0.132
REMARK  Name = 1550473
REMARK  2 active torsions:
REMARK  status: ('A' for Active; 'I' for Inactive)
REMARK    1  A    between atoms: N_1  and  C_4
REMARK    2  A    between atoms: C_4  and  C_5
REMARK                            x       y       z     vdW  Elec       q    Type
REMARK                         _______ _______ _______ _____ _____    ______ ____
ROOT
ATOM      1  N   UNL     1      -1.657 -11.239   4.188  0.00  0.00    -0.354 N 
ATOM      2  N   UNL     1       0.395 -11.970   4.975  0.00  0.00    -0.372 N 
ATOM      3  N   UNL     1       0.304 -10.880   2.958  0.00  0.00    -0.372 N 
ATOM      4  C   UNL     1      -0.332 -11.357   4.032  0.00  0.00    +0.166 C 
ATOM      5  H   UNL     1      -2.084 -11.649   5.011  0.00  0.00    +0.163 HD
ATOM      6  H   UNL     1       1.397 -12.071   4.887  0.00  0.00    +0.159 HD
ATOM      7  H   UNL     1      -0.028 -12.338   5.818  0.00  0.00    +0.159 HD
ATOM      8  H   UNL     1      -0.187 -10.413   2.208  0.00  0.00    +0.159 HD
ATOM      9  H   UNL     1       1.305 -10.982   2.846  0.00  0.00    +0.159 HD
ENDROOT
BRANCH   1  10
ATOM     10  C   UNL     1      -2.532 -10.543   3.246  0.00  0.00    +0.151 C 
BRANCH  10  11
ATOM     11  C   UNL     1      -3.354  -9.531   3.996  0.00  0.00    -0.028 A 
ATOM     12  C   UNL     1      -2.866  -8.950   5.175  0.00  0.00    +0.005 A 
ATOM     13  C   UNL     1      -4.620  -9.144   3.528  0.00  0.00    +0.005 A 
ATOM     14  C   UNL     1      -3.616  -7.988   5.856  0.00  0.00    +0.000 A 
ATOM     15  C   UNL     1      -5.366  -8.183   4.211  0.00  0.00    +0.000 A 
ATOM     16  C   UNL     1      -4.863  -7.604   5.373  0.00  0.00    +0.000 A 
ENDBRANCH  10  11
ENDBRANCH   1  10
TORSDOF 2
ENDMDL
MODEL 4
REMARK VINA RESULT:    -5.116     19.780     20.788
REMARK INTER + INTRA:          -5.846
REMARK INTER:                  -5.726
REMARK INTRA:                  -0.120
REMARK UNBOUND:                -0.132
REMARK  Name = 1550473
REMARK  2 active torsions:
REMARK  status: ('A' for Active; 'I' for Inactive)
REMARK    1  A    between atoms: N_1  and  C_4
REMARK    2  A    between atoms: C_4  and  C_5
REMARK                            x       y       z     vdW  Elec       q    Type
REMARK                         _______ _______ _______ _____ _____    ______ ____
ROOT
ATOM      1  N   UNL     1       8.104  -9.590   5.737  0.00  0.00    -0.354 N 
ATOM      2  N   UNL     1      10.208  -8.943   5.016  0.00  0.00    -0.372 N 
ATOM      3  N   UNL     1       9.925  -9.545   7.212  0.00  0.00    -0.372 N 
ATOM      4  C   UNL     1       9.399  -9.364   5.996  0.00  0.00    +0.166 C 
ATOM      5  H   UNL     1       7.761  -9.404   4.802  0.00  0.00    +0.163 HD
ATOM      6  H   UNL     1      11.190  -8.767   5.181  0.00  0.00    +0.159 HD
ATOM      7  H   UNL     1       9.873  -8.802   4.071  0.00  0.00    +0.159 HD
ATOM      8  H   UNL     1       9.366  -9.855   7.996  0.00  0.00    +0.159 HD
ATOM      9  H   UNL     1      10.903  -9.363   7.400  0.00  0.00    +0.159 HD
ENDROOT
BRANCH   1  10
ATOM     10  C   UNL     1       7.151 -10.101   6.720  0.00  0.00    +0.151 C 
BRANCH  10  11
ATOM     11  C   UNL     1       6.067  -9.079   6.930  0.00  0.00    -0.028 A 
ATOM     12  C   UNL     1       4.754  -9.483   7.212  0.00  0.00    +0.005 A 
ATOM     13  C   UNL     1       6.348  -7.707   6.854  0.00  0.00    +0.005 A 
ATOM     14  C   UNL     1       3.753  -8.535   7.437  0.00  0.00    +0.000 A 
ATOM     15  C   UNL     1       5.346  -6.763   7.078  0.00  0.00    +0.000 A 
ATOM     16  C   UNL     1       4.049  -7.177   7.372  0.00  0.00    +0.000 A 
ENDBRANCH  10  11
ENDBRANCH   1  10
TORSDOF 2
ENDMDL
MODEL 5
REMARK VINA RESULT:    -5.016      2.341      3.134
REMARK INTER + INTRA:          -5.735
REMARK INTER:                  -5.641
REMARK INTRA:                  -0.094
REMARK UNBOUND:                -0.132
REMARK  Name = 1550473
REMARK  2 active torsions:
REMARK  status: ('A' for Active; 'I' for Inactive)
REMARK    1  A    between atoms: N_1  and  C_4
REMARK    2  A    between atoms: C_4  and  C_5
REMARK                            x       y       z     vdW  Elec       q    Type
REMARK                         _______ _______ _______ _____ _____    ______ ____
ROOT
ATOM      1  N   UNL     1       2.292   4.003  -9.348  0.00  0.00    -0.354 N 
ATOM      2  N   UNL     1       1.062   5.948  -9.087  0.00  0.00    -0.372 N 
ATOM      3  N   UNL     1       3.083   5.761  -8.016  0.00  0.00    -0.372 N 
ATOM      4  C   UNL     1       2.156   5.225  -8.817  0.00  0.00    +0.166 C 
ATOM      5  H   UNL     1       1.540   3.642  -9.924  0.00  0.00    +0.163 HD
ATOM      6  H   UNL     1       0.933   6.875  -8.704  0.00  0.00    +0.159 HD
ATOM      7  H   UNL     1       0.333   5.603  -9.700  0.00  0.00    +0.159 HD
ATOM      8  H   UNL     1       3.928   5.265  -7.768  0.00  0.00    +0.159 HD
ATOM      9  H   UNL     1       2.966   6.682  -7.612  0.00  0.00    +0.159 HD
ENDROOT
BRANCH   1  10
ATOM     10  C   UNL     1       3.469   3.156  -9.160  0.00  0.00    +0.151 C 
BRANCH  10  11
ATOM     11  C   UNL     1       3.121   1.742  -9.533  0.00  0.00    -0.028 A 
ATOM     12  C   UNL     1       3.371   1.265 -10.828  0.00  0.00    +0.005 A 
ATOM     13  C   UNL     1       2.546   0.871  -8.595  0.00  0.00    +0.005 A 
ATOM     14  C   UNL     1       3.076  -0.058 -11.167  0.00  0.00    +0.000 A 
ATOM     15  C   UNL     1       2.251  -0.448  -8.937  0.00  0.00    +0.000 A 
ATOM     16  C   UNL     1       2.519  -0.913 -10.222  0.00  0.00    +0.000 A 
ENDBRANCH  10  11
ENDBRANCH   1  10
TORSDOF 2
ENDMDL
MODEL 6
REMARK VINA RESULT:    -4.948      5.776      7.344
REMARK INTER + INTRA:          -5.658
REMARK INTER:                  -5.489
REMARK INTRA:                  -0.170
REMARK UNBOUND:                -0.132
REMARK  Name = 1550473
REMARK  2 active torsions:
REMARK  status: ('A' for Active; 'I' for Inactive)
REMARK    1  A    between atoms: N_1  and  C_4
REMARK    2  A    between atoms: C_4  and  C_5
REMARK                            x       y       z     vdW  Elec       q    Type
REMARK                         _______ _______ _______ _____ _____    ______ ____
ROOT
ATOM      1  N   UNL     1       2.329  -2.537  -8.853  0.00  0.00    -0.354 N 
ATOM      2  N   UNL     1       3.045  -4.739  -8.919  0.00  0.00    -0.372 N 
ATOM      3  N   UNL     1       1.744  -3.943 -10.634  0.00  0.00    -0.372 N 
ATOM      4  C   UNL     1       2.366  -3.725  -9.471  0.00  0.00    +0.166 C 
ATOM      5  H   UNL     1       2.796  -2.445  -7.958  0.00  0.00    +0.163 HD
ATOM      6  H   UNL     1       3.093  -5.646  -9.364  0.00  0.00    +0.159 HD
ATOM      7  H   UNL     1       3.549  -4.631  -8.048  0.00  0.00    +0.159 HD
ATOM      8  H   UNL     1       1.210  -3.221 -11.099  0.00  0.00    +0.159 HD
ATOM      9  H   UNL     1       1.772  -4.847 -11.089  0.00  0.00    +0.159 HD
ENDROOT
BRANCH   1  10
ATOM     10  C   UNL     1       1.664  -1.354  -9.396  0.00  0.00    +0.151 C 
BRANCH  10  11
ATOM     11  C   UNL     1       2.706  -0.371  -9.853  0.00  0.00    -0.028 A 
ATOM     12  C   UNL     1       2.936  -0.162 -11.221  0.00  0.00    +0.005 A 
ATOM     13  C   UNL     1       3.462   0.360  -8.923  0.00  0.00    +0.005 A 
ATOM     14  C   UNL     1       3.883   0.773 -11.646  0.00  0.00    +0.000 A 
ATOM     15  C   UNL     1       4.407   1.292  -9.352  0.00  0.00    +0.000 A 
ATOM     16  C   UNL     1       4.615   1.500 -10.714  0.00  0.00    +0.000 A 
ENDBRANCH  10  11
ENDBRANCH   1  10
TORSDOF 2
ENDMDL
MODEL 7
REMARK VINA RESULT:    -4.927      7.046      8.275
REMARK INTER + INTRA:          -5.635
REMARK INTER:                  -5.528
REMARK INTRA:                  -0.106
REMARK UNBOUND:                -0.132
REMARK  Name = 1550473
REMARK  2 active torsions:
REMARK  status: ('A' for Active; 'I' for Inactive)
REMARK    1  A    between atoms: N_1  and  C_4
REMARK    2  A    between atoms: C_4  and  C_5
REMARK                            x       y       z     vdW  Elec       q    Type
REMARK                         _______ _______ _______ _____ _____    ______ ____
ROOT
ATOM      1  N   UNL     1      12.996   6.260 -11.336  0.00  0.00    -0.354 N 
ATOM      2  N   UNL     1      14.997   6.673 -12.427  0.00  0.00    -0.372 N 
ATOM      3  N   UNL     1      14.962   5.147 -10.714  0.00  0.00    -0.372 N 
ATOM      4  C   UNL     1      14.306   6.022 -11.483  0.00  0.00    +0.166 C 
ATOM      5  H   UNL     1      12.564   6.958 -11.931  0.00  0.00    +0.163 HD
ATOM      6  H   UNL     1      15.986   6.511 -12.564  0.00  0.00    +0.159 HD
ATOM      7  H   UNL     1      14.553   7.335 -13.051  0.00  0.00    +0.159 HD
ATOM      8  H   UNL     1      14.500   4.628  -9.979  0.00  0.00    +0.159 HD
ATOM      9  H   UNL     1      15.954   4.980 -10.828  0.00  0.00    +0.159 HD
ENDROOT
BRANCH   1  10
ATOM     10  C   UNL     1      12.142   5.566 -10.374  0.00  0.00    +0.151 C 
BRANCH  10  11
ATOM     11  C   UNL     1      10.734   6.077 -10.510  0.00  0.00    -0.028 A 
ATOM     12  C   UNL     1      10.129   6.170 -11.772  0.00  0.00    +0.005 A 
ATOM     13  C   UNL     1       9.998   6.463  -9.380  0.00  0.00    +0.005 A 
ATOM     14  C   UNL     1       8.811   6.616 -11.895  0.00  0.00    +0.000 A 
ATOM     15  C   UNL     1       8.682   6.909  -9.507  0.00  0.00    +0.000 A 
ATOM     16  C   UNL     1       8.088   6.982 -10.765  0.00  0.00    +0.000 A 
ENDBRANCH  10  11
ENDBRANCH   1  10
TORSDOF 2
ENDMDL
MODEL 8
REMARK VINA RESULT:    -4.841     18.890     20.017
REMARK INTER + INTRA:          -5.539
REMARK INTER:                  -5.389
REMARK INTRA:                  -0.150
REMARK UNBOUND:                -0.132
REMARK  Name = 1550473
REMARK  2 active torsions:
REMARK  status: ('A' for Active; 'I' for Inactive)
REMARK    1  A    between atoms: N_1  and  C_4
REMARK    2  A    between atoms: C_4  and  C_5
REMARK                            x       y       z     vdW  Elec       q    Type
REMARK                         _______ _______ _______ _____ _____    ______ ____
ROOT
ATOM      1  N   UNL     1      -1.160 -10.776   3.375  0.00  0.00    -0.354 N 
ATOM      2  N   UNL     1       0.489 -11.448   1.894  0.00  0.00    -0.372 N 
ATOM      3  N   UNL     1      -1.680 -12.085   1.502  0.00  0.00    -0.372 N 
ATOM      4  C   UNL     1      -0.796 -11.433   2.265  0.00  0.00    +0.166 C 
ATOM      5  H   UNL     1      -0.438 -10.327   3.926  0.00  0.00    +0.163 HD
ATOM      6  H   UNL     1       0.793 -11.933   1.060  0.00  0.00    +0.159 HD
ATOM      7  H   UNL     1       1.202 -10.960   2.423  0.00  0.00    +0.159 HD
ATOM      8  H   UNL     1      -2.664 -12.117   1.730  0.00  0.00    +0.159 HD
ATOM      9  H   UNL     1      -1.394 -12.586   0.670  0.00  0.00    +0.159 HD
ENDROOT
BRANCH   1  10
ATOM     10  C   UNL     1      -2.541 -10.654   3.837  0.00  0.00    +0.151 C 
BRANCH  10  11
ATOM     11  C   UNL     1      -2.938  -9.203   3.820  0.00  0.00    -0.028 A 
ATOM     12  C   UNL     1      -4.292  -8.836   3.829  0.00  0.00    +0.005 A 
ATOM     13  C   UNL     1      -1.966  -8.192   3.800  0.00  0.00    +0.005 A 
ATOM     14  C   UNL     1      -4.661  -7.488   3.843  0.00  0.00    +0.000 A 
ATOM     15  C   UNL     1      -2.339  -6.848   3.813  0.00  0.00    +0.000 A 
ATOM     16  C   UNL     1      -3.686  -6.496   3.838  0.00  0.00    +0.000 A 
ENDBRANCH  10  11
ENDBRANCH   1  10
TORSDOF 2
ENDMDL
MODEL 9
REMARK VINA RESULT:    -4.680      2.841      4.523
REMARK INTER + INTRA:          -5.359
REMARK INTER:                  -5.213
REMARK INTRA:                  -0.147
REMARK UNBOUND:                -0.132
REMARK  Name = 1550473
REMARK  2 active torsions:
REMARK  status: ('A' for Active; 'I' for Inactive)
REMARK    1  A    between atoms: N_1  and  C_4
REMARK    2  A    between atoms: C_4  and  C_5
REMARK                            x       y       z     vdW  Elec       q    Type
REMARK                         _______ _______ _______ _____ _____    ______ ____
ROOT
ATOM      1  N   UNL     1       3.558   2.616  -8.975  0.00  0.00    -0.354 N 
ATOM      2  N   UNL     1       2.671   1.432 -10.757  0.00  0.00    -0.372 N 
ATOM      3  N   UNL     1       1.347   2.961  -9.673  0.00  0.00    -0.372 N 
ATOM      4  C   UNL     1       2.529   2.345  -9.789  0.00  0.00    +0.166 C 
ATOM      5  H   UNL     1       4.418   2.093  -9.096  0.00  0.00    +0.163 HD
ATOM      6  H   UNL     1       1.914   1.209 -11.389  0.00  0.00    +0.159 HD
ATOM      7  H   UNL     1       3.546   0.944 -10.905  0.00  0.00    +0.159 HD
ATOM      8  H   UNL     1       1.173   3.656  -8.960  0.00  0.00    +0.159 HD
ATOM      9  H   UNL     1       0.573   2.743 -10.288  0.00  0.00    +0.159 HD
ENDROOT
BRANCH   1  10
ATOM     10  C   UNL     1       3.523   3.632  -7.924  0.00  0.00    +0.151 C 
BRANCH  10  11
ATOM     11  C   UNL     1       4.563   4.678  -8.219  0.00  0.00    -0.028 A 
ATOM     12  C   UNL     1       5.586   4.944  -7.297  0.00  0.00    +0.005 A 
ATOM     13  C   UNL     1       4.533   5.403  -9.420  0.00  0.00    +0.005 A 
ATOM     14  C   UNL     1       6.569   5.894  -7.583  0.00  0.00    +0.000 A 
ATOM     15  C   UNL     1       5.516   6.352  -9.701  0.00  0.00    +0.000 A 
ATOM     16  C   UNL     1       6.535   6.596  -8.784  0.00  0.00    +0.000 A 
ENDBRANCH  10  11
ENDBRANCH   1  10
TORSDOF 2
ENDMDL
