MODEL 1
REMARK VINA RESULT:    -6.031      0.000      0.000
REMARK INTER + INTRA:          -6.542
REMARK INTER:                  -6.736
REMARK INTRA:                   0.194
REMARK UNBOUND:                 0.194
REMARK  Name = 1550473
REMARK  2 active torsions:
REMARK  status: ('A' for Active; 'I' for Inactive)
REMARK    1  A    between atoms: N_1  and  C_4
REMARK    2  A    between atoms: C_4  and  C_5
REMARK                            x       y       z     vdW  Elec       q    Type
REMARK                         _______ _______ _______ _____ _____    ______ ____
ROOT
ATOM      1  N   UNL     1      -7.516   0.085   6.403  0.00  0.00    -0.354 N 
ATOM      2  N   UNL     1      -6.027  -0.725   7.980  0.00  0.00    -0.372 N 
ATOM      3  N   UNL     1      -5.391   1.039   6.659  0.00  0.00    -0.372 N 
ATOM      4  C   UNL     1      -6.319   0.140   7.002  0.00  0.00    +0.166 C 
ATOM      5  H   UNL     1      -8.164  -0.639   6.688  0.00  0.00    +0.163 HD
ATOM      6  H   UNL     1      -5.133  -0.706   8.454  0.00  0.00    +0.159 HD
ATOM      7  H   UNL     1      -6.694  -1.419   8.295  0.00  0.00    +0.159 HD
ATOM      8  H   UNL     1      -5.547   1.717   5.924  0.00  0.00    +0.159 HD
ATOM      9  H   UNL     1      -4.486   1.067   7.113  0.00  0.00    +0.159 HD
ENDROOT
BRANCH   1  10
ATOM     10  C   UNL     1      -7.953   1.016   5.364  0.00  0.00    +0.151 C 
BRANCH  10  11
ATOM     11  C   UNL     1      -7.194   0.731   4.097  0.00  0.00    -0.028 A 
ATOM     12  C   UNL     1      -6.792   1.780   3.257  0.00  0.00    +0.005 A 
ATOM     13  C   UNL     1      -6.868  -0.585   3.735  0.00  0.00    +0.005 A 
ATOM     14  C   UNL     1      -6.060   1.519   2.096  0.00  0.00    +0.000 A 
ATOM     15  C   UNL     1      -6.138  -0.842   2.575  0.00  0.00    +0.000 A 
ATOM     16  C   UNL     1      -5.732   0.210   1.757  0.00  0.00    +0.000 A 
ENDBRANCH  10  11
ENDBRANCH   1  10
TORSDOF 2
ENDMDL
MODEL 2
REMARK VINA RESULT:    -5.771     15.512     17.209
REMARK INTER + INTRA:          -6.251
REMARK INTER:                  -6.141
REMARK INTRA:                  -0.110
REMARK UNBOUND:                 0.194
REMARK  Name = 1550473
REMARK  2 active torsions:
REMARK  status: ('A' for Active; 'I' for Inactive)
REMARK    1  A    between atoms: N_1  and  C_4
REMARK    2  A    between atoms: C_4  and  C_5
REMARK                            x       y       z     vdW  Elec       q    Type
REMARK                         _______ _______ _______ _____ _____    ______ ____
ROOT
ATOM      1  N   UNL     1      -0.384   5.347  -9.252  0.00  0.00    -0.354 N 
ATOM      2  N   UNL     1      -0.875   6.113  -7.122  0.00  0.00    -0.372 N 
ATOM      3  N   UNL     1       1.112   5.021  -7.478  0.00  0.00    -0.372 N 
ATOM      4  C   UNL     1      -0.044   5.487  -7.964  0.00  0.00    +0.166 C 
ATOM      5  H   UNL     1      -1.287   5.696  -9.552  0.00  0.00    +0.163 HD
ATOM      6  H   UNL     1      -0.643   6.238  -6.146  0.00  0.00    +0.159 HD
ATOM      7  H   UNL     1      -1.756   6.502  -7.434  0.00  0.00    +0.159 HD
ATOM      8  H   UNL     1       1.780   4.534  -8.060  0.00  0.00    +0.159 HD
ATOM      9  H   UNL     1       1.356   5.125  -6.501  0.00  0.00    +0.159 HD
ENDROOT
BRANCH   1  10
ATOM     10  C   UNL     1       0.473   4.729 -10.262  0.00  0.00    +0.151 C 
BRANCH  10  11
ATOM     11  C   UNL     1      -0.320   4.528 -11.523  0.00  0.00    -0.028 A 
ATOM     12  C   UNL     1      -1.584   3.920 -11.481  0.00  0.00    +0.005 A 
ATOM     13  C   UNL     1       0.183   4.948 -12.764  0.00  0.00    +0.005 A 
ATOM     14  C   UNL     1      -2.334   3.760 -12.648  0.00  0.00    +0.000 A 
ATOM     15  C   UNL     1      -0.569   4.786 -13.928  0.00  0.00    +0.000 A 
ATOM     16  C   UNL     1      -1.828   4.195 -13.869  0.00  0.00    +0.000 A 
ENDBRANCH  10  11
ENDBRANCH   1  10
TORSDOF 2
ENDMDL
MODEL 3
REMARK VINA RESULT:    -5.665     17.638     18.739
REMARK INTER + INTRA:          -6.133
REMARK INTER:                  -5.996
REMARK INTRA:                  -0.137
REMARK UNBOUND:                 0.194
REMARK  Name = 1550473
REMARK  2 active torsions:
REMARK  status: ('A' for Active; 'I' for Inactive)
REMARK    1  A    between atoms: N_1  and  C_4
REMARK    2  A    between atoms: C_4  and  C_5
REMARK                            x       y       z     vdW  Elec       q    Type
REMARK                         _______ _______ _______ _____ _____    ______ ____
ROOT
ATOM      1  N   UNL     1       2.473   5.361 -11.285  0.00  0.00    -0.354 N 
ATOM      2  N   UNL     1       3.906   5.055  -9.491  0.00  0.00    -0.372 N 
ATOM      3  N   UNL     1       2.971   7.124  -9.824  0.00  0.00    -0.372 N 
ATOM      4  C   UNL     1       3.107   5.851 -10.212  0.00  0.00    +0.166 C 
ATOM      5  H   UNL     1       2.641   4.395 -11.544  0.00  0.00    +0.163 HD
ATOM      6  H   UNL     1       4.395   5.396  -8.675  0.00  0.00    +0.159 HD
ATOM      7  H   UNL     1       4.036   4.078  -9.726  0.00  0.00    +0.159 HD
ATOM      8  H   UNL     1       2.388   7.778 -10.329  0.00  0.00    +0.159 HD
ATOM      9  H   UNL     1       3.462   7.487  -9.016  0.00  0.00    +0.159 HD
ENDROOT
BRANCH   1  10
ATOM     10  C   UNL     1       1.539   6.130 -12.106  0.00  0.00    +0.151 C 
BRANCH  10  11
ATOM     11  C   UNL     1       0.316   5.296 -12.371  0.00  0.00    -0.028 A 
ATOM     12  C   UNL     1      -0.254   4.523 -11.349  0.00  0.00    +0.005 A 
ATOM     13  C   UNL     1      -0.280   5.278 -13.641  0.00  0.00    +0.005 A 
ATOM     14  C   UNL     1      -1.407   3.771 -11.587  0.00  0.00    +0.000 A 
ATOM     15  C   UNL     1      -1.431   4.526 -13.875  0.00  0.00    +0.000 A 
ATOM     16  C   UNL     1      -1.996   3.774 -12.847  0.00  0.00    +0.000 A 
ENDBRANCH  10  11
ENDBRANCH   1  10
TORSDOF 2
ENDMDL
MODEL 4
REMARK VINA RESULT:    -5.552     15.834     17.525
REMARK INTER + INTRA:          -6.007
REMARK INTER:                  -5.856
REMARK INTRA:                  -0.150
REMARK UNBOUND:                 0.194
REMARK  Name = 1550473
REMARK  2 active torsions:
REMARK  status: ('A' for Active; 'I' for Inactive)
REMARK    1  A    between atoms: N_1  and  C_4
REMARK    2  A    between atoms: C_4  and  C_5
REMARK                            x       y       z     vdW  Elec       q    Type
REMARK                         _______ _______ _______ _____ _____    ______ ____
ROOT
ATOM      1  N   UNL     1       0.986   5.938  -8.508  0.00  0.00    -0.354 N 
ATOM      2  N   UNL     1      -0.839   5.987  -7.084  0.00  0.00    -0.372 N 
ATOM      3  N   UNL     1       1.076   4.927  -6.396  0.00  0.00    -0.372 N 
ATOM      4  C   UNL     1       0.421   5.615  -7.337  0.00  0.00    +0.166 C 
ATOM      5  H   UNL     1       0.427   6.434  -9.192  0.00  0.00    +0.163 HD
ATOM      6  H   UNL     1      -1.291   5.762  -6.207  0.00  0.00    +0.159 HD
ATOM      7  H   UNL     1      -1.381   6.524  -7.751  0.00  0.00    +0.159 HD
ATOM      8  H   UNL     1       2.028   4.612  -6.527  0.00  0.00    +0.159 HD
ATOM      9  H   UNL     1       0.637   4.682  -5.517  0.00  0.00    +0.159 HD
ENDROOT
BRANCH   1  10
ATOM     10  C   UNL     1       2.370   5.627  -8.862  0.00  0.00    +0.151 C 
BRANCH  10  11
ATOM     11  C   UNL     1       3.110   6.910  -9.122  0.00  0.00    -0.028 A 
ATOM     12  C   UNL     1       3.725   7.604  -8.070  0.00  0.00    +0.005 A 
ATOM     13  C   UNL     1       3.205   7.434 -10.421  0.00  0.00    +0.005 A 
ATOM     14  C   UNL     1       4.438   8.780  -8.316  0.00  0.00    +0.000 A 
ATOM     15  C   UNL     1       3.917   8.609 -10.663  0.00  0.00    +0.000 A 
ATOM     16  C   UNL     1       4.536   9.280  -9.611  0.00  0.00    +0.000 A 
ENDBRANCH  10  11
ENDBRANCH   1  10
TORSDOF 2
ENDMDL
MODEL 5
REMARK VINA RESULT:    -5.516     17.826     18.779
REMARK INTER + INTRA:          -5.966
REMARK INTER:                  -5.828
REMARK INTRA:                  -0.138
REMARK UNBOUND:                 0.194
REMARK  Name = 1550473
REMARK  2 active torsions:
REMARK  status: ('A' for Active; 'I' for Inactive)
REMARK    1  A    between atoms: N_1  and  C_4
REMARK    2  A    between atoms: C_4  and  C_5
REMARK                            x       y       z     vdW  Elec       q    Type
REMARK                         _______ _______ _______ _____ _____    ______ ____
ROOT
ATOM      1  N   UNL     1       1.796   6.062 -10.746  0.00  0.00    -0.354 N 
ATOM      2  N   UNL     1       3.779   7.257 -10.806  0.00  0.00    -0.372 N 
ATOM      3  N   UNL     1       3.814   5.086 -10.063  0.00  0.00    -0.372 N 
ATOM      4  C   UNL     1       3.118   6.125 -10.536  0.00  0.00    +0.166 C 
ATOM      5  H   UNL     1       1.321   6.894 -11.078  0.00  0.00    +0.163 HD
ATOM      6  H   UNL     1       4.777   7.333 -10.661  0.00  0.00    +0.159 HD
ATOM      7  H   UNL     1       3.310   8.072 -11.181  0.00  0.00    +0.159 HD
ATOM      8  H   UNL     1       3.373   4.205  -9.834  0.00  0.00    +0.159 HD
ATOM      9  H   UNL     1       4.812   5.146  -9.900  0.00  0.00    +0.159 HD
ENDROOT
BRANCH   1  10
ATOM     10  C   UNL     1       0.991   4.860 -10.535  0.00  0.00    +0.151 C 
BRANCH  10  11
ATOM     11  C   UNL     1       0.075   4.671 -11.713  0.00  0.00    -0.028 A 
ATOM     12  C   UNL     1       0.409   5.201 -12.968  0.00  0.00    +0.005 A 
ATOM     13  C   UNL     1      -1.127   3.957 -11.581  0.00  0.00    +0.005 A 
ATOM     14  C   UNL     1      -0.428   4.999 -14.068  0.00  0.00    +0.000 A 
ATOM     15  C   UNL     1      -1.959   3.759 -12.682  0.00  0.00    +0.000 A 
ATOM     16  C   UNL     1      -1.608   4.278 -13.926  0.00  0.00    +0.000 A 
ENDBRANCH  10  11
ENDBRANCH   1  10
TORSDOF 2
ENDMDL
MODEL 6
REMARK VINA RESULT:    -5.398     15.597     17.278
REMARK INTER + INTRA:          -5.834
REMARK INTER:                  -5.677
REMARK INTRA:                  -0.157
REMARK UNBOUND:                 0.194
REMARK  Name = 1550473
REMARK  2 active torsions:
REMARK  status: ('A' for Active; 'I' for Inactive)
REMARK    1  A    between atoms: N_1  and  C_4
REMARK    2  A    between atoms: C_4  and  C_5
REMARK                            x       y       z     vdW  Elec       q    Type
REMARK                         _______ _______ _______ _____ _____    ______ ____
ROOT
ATOM      1  N   UNL     1      -0.231   7.599  -8.493  0.00  0.00    -0.354 N 
ATOM      2  N   UNL     1      -2.362   6.693  -8.496  0.00  0.00    -0.372 N 
ATOM      3  N   UNL     1      -0.835   5.931  -6.963  0.00  0.00    -0.372 N 
ATOM      4  C   UNL     1      -1.127   6.746  -7.982  0.00  0.00    +0.166 C 
ATOM      5  H   UNL     1      -0.505   8.168  -9.286  0.00  0.00    +0.163 HD
ATOM      6  H   UNL     1      -3.061   6.062  -8.129  0.00  0.00    +0.159 HD
ATOM      7  H   UNL     1      -2.648   7.296  -9.258  0.00  0.00    +0.159 HD
ATOM      8  H   UNL     1       0.081   5.918  -6.534  0.00  0.00    +0.159 HD
ATOM      9  H   UNL     1      -1.518   5.284  -6.589  0.00  0.00    +0.159 HD
ENDROOT
BRANCH   1  10
ATOM     10  C   UNL     1       1.124   7.772  -7.971  0.00  0.00    +0.151 C 
BRANCH  10  11
ATOM     11  C   UNL     1       2.108   7.232  -8.971  0.00  0.00    -0.028 A 
ATOM     12  C   UNL     1       3.058   6.273  -8.588  0.00  0.00    +0.005 A 
ATOM     13  C   UNL     1       2.093   7.669 -10.304  0.00  0.00    +0.005 A 
ATOM     14  C   UNL     1       3.953   5.748  -9.524  0.00  0.00    +0.000 A 
ATOM     15  C   UNL     1       2.989   7.144 -11.235  0.00  0.00    +0.000 A 
ATOM     16  C   UNL     1       3.917   6.182 -10.845  0.00  0.00    +0.000 A 
ENDBRANCH  10  11
ENDBRANCH   1  10
TORSDOF 2
ENDMDL
MODEL 7
REMARK VINA RESULT:    -5.344     26.221     27.764
REMARK INTER + INTRA:          -5.775
REMARK INTER:                  -5.655
REMARK INTRA:                  -0.120
REMARK UNBOUND:                 0.194
REMARK  Name = 1550473
REMARK  2 active torsions:
REMARK  status: ('A' for Active; 'I' for Inactive)
REMARK    1  A    between atoms: N_1  and  C_4
REMARK    2  A    between atoms: C_4  and  C_5
REMARK                            x       y       z     vdW  Elec       q    Type
REMARK                         _______ _______ _______ _____ _____    ______ ____
ROOT
ATOM      1  N   UNL     1      -7.473  13.873 -20.028  0.00  0.00    -0.354 N 
ATOM      2  N   UNL     1      -9.756  14.115 -20.333  0.00  0.00    -0.372 N 
ATOM      3  N   UNL     1      -8.420  13.795 -22.170  0.00  0.00    -0.372 N 
ATOM      4  C   UNL     1      -8.534  13.926 -20.844  0.00  0.00    +0.166 C 
ATOM      5  H   UNL     1      -7.623  14.010 -19.035  0.00  0.00    +0.163 HD
ATOM      6  H   UNL     1     -10.576  14.155 -20.924  0.00  0.00    +0.159 HD
ATOM      7  H   UNL     1      -9.909  14.205 -19.336  0.00  0.00    +0.159 HD
ATOM      8  H   UNL     1      -7.524  13.656 -22.619  0.00  0.00    +0.159 HD
ATOM      9  H   UNL     1      -9.227  13.844 -22.779  0.00  0.00    +0.159 HD
ENDROOT
BRANCH   1  10
ATOM     10  C   UNL     1      -6.106  13.618 -20.479  0.00  0.00    +0.151 C 
BRANCH  10  11
ATOM     11  C   UNL     1      -5.192  13.591 -19.285  0.00  0.00    -0.028 A 
ATOM     12  C   UNL     1      -3.808  13.750 -19.444  0.00  0.00    +0.005 A 
ATOM     13  C   UNL     1      -5.705  13.413 -17.991  0.00  0.00    +0.005 A 
ATOM     14  C   UNL     1      -2.962  13.755 -18.333  0.00  0.00    +0.000 A 
ATOM     15  C   UNL     1      -4.857  13.418 -16.884  0.00  0.00    +0.000 A 
ATOM     16  C   UNL     1      -3.485  13.592 -17.055  0.00  0.00    +0.000 A 
ENDBRANCH  10  11
ENDBRANCH   1  10
TORSDOF 2
ENDMDL
MODEL 8
REMARK VINA RESULT:    -5.155     17.181     18.320
REMARK INTER + INTRA:          -5.563
REMARK INTER:                  -5.423
REMARK INTRA:                  -0.141
REMARK UNBOUND:                 0.194
REMARK  Name = 1550473
REMARK  2 active torsions:
REMARK  status: ('A' for Active; 'I' for Inactive)
REMARK    1  A    between atoms: N_1  and  C_4
REMARK    2  A    between atoms: C_4  and  C_5
REMARK                            x       y       z     vdW  Elec       q    Type
REMARK                         _______ _______ _______ _____ _____    ______ ____
ROOT
ATOM      1  N   UNL     1      -0.637   5.711 -11.650  0.00  0.00    -0.354 N 
ATOM      2  N   UNL     1      -2.772   5.672 -10.754  0.00  0.00    -0.372 N 
ATOM      3  N   UNL     1      -1.712   3.683 -11.181  0.00  0.00    -0.372 N 
ATOM      4  C   UNL     1      -1.693   5.019 -11.201  0.00  0.00    +0.166 C 
ATOM      5  H   UNL     1      -0.696   6.723 -11.667  0.00  0.00    +0.163 HD
ATOM      6  H   UNL     1      -3.582   5.177 -10.406  0.00  0.00    +0.159 HD
ATOM      7  H   UNL     1      -2.811   6.684 -10.729  0.00  0.00    +0.159 HD
ATOM      8  H   UNL     1      -0.932   3.131 -11.511  0.00  0.00    +0.159 HD
ATOM      9  H   UNL     1      -2.519   3.169 -10.848  0.00  0.00    +0.159 HD
ENDROOT
BRANCH   1  10
ATOM     10  C   UNL     1       0.608   5.097 -12.109  0.00  0.00    +0.151 C 
BRANCH  10  11
ATOM     11  C   UNL     1       1.726   5.509 -11.191  0.00  0.00    -0.028 A 
ATOM     12  C   UNL     1       1.667   5.215  -9.821  0.00  0.00    +0.005 A 
ATOM     13  C   UNL     1       2.850   6.188 -11.687  0.00  0.00    +0.005 A 
ATOM     14  C   UNL     1       2.719   5.570  -8.973  0.00  0.00    +0.000 A 
ATOM     15  C   UNL     1       3.897   6.542 -10.837  0.00  0.00    +0.000 A 
ATOM     16  C   UNL     1       3.833   6.230  -9.481  0.00  0.00    +0.000 A 
ENDBRANCH  10  11
ENDBRANCH   1  10
TORSDOF 2
ENDMDL
MODEL 9
REMARK VINA RESULT:    -5.030     16.979     18.157
REMARK INTER + INTRA:          -5.424
REMARK INTER:                  -5.292
REMARK INTRA:                  -0.132
REMARK UNBOUND:                 0.194
REMARK  Name = 1550473
REMARK  2 active torsions:
REMARK  status: ('A' for Active; 'I' for Inactive)
REMARK    1  A    between atoms: N_1  and  C_4
REMARK    2  A    between atoms: C_4  and  C_5
REMARK                            x       y       z     vdW  Elec       q    Type
REMARK                         _______ _______ _______ _____ _____    ______ ____
ROOT
ATOM      1  N   UNL     1      -1.564 -17.693   7.200  0.00  0.00    -0.354 N 
ATOM      2  N   UNL     1       0.602 -17.099   7.765  0.00  0.00    -0.372 N 
ATOM      3  N   UNL     1      -0.137 -16.696   5.631  0.00  0.00    -0.372 N 
ATOM      4  C   UNL     1      -0.380 -17.166   6.859  0.00  0.00    +0.166 C 
ATOM      5  H   UNL     1      -1.675 -18.059   8.138  0.00  0.00    +0.163 HD
ATOM      6  H   UNL     1       1.505 -16.703   7.538  0.00  0.00    +0.159 HD
ATOM      7  H   UNL     1       0.473 -17.424   8.716  0.00  0.00    +0.159 HD
ATOM      8  H   UNL     1      -0.834 -16.722   4.899  0.00  0.00    +0.159 HD
ATOM      9  H   UNL     1       0.764 -16.307   5.381  0.00  0.00    +0.159 HD
ENDROOT
BRANCH   1  10
ATOM     10  C   UNL     1      -2.716 -17.763   6.303  0.00  0.00    +0.151 C 
BRANCH  10  11
ATOM     11  C   UNL     1      -3.891 -17.094   6.960  0.00  0.00    -0.028 A 
ATOM     12  C   UNL     1      -4.234 -17.398   8.286  0.00  0.00    +0.005 A 
ATOM     13  C   UNL     1      -4.663 -16.151   6.264  0.00  0.00    +0.005 A 
ATOM     14  C   UNL     1      -5.308 -16.754   8.907  0.00  0.00    +0.000 A 
ATOM     15  C   UNL     1      -5.734 -15.511   6.887  0.00  0.00    +0.000 A 
ATOM     16  C   UNL     1      -6.055 -15.811   8.209  0.00  0.00    +0.000 A 
ENDBRANCH  10  11
ENDBRANCH   1  10
TORSDOF 2
ENDMDL
