MODEL 1
REMARK VINA RESULT:    -5.872      0.000      0.000
REMARK INTER + INTRA:          -6.649
REMARK INTER:                  -6.558
REMARK INTRA:                  -0.091
REMARK UNBOUND:                -0.091
REMARK  Name = 1550473
REMARK  2 active torsions:
REMARK  status: ('A' for Active; 'I' for Inactive)
REMARK    1  A    between atoms: N_1  and  C_4
REMARK    2  A    between atoms: C_4  and  C_5
REMARK                            x       y       z     vdW  Elec       q    Type
REMARK                         _______ _______ _______ _____ _____    ______ ____
ROOT
ATOM      1  N   UNL     1      -4.361  -7.944  10.576  0.00  0.00    -0.354 N 
ATOM      2  N   UNL     1      -5.359  -8.537   8.572  0.00  0.00    -0.372 N 
ATOM      3  N   UNL     1      -4.186 -10.127   9.740  0.00  0.00    -0.372 N 
ATOM      4  C   UNL     1      -4.627  -8.868   9.643  0.00  0.00    +0.166 C 
ATOM      5  H   UNL     1      -4.698  -7.000  10.429  0.00  0.00    +0.163 HD
ATOM      6  H   UNL     1      -5.579  -9.213   7.853  0.00  0.00    +0.159 HD
ATOM      7  H   UNL     1      -5.734  -7.604   8.450  0.00  0.00    +0.159 HD
ATOM      8  H   UNL     1      -3.625 -10.439  10.521  0.00  0.00    +0.159 HD
ATOM      9  H   UNL     1      -4.387 -10.815   9.025  0.00  0.00    +0.159 HD
ENDROOT
BRANCH   1  10
ATOM     10  C   UNL     1      -3.619  -8.215  11.806  0.00  0.00    +0.151 C 
BRANCH  10  11
ATOM     11  C   UNL     1      -3.578  -6.965  12.641  0.00  0.00    -0.028 A 
ATOM     12  C   UNL     1      -2.500  -6.074  12.536  0.00  0.00    +0.005 A 
ATOM     13  C   UNL     1      -4.617  -6.662  13.534  0.00  0.00    +0.005 A 
ATOM     14  C   UNL     1      -2.476  -4.898  13.289  0.00  0.00    +0.000 A 
ATOM     15  C   UNL     1      -4.589  -5.487  14.285  0.00  0.00    +0.000 A 
ATOM     16  C   UNL     1      -3.520  -4.604  14.160  0.00  0.00    +0.000 A 
ENDBRANCH  10  11
ENDBRANCH   1  10
TORSDOF 2
ENDMDL
MODEL 2
REMARK VINA RESULT:    -5.325     16.121     16.796
REMARK INTER + INTRA:          -6.038
REMARK INTER:                  -5.910
REMARK INTRA:                  -0.129
REMARK UNBOUND:                -0.091
REMARK  Name = 1550473
REMARK  2 active torsions:
REMARK  status: ('A' for Active; 'I' for Inactive)
REMARK    1  A    between atoms: N_1  and  C_4
REMARK    2  A    between atoms: C_4  and  C_5
REMARK                            x       y       z     vdW  Elec       q    Type
REMARK                         _______ _______ _______ _____ _____    ______ ____
ROOT
ATOM      1  N   UNL     1     -11.559   3.775   0.936  0.00  0.00    -0.354 N 
ATOM      2  N   UNL     1     -13.092   5.503   1.100  0.00  0.00    -0.372 N 
ATOM      3  N   UNL     1     -11.319   5.726  -0.340  0.00  0.00    -0.372 N 
ATOM      4  C   UNL     1     -11.978   4.991   0.562  0.00  0.00    +0.166 C 
ATOM      5  H   UNL     1     -12.087   3.281   1.647  0.00  0.00    +0.163 HD
ATOM      6  H   UNL     1     -13.435   6.417   0.835  0.00  0.00    +0.159 HD
ATOM      7  H   UNL     1     -13.643   4.988   1.776  0.00  0.00    +0.159 HD
ATOM      8  H   UNL     1     -10.469   5.399  -0.778  0.00  0.00    +0.159 HD
ATOM      9  H   UNL     1     -11.640   6.647  -0.609  0.00  0.00    +0.159 HD
ENDROOT
BRANCH   1  10
ATOM     10  C   UNL     1     -10.389   3.104   0.372  0.00  0.00    +0.151 C 
BRANCH  10  11
ATOM     11  C   UNL     1      -9.176   3.467   1.185  0.00  0.00    -0.028 A 
ATOM     12  C   UNL     1      -7.948   3.722   0.556  0.00  0.00    +0.005 A 
ATOM     13  C   UNL     1      -9.250   3.562   2.583  0.00  0.00    +0.005 A 
ATOM     14  C   UNL     1      -6.829   4.088   1.308  0.00  0.00    +0.000 A 
ATOM     15  C   UNL     1      -8.130   3.927   3.330  0.00  0.00    +0.000 A 
ATOM     16  C   UNL     1      -6.921   4.192   2.692  0.00  0.00    +0.000 A 
ENDBRANCH  10  11
ENDBRANCH   1  10
TORSDOF 2
ENDMDL
MODEL 3
REMARK VINA RESULT:    -5.253     15.927     16.605
REMARK INTER + INTRA:          -5.959
REMARK INTER:                  -5.801
REMARK INTRA:                  -0.157
REMARK UNBOUND:                -0.091
REMARK  Name = 1550473
REMARK  2 active torsions:
REMARK  status: ('A' for Active; 'I' for Inactive)
REMARK    1  A    between atoms: N_1  and  C_4
REMARK    2  A    between atoms: C_4  and  C_5
REMARK                            x       y       z     vdW  Elec       q    Type
REMARK                         _______ _______ _______ _____ _____    ______ ____
ROOT
ATOM      1  N   UNL     1      -8.783   3.557   2.236  0.00  0.00    -0.354 N 
ATOM      2  N   UNL     1      -6.816   4.507   3.007  0.00  0.00    -0.372 N 
ATOM      3  N   UNL     1      -8.170   3.401   4.493  0.00  0.00    -0.372 N 
ATOM      4  C   UNL     1      -7.937   3.815   3.243  0.00  0.00    +0.166 C 
ATOM      5  H   UNL     1      -8.564   3.924   1.317  0.00  0.00    +0.163 HD
ATOM      6  H   UNL     1      -6.157   4.714   3.745  0.00  0.00    +0.159 HD
ATOM      7  H   UNL     1      -6.577   4.833   2.078  0.00  0.00    +0.159 HD
ATOM      8  H   UNL     1      -9.001   2.879   4.738  0.00  0.00    +0.159 HD
ATOM      9  H   UNL     1      -7.528   3.609   5.248  0.00  0.00    +0.159 HD
ENDROOT
BRANCH   1  10
ATOM     10  C   UNL     1     -10.004   2.765   2.377  0.00  0.00    +0.151 C 
BRANCH  10  11
ATOM     11  C   UNL     1     -11.190   3.632   2.059  0.00  0.00    -0.028 A 
ATOM     12  C   UNL     1     -11.997   3.354   0.946  0.00  0.00    +0.005 A 
ATOM     13  C   UNL     1     -11.517   4.730   2.870  0.00  0.00    +0.005 A 
ATOM     14  C   UNL     1     -13.117   4.141   0.667  0.00  0.00    +0.000 A 
ATOM     15  C   UNL     1     -12.636   5.513   2.588  0.00  0.00    +0.000 A 
ATOM     16  C   UNL     1     -13.437   5.217   1.488  0.00  0.00    +0.000 A 
ENDBRANCH  10  11
ENDBRANCH   1  10
TORSDOF 2
ENDMDL
MODEL 4
REMARK VINA RESULT:    -5.100      3.929      5.312
REMARK INTER + INTRA:          -5.787
REMARK INTER:                  -5.668
REMARK INTRA:                  -0.119
REMARK UNBOUND:                -0.091
REMARK  Name = 1550473
REMARK  2 active torsions:
REMARK  status: ('A' for Active; 'I' for Inactive)
REMARK    1  A    between atoms: N_1  and  C_4
REMARK    2  A    between atoms: C_4  and  C_5
REMARK                            x       y       z     vdW  Elec       q    Type
REMARK                         _______ _______ _______ _____ _____    ______ ____
ROOT
ATOM      1  N   UNL     1      -7.040  -6.158  15.323  0.00  0.00    -0.354 N 
ATOM      2  N   UNL     1      -9.347  -6.115  15.517  0.00  0.00    -0.372 N 
ATOM      3  N   UNL     1      -8.099  -4.680  16.801  0.00  0.00    -0.372 N 
ATOM      4  C   UNL     1      -8.146  -5.650  15.881  0.00  0.00    +0.166 C 
ATOM      5  H   UNL     1      -7.141  -6.913  14.654  0.00  0.00    +0.163 HD
ATOM      6  H   UNL     1     -10.200  -5.748  15.918  0.00  0.00    +0.159 HD
ATOM      7  H   UNL     1      -9.448  -6.837  14.814  0.00  0.00    +0.159 HD
ATOM      8  H   UNL     1      -7.224  -4.290  17.123  0.00  0.00    +0.159 HD
ATOM      9  H   UNL     1      -8.941  -4.309  17.223  0.00  0.00    +0.159 HD
ENDROOT
BRANCH   1  10
ATOM     10  C   UNL     1      -5.687  -5.685  15.611  0.00  0.00    +0.151 C 
BRANCH  10  11
ATOM     11  C   UNL     1      -4.799  -5.991  14.436  0.00  0.00    -0.028 A 
ATOM     12  C   UNL     1      -3.681  -5.191  14.162  0.00  0.00    +0.005 A 
ATOM     13  C   UNL     1      -5.068  -7.083  13.597  0.00  0.00    +0.005 A 
ATOM     14  C   UNL     1      -2.839  -5.492  13.088  0.00  0.00    +0.000 A 
ATOM     15  C   UNL     1      -4.226  -7.380  12.526  0.00  0.00    +0.000 A 
ATOM     16  C   UNL     1      -3.110  -6.586  12.274  0.00  0.00    +0.000 A 
ENDBRANCH  10  11
ENDBRANCH   1  10
TORSDOF 2
ENDMDL
MODEL 5
REMARK VINA RESULT:    -5.065     27.838     28.749
REMARK INTER + INTRA:          -5.748
REMARK INTER:                  -5.617
REMARK INTRA:                  -0.131
REMARK UNBOUND:                -0.091
REMARK  Name = 1550473
REMARK  2 active torsions:
REMARK  status: ('A' for Active; 'I' for Inactive)
REMARK    1  A    between atoms: N_1  and  C_4
REMARK    2  A    between atoms: C_4  and  C_5
REMARK                            x       y       z     vdW  Elec       q    Type
REMARK                         _______ _______ _______ _____ _____    ______ ____
ROOT
ATOM      1  N   UNL     1      11.227   6.987  -7.813  0.00  0.00    -0.354 N 
ATOM      2  N   UNL     1       8.985   7.445  -7.454  0.00  0.00    -0.372 N 
ATOM      3  N   UNL     1       9.568   6.023  -9.159  0.00  0.00    -0.372 N 
ATOM      4  C   UNL     1       9.941   6.814  -8.147  0.00  0.00    +0.166 C 
ATOM      5  H   UNL     1      11.446   7.623  -7.055  0.00  0.00    +0.163 HD
ATOM      6  H   UNL     1       8.006   7.331  -7.681  0.00  0.00    +0.159 HD
ATOM      7  H   UNL     1       9.204   8.044  -6.668  0.00  0.00    +0.159 HD
ATOM      8  H   UNL     1      10.241   5.523  -9.724  0.00  0.00    +0.159 HD
ATOM      9  H   UNL     1       8.594   5.905  -9.408  0.00  0.00    +0.159 HD
ENDROOT
BRANCH   1  10
ATOM     10  C   UNL     1      12.341   6.304  -8.468  0.00  0.00    +0.151 C 
BRANCH  10  11
ATOM     11  C   UNL     1      13.385   5.969  -7.439  0.00  0.00    -0.028 A 
ATOM     12  C   UNL     1      13.011   5.608  -6.137  0.00  0.00    +0.005 A 
ATOM     13  C   UNL     1      14.750   6.004  -7.763  0.00  0.00    +0.005 A 
ATOM     14  C   UNL     1      13.979   5.267  -5.189  0.00  0.00    +0.000 A 
ATOM     15  C   UNL     1      15.714   5.664  -6.813  0.00  0.00    +0.000 A 
ATOM     16  C   UNL     1      15.328   5.293  -5.528  0.00  0.00    +0.000 A 
ENDBRANCH  10  11
ENDBRANCH   1  10
TORSDOF 2
ENDMDL
MODEL 6
REMARK VINA RESULT:    -5.043      2.107      2.908
REMARK INTER + INTRA:          -5.723
REMARK INTER:                  -5.614
REMARK INTRA:                  -0.110
REMARK UNBOUND:                -0.091
REMARK  Name = 1550473
REMARK  2 active torsions:
REMARK  status: ('A' for Active; 'I' for Inactive)
REMARK    1  A    between atoms: N_1  and  C_4
REMARK    2  A    between atoms: C_4  and  C_5
REMARK                            x       y       z     vdW  Elec       q    Type
REMARK                         _______ _______ _______ _____ _____    ______ ____
ROOT
ATOM      1  N   UNL     1      -5.776  -8.004  11.746  0.00  0.00    -0.354 N 
ATOM      2  N   UNL     1      -5.869  -8.336   9.455  0.00  0.00    -0.372 N 
ATOM      3  N   UNL     1      -3.877  -8.668  10.544  0.00  0.00    -0.372 N 
ATOM      4  C   UNL     1      -5.171  -8.334  10.597  0.00  0.00    +0.166 C 
ATOM      5  H   UNL     1      -6.752  -7.731  11.714  0.00  0.00    +0.163 HD
ATOM      6  H   UNL     1      -5.440  -8.585   8.574  0.00  0.00    +0.159 HD
ATOM      7  H   UNL     1      -6.856  -8.108   9.434  0.00  0.00    +0.159 HD
ATOM      8  H   UNL     1      -3.293  -8.680  11.370  0.00  0.00    +0.159 HD
ATOM      9  H   UNL     1      -3.427  -8.908   9.670  0.00  0.00    +0.159 HD
ENDROOT
BRANCH   1  10
ATOM     10  C   UNL     1      -5.119  -8.022  13.051  0.00  0.00    +0.151 C 
BRANCH  10  11
ATOM     11  C   UNL     1      -5.921  -7.194  14.017  0.00  0.00    -0.028 A 
ATOM     12  C   UNL     1      -5.280  -6.332  14.919  0.00  0.00    +0.005 A 
ATOM     13  C   UNL     1      -7.323  -7.262  14.030  0.00  0.00    +0.005 A 
ATOM     14  C   UNL     1      -6.026  -5.540  15.795  0.00  0.00    +0.000 A 
ATOM     15  C   UNL     1      -8.064  -6.470  14.907  0.00  0.00    +0.000 A 
ATOM     16  C   UNL     1      -7.415  -5.608  15.788  0.00  0.00    +0.000 A 
ENDBRANCH  10  11
ENDBRANCH   1  10
TORSDOF 2
ENDMDL
MODEL 7
REMARK VINA RESULT:    -5.002     27.871     28.746
REMARK INTER + INTRA:          -5.678
REMARK INTER:                  -5.552
REMARK INTRA:                  -0.126
REMARK UNBOUND:                -0.091
REMARK  Name = 1550473
REMARK  2 active torsions:
REMARK  status: ('A' for Active; 'I' for Inactive)
REMARK    1  A    between atoms: N_1  and  C_4
REMARK    2  A    between atoms: C_4  and  C_5
REMARK                            x       y       z     vdW  Elec       q    Type
REMARK                         _______ _______ _______ _____ _____    ______ ____
ROOT
ATOM      1  N   UNL     1      11.329   6.880  -7.844  0.00  0.00    -0.354 N 
ATOM      2  N   UNL     1       9.115   7.474  -7.520  0.00  0.00    -0.372 N 
ATOM      3  N   UNL     1       9.628   5.968  -9.174  0.00  0.00    -0.372 N 
ATOM      4  C   UNL     1      10.038   6.769  -8.184  0.00  0.00    +0.166 C 
ATOM      5  H   UNL     1      11.579   7.527  -7.105  0.00  0.00    +0.163 HD
ATOM      6  H   UNL     1       8.132   7.409  -7.752  0.00  0.00    +0.159 HD
ATOM      7  H   UNL     1       9.362   8.085  -6.751  0.00  0.00    +0.159 HD
ATOM      8  H   UNL     1      10.276   5.414  -9.717  0.00  0.00    +0.159 HD
ATOM      9  H   UNL     1       8.651   5.898  -9.428  0.00  0.00    +0.159 HD
ENDROOT
BRANCH   1  10
ATOM     10  C   UNL     1      12.408   6.115  -8.468  0.00  0.00    +0.151 C 
BRANCH  10  11
ATOM     11  C   UNL     1      13.467   5.830  -7.439  0.00  0.00    -0.028 A 
ATOM     12  C   UNL     1      14.826   5.957  -7.762  0.00  0.00    +0.005 A 
ATOM     13  C   UNL     1      13.118   5.438  -6.138  0.00  0.00    +0.005 A 
ATOM     14  C   UNL     1      15.809   5.721  -6.798  0.00  0.00    +0.000 A 
ATOM     15  C   UNL     1      14.102   5.204  -5.178  0.00  0.00    +0.000 A 
ATOM     16  C   UNL     1      15.448   5.348  -5.508  0.00  0.00    +0.000 A 
ENDBRANCH  10  11
ENDBRANCH   1  10
TORSDOF 2
ENDMDL
MODEL 8
REMARK VINA RESULT:    -4.971     15.833     16.469
REMARK INTER + INTRA:          -5.643
REMARK INTER:                  -5.503
REMARK INTRA:                  -0.140
REMARK UNBOUND:                -0.091
REMARK  Name = 1550473
REMARK  2 active torsions:
REMARK  status: ('A' for Active; 'I' for Inactive)
REMARK    1  A    between atoms: N_1  and  C_4
REMARK    2  A    between atoms: C_4  and  C_5
REMARK                            x       y       z     vdW  Elec       q    Type
REMARK                         _______ _______ _______ _____ _____    ______ ____
ROOT
ATOM      1  N   UNL     1      -9.832   4.019  -0.235  0.00  0.00    -0.354 N 
ATOM      2  N   UNL     1     -10.228   3.621  -2.482  0.00  0.00    -0.372 N 
ATOM      3  N   UNL     1      -9.578   5.721  -1.825  0.00  0.00    -0.372 N 
ATOM      4  C   UNL     1      -9.876   4.459  -1.500  0.00  0.00    +0.166 C 
ATOM      5  H   UNL     1     -10.099   3.059  -0.050  0.00  0.00    +0.163 HD
ATOM      6  H   UNL     1     -10.266   3.924  -3.446  0.00  0.00    +0.159 HD
ATOM      7  H   UNL     1     -10.449   2.650  -2.300  0.00  0.00    +0.159 HD
ATOM      8  H   UNL     1      -9.311   6.405  -1.130  0.00  0.00    +0.159 HD
ATOM      9  H   UNL     1      -9.622   6.046  -2.783  0.00  0.00    +0.159 HD
ENDROOT
BRANCH   1  10
ATOM     10  C   UNL     1      -9.411   4.836   0.901  0.00  0.00    +0.151 C 
BRANCH  10  11
ATOM     11  C   UNL     1      -8.367   4.088   1.684  0.00  0.00    -0.028 A 
ATOM     12  C   UNL     1      -7.167   3.693   1.074  0.00  0.00    +0.005 A 
ATOM     13  C   UNL     1      -8.569   3.777   3.037  0.00  0.00    +0.005 A 
ATOM     14  C   UNL     1      -6.185   3.025   1.808  0.00  0.00    +0.000 A 
ATOM     15  C   UNL     1      -7.586   3.109   3.766  0.00  0.00    +0.000 A 
ATOM     16  C   UNL     1      -6.393   2.735   3.152  0.00  0.00    +0.000 A 
ENDBRANCH  10  11
ENDBRANCH   1  10
TORSDOF 2
ENDMDL
MODEL 9
REMARK VINA RESULT:    -4.894     16.407     17.279
REMARK INTER + INTRA:          -5.558
REMARK INTER:                  -5.427
REMARK INTRA:                  -0.130
REMARK UNBOUND:                -0.091
REMARK  Name = 1550473
REMARK  2 active torsions:
REMARK  status: ('A' for Active; 'I' for Inactive)
REMARK    1  A    between atoms: N_1  and  C_4
REMARK    2  A    between atoms: C_4  and  C_5
REMARK                            x       y       z     vdW  Elec       q    Type
REMARK                         _______ _______ _______ _____ _____    ______ ____
ROOT
ATOM      1  N   UNL     1     -11.781   2.540   0.071  0.00  0.00    -0.354 N 
ATOM      2  N   UNL     1     -13.974   2.864   0.743  0.00  0.00    -0.372 N 
ATOM      3  N   UNL     1     -13.288   3.739  -1.264  0.00  0.00    -0.372 N 
ATOM      4  C   UNL     1     -13.000   3.047  -0.157  0.00  0.00    +0.166 C 
ATOM      5  H   UNL     1     -11.619   2.052   0.944  0.00  0.00    +0.163 HD
ATOM      6  H   UNL     1     -14.904   3.231   0.596  0.00  0.00    +0.159 HD
ATOM      7  H   UNL     1     -13.821   2.335   1.593  0.00  0.00    +0.159 HD
ATOM      8  H   UNL     1     -12.596   3.917  -1.980  0.00  0.00    +0.159 HD
ATOM      9  H   UNL     1     -14.210   4.125  -1.423  0.00  0.00    +0.159 HD
ENDROOT
BRANCH   1  10
ATOM     10  C   UNL     1     -10.666   2.638  -0.869  0.00  0.00    +0.151 C 
BRANCH  10  11
ATOM     11  C   UNL     1      -9.481   3.240  -0.165  0.00  0.00    -0.028 A 
ATOM     12  C   UNL     1      -8.670   2.452   0.664  0.00  0.00    +0.005 A 
ATOM     13  C   UNL     1      -9.162   4.597  -0.329  0.00  0.00    +0.005 A 
ATOM     14  C   UNL     1      -7.551   3.004   1.294  0.00  0.00    +0.000 A 
ATOM     15  C   UNL     1      -8.045   5.144   0.303  0.00  0.00    +0.000 A 
ATOM     16  C   UNL     1      -7.239   4.347   1.112  0.00  0.00    +0.000 A 
ENDBRANCH  10  11
ENDBRANCH   1  10
TORSDOF 2
ENDMDL
