MODEL 1
REMARK VINA RESULT:    -5.845      0.000      0.000
REMARK INTER + INTRA:          -6.704
REMARK INTER:                  -6.528
REMARK INTRA:                  -0.176
REMARK UNBOUND:                -0.176
REMARK  Name = 1550473
REMARK  2 active torsions:
REMARK  status: ('A' for Active; 'I' for Inactive)
REMARK    1  A    between atoms: N_1  and  C_4
REMARK    2  A    between atoms: C_4  and  C_5
REMARK                            x       y       z     vdW  Elec       q    Type
REMARK                         _______ _______ _______ _____ _____    ______ ____
ROOT
ATOM      1  N   UNL     1      -0.749   1.940  10.503  0.00  0.00    -0.354 N 
ATOM      2  N   UNL     1       0.998   0.933  11.641  0.00  0.00    -0.372 N 
ATOM      3  N   UNL     1       1.252   3.091  10.903  0.00  0.00    -0.372 N 
ATOM      4  C   UNL     1       0.490   1.997  11.007  0.00  0.00    +0.166 C 
ATOM      5  H   UNL     1      -1.265   1.072  10.588  0.00  0.00    +0.163 HD
ATOM      6  H   UNL     1       1.929   0.947  12.035  0.00  0.00    +0.159 HD
ATOM      7  H   UNL     1       0.464   0.082  11.765  0.00  0.00    +0.159 HD
ATOM      8  H   UNL     1       0.930   3.925  10.432  0.00  0.00    +0.159 HD
ATOM      9  H   UNL     1       2.191   3.121  11.281  0.00  0.00    +0.159 HD
ENDROOT
BRANCH   1  10
ATOM     10  C   UNL     1      -1.416   3.062   9.842  0.00  0.00    +0.151 C 
BRANCH  10  11
ATOM     11  C   UNL     1      -1.435   2.817   8.359  0.00  0.00    -0.028 A 
ATOM     12  C   UNL     1      -0.363   3.232   7.555  0.00  0.00    +0.005 A 
ATOM     13  C   UNL     1      -2.519   2.165   7.752  0.00  0.00    +0.005 A 
ATOM     14  C   UNL     1      -0.367   2.978   6.181  0.00  0.00    +0.000 A 
ATOM     15  C   UNL     1      -2.520   1.914   6.380  0.00  0.00    +0.000 A 
ATOM     16  C   UNL     1      -1.442   2.319   5.595  0.00  0.00    +0.000 A 
ENDBRANCH  10  11
ENDBRANCH   1  10
TORSDOF 2
ENDMDL
MODEL 2
REMARK VINA RESULT:    -5.563     21.042     22.853
REMARK INTER + INTRA:          -6.389
REMARK INTER:                  -6.282
REMARK INTRA:                  -0.108
REMARK UNBOUND:                -0.176
REMARK  Name = 1550473
REMARK  2 active torsions:
REMARK  status: ('A' for Active; 'I' for Inactive)
REMARK    1  A    between atoms: N_1  and  C_4
REMARK    2  A    between atoms: C_4  and  C_5
REMARK                            x       y       z     vdW  Elec       q    Type
REMARK                         _______ _______ _______ _____ _____    ______ ____
ROOT
ATOM      1  N   UNL     1     -11.986  -1.231  -9.491  0.00  0.00    -0.354 N 
ATOM      2  N   UNL     1     -12.487  -0.167  -7.496  0.00  0.00    -0.372 N 
ATOM      3  N   UNL     1     -12.066   1.107  -9.357  0.00  0.00    -0.372 N 
ATOM      4  C   UNL     1     -12.176  -0.101  -8.796  0.00  0.00    +0.166 C 
ATOM      5  H   UNL     1     -12.055  -2.115  -9.000  0.00  0.00    +0.163 HD
ATOM      6  H   UNL     1     -12.639   0.669  -6.946  0.00  0.00    +0.159 HD
ATOM      7  H   UNL     1     -12.600  -1.053  -7.018  0.00  0.00    +0.159 HD
ATOM      8  H   UNL     1     -11.827   1.225 -10.333  0.00  0.00    +0.159 HD
ATOM      9  H   UNL     1     -12.203   1.955  -8.821  0.00  0.00    +0.159 HD
ENDROOT
BRANCH   1  10
ATOM     10  C   UNL     1     -11.697  -1.271 -10.923  0.00  0.00    +0.151 C 
BRANCH  10  11
ATOM     11  C   UNL     1     -11.449  -2.696 -11.334  0.00  0.00    -0.028 A 
ATOM     12  C   UNL     1     -12.066  -3.225 -12.478  0.00  0.00    +0.005 A 
ATOM     13  C   UNL     1     -10.594  -3.522 -10.588  0.00  0.00    +0.005 A 
ATOM     14  C   UNL     1     -11.813  -4.539 -12.877  0.00  0.00    +0.000 A 
ATOM     15  C   UNL     1     -10.345  -4.834 -10.990  0.00  0.00    +0.000 A 
ATOM     16  C   UNL     1     -10.952  -5.341 -12.135  0.00  0.00    +0.000 A 
ENDBRANCH  10  11
ENDBRANCH   1  10
TORSDOF 2
ENDMDL
MODEL 3
REMARK VINA RESULT:    -5.428      2.975      3.608
REMARK INTER + INTRA:          -6.239
REMARK INTER:                  -6.139
REMARK INTRA:                  -0.100
REMARK UNBOUND:                -0.176
REMARK  Name = 1550473
REMARK  2 active torsions:
REMARK  status: ('A' for Active; 'I' for Inactive)
REMARK    1  A    between atoms: N_1  and  C_4
REMARK    2  A    between atoms: C_4  and  C_5
REMARK                            x       y       z     vdW  Elec       q    Type
REMARK                         _______ _______ _______ _____ _____    ______ ____
ROOT
ATOM      1  N   UNL     1      -3.676   4.397   9.386  0.00  0.00    -0.354 N 
ATOM      2  N   UNL     1      -4.816   6.277  10.114  0.00  0.00    -0.372 N 
ATOM      3  N   UNL     1      -3.462   5.160  11.591  0.00  0.00    -0.372 N 
ATOM      4  C   UNL     1      -3.976   5.265  10.361  0.00  0.00    +0.166 C 
ATOM      5  H   UNL     1      -4.122   4.514   8.483  0.00  0.00    +0.163 HD
ATOM      6  H   UNL     1      -5.058   6.949  10.829  0.00  0.00    +0.159 HD
ATOM      7  H   UNL     1      -5.225   6.418   9.198  0.00  0.00    +0.159 HD
ATOM      8  H   UNL     1      -2.826   4.415  11.844  0.00  0.00    +0.159 HD
ATOM      9  H   UNL     1      -3.701   5.816  12.324  0.00  0.00    +0.159 HD
ENDROOT
BRANCH   1  10
ATOM     10  C   UNL     1      -2.730   3.292   9.537  0.00  0.00    +0.151 C 
BRANCH  10  11
ATOM     11  C   UNL     1      -2.060   3.036   8.215  0.00  0.00    -0.028 A 
ATOM     12  C   UNL     1      -0.707   3.356   8.030  0.00  0.00    +0.005 A 
ATOM     13  C   UNL     1      -2.770   2.468   7.147  0.00  0.00    +0.005 A 
ATOM     14  C   UNL     1      -0.075   3.090   6.812  0.00  0.00    +0.000 A 
ATOM     15  C   UNL     1      -2.136   2.205   5.932  0.00  0.00    +0.000 A 
ATOM     16  C   UNL     1      -0.788   2.514   5.766  0.00  0.00    +0.000 A 
ENDBRANCH  10  11
ENDBRANCH   1  10
TORSDOF 2
ENDMDL
MODEL 4
REMARK VINA RESULT:    -5.396      3.128      6.348
REMARK INTER + INTRA:          -6.203
REMARK INTER:                  -6.069
REMARK INTRA:                  -0.134
REMARK UNBOUND:                -0.176
REMARK  Name = 1550473
REMARK  2 active torsions:
REMARK  status: ('A' for Active; 'I' for Inactive)
REMARK    1  A    between atoms: N_1  and  C_4
REMARK    2  A    between atoms: C_4  and  C_5
REMARK                            x       y       z     vdW  Elec       q    Type
REMARK                         _______ _______ _______ _____ _____    ______ ____
ROOT
ATOM      1  N   UNL     1       0.783   1.410  10.901  0.00  0.00    -0.354 N 
ATOM      2  N   UNL     1      -0.045   2.165   8.874  0.00  0.00    -0.372 N 
ATOM      3  N   UNL     1      -0.974   2.959  10.816  0.00  0.00    -0.372 N 
ATOM      4  C   UNL     1      -0.075   2.174  10.212  0.00  0.00    +0.166 C 
ATOM      5  H   UNL     1       1.420   0.815  10.384  0.00  0.00    +0.163 HD
ATOM      6  H   UNL     1      -0.678   2.734   8.328  0.00  0.00    +0.159 HD
ATOM      7  H   UNL     1       0.623   1.604   8.360  0.00  0.00    +0.159 HD
ATOM      8  H   UNL     1      -1.052   3.006  11.824  0.00  0.00    +0.159 HD
ATOM      9  H   UNL     1      -1.624   3.526  10.287  0.00  0.00    +0.159 HD
ENDROOT
BRANCH   1  10
ATOM     10  C   UNL     1       0.869   1.388  12.360  0.00  0.00    +0.151 C 
BRANCH  10  11
ATOM     11  C   UNL     1       2.298   1.608  12.772  0.00  0.00    -0.028 A 
ATOM     12  C   UNL     1       3.175   2.327  11.946  0.00  0.00    +0.005 A 
ATOM     13  C   UNL     1       2.781   1.105  13.990  0.00  0.00    +0.005 A 
ATOM     14  C   UNL     1       4.495   2.557  12.341  0.00  0.00    +0.000 A 
ATOM     15  C   UNL     1       4.100   1.336  14.380  0.00  0.00    +0.000 A 
ATOM     16  C   UNL     1       4.956   2.064  13.557  0.00  0.00    +0.000 A 
ENDBRANCH  10  11
ENDBRANCH   1  10
TORSDOF 2
ENDMDL
MODEL 5
REMARK VINA RESULT:    -5.308      1.956      2.629
REMARK INTER + INTRA:          -6.105
REMARK INTER:                  -5.995
REMARK INTRA:                  -0.109
REMARK UNBOUND:                -0.176
REMARK  Name = 1550473
REMARK  2 active torsions:
REMARK  status: ('A' for Active; 'I' for Inactive)
REMARK    1  A    between atoms: N_1  and  C_4
REMARK    2  A    between atoms: C_4  and  C_5
REMARK                            x       y       z     vdW  Elec       q    Type
REMARK                         _______ _______ _______ _____ _____    ______ ____
ROOT
ATOM      1  N   UNL     1      -1.921   3.321  10.571  0.00  0.00    -0.354 N 
ATOM      2  N   UNL     1      -1.431   3.201  12.831  0.00  0.00    -0.372 N 
ATOM      3  N   UNL     1      -3.196   4.496  12.147  0.00  0.00    -0.372 N 
ATOM      4  C   UNL     1      -2.188   3.675  11.835  0.00  0.00    +0.166 C 
ATOM      5  H   UNL     1      -1.124   2.719  10.398  0.00  0.00    +0.163 HD
ATOM      6  H   UNL     1      -1.610   3.448  13.795  0.00  0.00    +0.159 HD
ATOM      7  H   UNL     1      -0.663   2.563  12.659  0.00  0.00    +0.159 HD
ATOM      8  H   UNL     1      -3.801   4.894  11.441  0.00  0.00    +0.159 HD
ATOM      9  H   UNL     1      -3.384   4.765  13.105  0.00  0.00    +0.159 HD
ENDROOT
BRANCH   1  10
ATOM     10  C   UNL     1      -2.718   3.739   9.419  0.00  0.00    +0.151 C 
BRANCH  10  11
ATOM     11  C   UNL     1      -2.038   3.280   8.159  0.00  0.00    -0.028 A 
ATOM     12  C   UNL     1      -2.775   2.672   7.132  0.00  0.00    +0.005 A 
ATOM     13  C   UNL     1      -0.657   3.456   7.982  0.00  0.00    +0.005 A 
ATOM     14  C   UNL     1      -2.149   2.273   5.949  0.00  0.00    +0.000 A 
ATOM     15  C   UNL     1      -0.035   3.056   6.800  0.00  0.00    +0.000 A 
ATOM     16  C   UNL     1      -0.782   2.466   5.782  0.00  0.00    +0.000 A 
ENDBRANCH  10  11
ENDBRANCH   1  10
TORSDOF 2
ENDMDL
MODEL 6
REMARK VINA RESULT:    -5.068     20.288     21.449
REMARK INTER + INTRA:          -5.837
REMARK INTER:                  -5.706
REMARK INTRA:                  -0.131
REMARK UNBOUND:                -0.176
REMARK  Name = 1550473
REMARK  2 active torsions:
REMARK  status: ('A' for Active; 'I' for Inactive)
REMARK    1  A    between atoms: N_1  and  C_4
REMARK    2  A    between atoms: C_4  and  C_5
REMARK                            x       y       z     vdW  Elec       q    Type
REMARK                         _______ _______ _______ _____ _____    ______ ____
ROOT
ATOM      1  N   UNL     1     -12.901   0.902  -8.213  0.00  0.00    -0.354 N 
ATOM      2  N   UNL     1     -13.116   2.598  -6.650  0.00  0.00    -0.372 N 
ATOM      3  N   UNL     1     -13.162   3.133  -8.881  0.00  0.00    -0.372 N 
ATOM      4  C   UNL     1     -13.058   2.201  -7.927  0.00  0.00    +0.166 C 
ATOM      5  H   UNL     1     -12.798   0.249  -7.444  0.00  0.00    +0.163 HD
ATOM      6  H   UNL     1     -13.237   3.571  -6.404  0.00  0.00    +0.159 HD
ATOM      7  H   UNL     1     -13.059   1.938  -5.884  0.00  0.00    +0.159 HD
ATOM      8  H   UNL     1     -13.121   2.900  -9.864  0.00  0.00    +0.159 HD
ATOM      9  H   UNL     1     -13.273   4.113  -8.654  0.00  0.00    +0.159 HD
ENDROOT
BRANCH   1  10
ATOM     10  C   UNL     1     -12.880   0.360  -9.570  0.00  0.00    +0.151 C 
BRANCH  10  11
ATOM     11  C   UNL     1     -11.968  -0.836  -9.607  0.00  0.00    -0.028 A 
ATOM     12  C   UNL     1     -12.108  -1.807 -10.609  0.00  0.00    +0.005 A 
ATOM     13  C   UNL     1     -10.958  -1.000  -8.647  0.00  0.00    +0.005 A 
ATOM     14  C   UNL     1     -11.242  -2.902 -10.662  0.00  0.00    +0.000 A 
ATOM     15  C   UNL     1     -10.096  -2.095  -8.703  0.00  0.00    +0.000 A 
ATOM     16  C   UNL     1     -10.237  -3.044  -9.712  0.00  0.00    +0.000 A 
ENDBRANCH  10  11
ENDBRANCH   1  10
TORSDOF 2
ENDMDL
MODEL 7
REMARK VINA RESULT:    -4.967      3.556      4.822
REMARK INTER + INTRA:          -5.724
REMARK INTER:                  -5.589
REMARK INTRA:                  -0.135
REMARK UNBOUND:                -0.176
REMARK  Name = 1550473
REMARK  2 active torsions:
REMARK  status: ('A' for Active; 'I' for Inactive)
REMARK    1  A    between atoms: N_1  and  C_4
REMARK    2  A    between atoms: C_4  and  C_5
REMARK                            x       y       z     vdW  Elec       q    Type
REMARK                         _______ _______ _______ _____ _____    ______ ____
ROOT
ATOM      1  N   UNL     1      -4.698   4.145   8.694  0.00  0.00    -0.354 N 
ATOM      2  N   UNL     1      -6.655   5.307   8.267  0.00  0.00    -0.372 N 
ATOM      3  N   UNL     1      -6.700   3.013   8.244  0.00  0.00    -0.372 N 
ATOM      4  C   UNL     1      -6.006   4.145   8.404  0.00  0.00    +0.166 C 
ATOM      5  H   UNL     1      -4.222   5.037   8.773  0.00  0.00    +0.163 HD
ATOM      6  H   UNL     1      -7.643   5.339   8.051  0.00  0.00    +0.159 HD
ATOM      7  H   UNL     1      -6.187   6.197   8.391  0.00  0.00    +0.159 HD
ATOM      8  H   UNL     1      -6.267   2.103   8.329  0.00  0.00    +0.159 HD
ATOM      9  H   UNL     1      -7.686   3.024   8.017  0.00  0.00    +0.159 HD
ENDROOT
BRANCH   1  10
ATOM     10  C   UNL     1      -3.910   2.934   8.917  0.00  0.00    +0.151 C 
BRANCH  10  11
ATOM     11  C   UNL     1      -2.683   2.980   8.049  0.00  0.00    -0.028 A 
ATOM     12  C   UNL     1      -1.453   3.403   8.575  0.00  0.00    +0.005 A 
ATOM     13  C   UNL     1      -2.742   2.596   6.700  0.00  0.00    +0.005 A 
ATOM     14  C   UNL     1      -0.307   3.416   7.776  0.00  0.00    +0.000 A 
ATOM     15  C   UNL     1      -1.596   2.612   5.906  0.00  0.00    +0.000 A 
ATOM     16  C   UNL     1      -0.378   3.019   6.445  0.00  0.00    +0.000 A 
ENDBRANCH  10  11
ENDBRANCH   1  10
TORSDOF 2
ENDMDL
MODEL 8
REMARK VINA RESULT:    -4.664      3.281      4.622
REMARK INTER + INTRA:          -5.386
REMARK INTER:                  -5.229
REMARK INTRA:                  -0.156
REMARK UNBOUND:                -0.176
REMARK  Name = 1550473
REMARK  2 active torsions:
REMARK  status: ('A' for Active; 'I' for Inactive)
REMARK    1  A    between atoms: N_1  and  C_4
REMARK    2  A    between atoms: C_4  and  C_5
REMARK                            x       y       z     vdW  Elec       q    Type
REMARK                         _______ _______ _______ _____ _____    ______ ____
ROOT
ATOM      1  N   UNL     1      -2.221   2.725   7.281  0.00  0.00    -0.354 N 
ATOM      2  N   UNL     1      -0.948   3.395   5.466  0.00  0.00    -0.372 N 
ATOM      3  N   UNL     1       0.016   3.371   7.548  0.00  0.00    -0.372 N 
ATOM      4  C   UNL     1      -1.058   3.160   6.779  0.00  0.00    +0.166 C 
ATOM      5  H   UNL     1      -3.006   2.614   6.650  0.00  0.00    +0.163 HD
ATOM      6  H   UNL     1      -0.082   3.720   5.058  0.00  0.00    +0.159 HD
ATOM      7  H   UNL     1      -1.721   3.239   4.830  0.00  0.00    +0.159 HD
ATOM      8  H   UNL     1      -0.003   3.218   8.548  0.00  0.00    +0.159 HD
ATOM      9  H   UNL     1       0.888   3.708   7.160  0.00  0.00    +0.159 HD
ENDROOT
BRANCH   1  10
ATOM     10  C   UNL     1      -2.430   2.388   8.688  0.00  0.00    +0.151 C 
BRANCH  10  11
ATOM     11  C   UNL     1      -3.409   3.360   9.286  0.00  0.00    -0.028 A 
ATOM     12  C   UNL     1      -2.979   4.331  10.203  0.00  0.00    +0.005 A 
ATOM     13  C   UNL     1      -4.767   3.319   8.936  0.00  0.00    +0.005 A 
ATOM     14  C   UNL     1      -3.883   5.253  10.736  0.00  0.00    +0.000 A 
ATOM     15  C   UNL     1      -5.667   4.241   9.471  0.00  0.00    +0.000 A 
ATOM     16  C   UNL     1      -5.224   5.209  10.369  0.00  0.00    +0.000 A 
ENDBRANCH  10  11
ENDBRANCH   1  10
TORSDOF 2
ENDMDL
MODEL 9
REMARK VINA RESULT:    -4.367     26.744     27.607
REMARK INTER + INTRA:          -5.054
REMARK INTER:                  -4.927
REMARK INTRA:                  -0.127
REMARK UNBOUND:                -0.176
REMARK  Name = 1550473
REMARK  2 active torsions:
REMARK  status: ('A' for Active; 'I' for Inactive)
REMARK    1  A    between atoms: N_1  and  C_4
REMARK    2  A    between atoms: C_4  and  C_5
REMARK                            x       y       z     vdW  Elec       q    Type
REMARK                         _______ _______ _______ _____ _____    ______ ____
ROOT
ATOM      1  N   UNL     1      -1.844  -7.818 -17.102  0.00  0.00    -0.354 N 
ATOM      2  N   UNL     1      -1.331  -5.597 -17.509  0.00  0.00    -0.372 N 
ATOM      3  N   UNL     1      -0.217  -6.703 -15.836  0.00  0.00    -0.372 N 
ATOM      4  C   UNL     1      -1.133  -6.721 -16.811  0.00  0.00    +0.166 C 
ATOM      5  H   UNL     1      -2.544  -7.758 -17.833  0.00  0.00    +0.163 HD
ATOM      6  H   UNL     1      -0.807  -4.754 -17.315  0.00  0.00    +0.159 HD
ATOM      7  H   UNL     1      -1.999  -5.552 -18.269  0.00  0.00    +0.159 HD
ATOM      8  H   UNL     1      -0.024  -7.517 -15.268  0.00  0.00    +0.159 HD
ATOM      9  H   UNL     1       0.309  -5.866 -15.618  0.00  0.00    +0.159 HD
ENDROOT
BRANCH   1  10
ATOM     10  C   UNL     1      -1.666  -9.108 -16.437  0.00  0.00    +0.151 C 
BRANCH  10  11
ATOM     11  C   UNL     1      -3.013  -9.643 -16.035  0.00  0.00    -0.028 A 
ATOM     12  C   UNL     1      -4.106  -9.549 -16.908  0.00  0.00    +0.005 A 
ATOM     13  C   UNL     1      -3.201 -10.250 -14.783  0.00  0.00    +0.005 A 
ATOM     14  C   UNL     1      -5.350 -10.072 -16.547  0.00  0.00    +0.000 A 
ATOM     15  C   UNL     1      -4.444 -10.770 -14.426  0.00  0.00    +0.000 A 
ATOM     16  C   UNL     1      -5.518 -10.684 -15.309  0.00  0.00    +0.000 A 
ENDBRANCH  10  11
ENDBRANCH   1  10
TORSDOF 2
ENDMDL
