MODEL 1
REMARK VINA RESULT:    -4.423      0.000      0.000
REMARK INTER + INTRA:          -5.078
REMARK INTER:                  -4.940
REMARK INTRA:                  -0.139
REMARK UNBOUND:                -0.139
REMARK  Name = 1550473
REMARK  2 active torsions:
REMARK  status: ('A' for Active; 'I' for Inactive)
REMARK    1  A    between atoms: N_1  and  C_4
REMARK    2  A    between atoms: C_4  and  C_5
REMARK                            x       y       z     vdW  Elec       q    Type
REMARK                         _______ _______ _______ _____ _____    ______ ____
ROOT
ATOM      1  N   UNL     1       9.012  -3.414 -13.961  0.00  0.00    -0.354 N 
ATOM      2  N   UNL     1       9.208  -5.721 -14.018  0.00  0.00    -0.372 N 
ATOM      3  N   UNL     1      10.568  -4.527 -12.607  0.00  0.00    -0.372 N 
ATOM      4  C   UNL     1       9.597  -4.538 -13.526  0.00  0.00    +0.166 C 
ATOM      5  H   UNL     1       8.302  -3.488 -14.681  0.00  0.00    +0.163 HD
ATOM      6  H   UNL     1       9.629  -6.587 -13.707  0.00  0.00    +0.159 HD
ATOM      7  H   UNL     1       8.467  -5.796 -14.704  0.00  0.00    +0.159 HD
ATOM      8  H   UNL     1      10.911  -3.667 -12.201  0.00  0.00    +0.159 HD
ATOM      9  H   UNL     1      11.010  -5.382 -12.292  0.00  0.00    +0.159 HD
ENDROOT
BRANCH   1  10
ATOM     10  C   UNL     1       9.324  -2.080 -13.450  0.00  0.00    +0.151 C 
BRANCH  10  11
ATOM     11  C   UNL     1       8.041  -1.365 -13.128  0.00  0.00    -0.028 A 
ATOM     12  C   UNL     1       7.996   0.036 -13.094  0.00  0.00    +0.005 A 
ATOM     13  C   UNL     1       6.865  -2.083 -12.861  0.00  0.00    +0.005 A 
ATOM     14  C   UNL     1       6.798   0.702 -12.824  0.00  0.00    +0.000 A 
ATOM     15  C   UNL     1       5.671  -1.415 -12.591  0.00  0.00    +0.000 A 
ATOM     16  C   UNL     1       5.637  -0.023 -12.575  0.00  0.00    +0.000 A 
ENDBRANCH  10  11
ENDBRANCH   1  10
TORSDOF 2
ENDMDL
MODEL 2
REMARK VINA RESULT:    -4.355     14.198     15.212
REMARK INTER + INTRA:          -5.003
REMARK INTER:                  -4.884
REMARK INTRA:                  -0.119
REMARK UNBOUND:                -0.139
REMARK  Name = 1550473
REMARK  2 active torsions:
REMARK  status: ('A' for Active; 'I' for Inactive)
REMARK    1  A    between atoms: N_1  and  C_4
REMARK    2  A    between atoms: C_4  and  C_5
REMARK                            x       y       z     vdW  Elec       q    Type
REMARK                         _______ _______ _______ _____ _____    ______ ____
ROOT
ATOM      1  N   UNL     1      -6.462   1.949  -8.886  0.00  0.00    -0.354 N 
ATOM      2  N   UNL     1      -5.403   2.429  -6.883  0.00  0.00    -0.372 N 
ATOM      3  N   UNL     1      -5.056   3.812  -8.681  0.00  0.00    -0.372 N 
ATOM      4  C   UNL     1      -5.646   2.729  -8.164  0.00  0.00    +0.166 C 
ATOM      5  H   UNL     1      -6.854   1.125  -8.445  0.00  0.00    +0.163 HD
ATOM      6  H   UNL     1      -4.794   3.001  -6.313  0.00  0.00    +0.159 HD
ATOM      7  H   UNL     1      -5.832   1.631  -6.432  0.00  0.00    +0.159 HD
ATOM      8  H   UNL     1      -5.193   4.089  -9.643  0.00  0.00    +0.159 HD
ATOM      9  H   UNL     1      -4.434   4.390  -8.129  0.00  0.00    +0.159 HD
ENDROOT
BRANCH   1  10
ATOM     10  C   UNL     1      -6.834   2.217 -10.273  0.00  0.00    +0.151 C 
BRANCH  10  11
ATOM     11  C   UNL     1      -6.280   1.129 -11.150  0.00  0.00    -0.028 A 
ATOM     12  C   UNL     1      -6.585   1.092 -12.519  0.00  0.00    +0.005 A 
ATOM     13  C   UNL     1      -5.444   0.134 -10.620  0.00  0.00    +0.005 A 
ATOM     14  C   UNL     1      -6.046   0.099 -13.340  0.00  0.00    +0.000 A 
ATOM     15  C   UNL     1      -4.909  -0.857 -11.443  0.00  0.00    +0.000 A 
ATOM     16  C   UNL     1      -5.208  -0.873 -12.803  0.00  0.00    +0.000 A 
ENDBRANCH  10  11
ENDBRANCH   1  10
TORSDOF 2
ENDMDL
MODEL 3
REMARK VINA RESULT:    -4.260     33.162     33.839
REMARK INTER + INTRA:          -4.897
REMARK INTER:                  -4.766
REMARK INTRA:                  -0.131
REMARK UNBOUND:                -0.139
REMARK  Name = 1550473
REMARK  2 active torsions:
REMARK  status: ('A' for Active; 'I' for Inactive)
REMARK    1  A    between atoms: N_1  and  C_4
REMARK    2  A    between atoms: C_4  and  C_5
REMARK                            x       y       z     vdW  Elec       q    Type
REMARK                         _______ _______ _______ _____ _____    ______ ____
ROOT
ATOM      1  N   UNL     1       5.148  -2.254  21.241  0.00  0.00    -0.354 N 
ATOM      2  N   UNL     1       6.784  -3.874  20.995  0.00  0.00    -0.372 N 
ATOM      3  N   UNL     1       7.413  -1.738  21.546  0.00  0.00    -0.372 N 
ATOM      4  C   UNL     1       6.439  -2.609  21.263  0.00  0.00    +0.166 C 
ATOM      5  H   UNL     1       4.460  -2.954  20.990  0.00  0.00    +0.163 HD
ATOM      6  H   UNL     1       7.750  -4.173  21.007  0.00  0.00    +0.159 HD
ATOM      7  H   UNL     1       6.091  -4.583  20.789  0.00  0.00    +0.159 HD
ATOM      8  H   UNL     1       7.220  -0.766  21.751  0.00  0.00    +0.159 HD
ATOM      9  H   UNL     1       8.387  -2.014  21.551  0.00  0.00    +0.159 HD
ENDROOT
BRANCH   1  10
ATOM     10  C   UNL     1       4.663  -0.915  21.571  0.00  0.00    +0.151 C 
BRANCH  10  11
ATOM     11  C   UNL     1       3.648  -0.493  20.544  0.00  0.00    -0.028 A 
ATOM     12  C   UNL     1       2.849  -1.449  19.899  0.00  0.00    +0.005 A 
ATOM     13  C   UNL     1       3.476   0.860  20.216  0.00  0.00    +0.005 A 
ATOM     14  C   UNL     1       1.886  -1.056  18.967  0.00  0.00    +0.000 A 
ATOM     15  C   UNL     1       2.514   1.249  19.284  0.00  0.00    +0.000 A 
ATOM     16  C   UNL     1       1.717   0.291  18.662  0.00  0.00    +0.000 A 
ENDBRANCH  10  11
ENDBRANCH   1  10
TORSDOF 2
ENDMDL
MODEL 4
REMARK VINA RESULT:    -4.192     20.683     21.359
REMARK INTER + INTRA:          -4.821
REMARK INTER:                  -4.693
REMARK INTRA:                  -0.127
REMARK UNBOUND:                -0.139
REMARK  Name = 1550473
REMARK  2 active torsions:
REMARK  status: ('A' for Active; 'I' for Inactive)
REMARK    1  A    between atoms: N_1  and  C_4
REMARK    2  A    between atoms: C_4  and  C_5
REMARK                            x       y       z     vdW  Elec       q    Type
REMARK                         _______ _______ _______ _____ _____    ______ ____
ROOT
ATOM      1  N   UNL     1       5.841  -7.351   8.636  0.00  0.00    -0.354 N 
ATOM      2  N   UNL     1       7.157  -8.754   9.927  0.00  0.00    -0.372 N 
ATOM      3  N   UNL     1       4.958  -8.450  10.508  0.00  0.00    -0.372 N 
ATOM      4  C   UNL     1       5.974  -8.176   9.683  0.00  0.00    +0.166 C 
ATOM      5  H   UNL     1       6.658  -7.161   8.067  0.00  0.00    +0.163 HD
ATOM      6  H   UNL     1       7.286  -9.384  10.707  0.00  0.00    +0.159 HD
ATOM      7  H   UNL     1       7.959  -8.598   9.329  0.00  0.00    +0.159 HD
ATOM      8  H   UNL     1       4.042  -8.042  10.383  0.00  0.00    +0.159 HD
ATOM      9  H   UNL     1       5.071  -9.069  11.301  0.00  0.00    +0.159 HD
ENDROOT
BRANCH   1  10
ATOM     10  C   UNL     1       4.584  -6.713   8.253  0.00  0.00    +0.151 C 
BRANCH  10  11
ATOM     11  C   UNL     1       4.564  -6.523   6.761  0.00  0.00    -0.028 A 
ATOM     12  C   UNL     1       5.749  -6.612   6.016  0.00  0.00    +0.005 A 
ATOM     13  C   UNL     1       3.362  -6.260   6.085  0.00  0.00    +0.005 A 
ATOM     14  C   UNL     1       5.727  -6.465   4.627  0.00  0.00    +0.000 A 
ATOM     15  C   UNL     1       3.345  -6.114   4.699  0.00  0.00    +0.000 A 
ATOM     16  C   UNL     1       4.527  -6.219   3.970  0.00  0.00    +0.000 A 
ENDBRANCH  10  11
ENDBRANCH   1  10
TORSDOF 2
ENDMDL
MODEL 5
REMARK VINA RESULT:    -4.121     18.706     19.755
REMARK INTER + INTRA:          -4.742
REMARK INTER:                  -4.583
REMARK INTRA:                  -0.159
REMARK UNBOUND:                -0.139
REMARK  Name = 1550473
REMARK  2 active torsions:
REMARK  status: ('A' for Active; 'I' for Inactive)
REMARK    1  A    between atoms: N_1  and  C_4
REMARK    2  A    between atoms: C_4  and  C_5
REMARK                            x       y       z     vdW  Elec       q    Type
REMARK                         _______ _______ _______ _____ _____    ______ ____
ROOT
ATOM      1  N   UNL     1      -6.685   7.875  -3.646  0.00  0.00    -0.354 N 
ATOM      2  N   UNL     1      -5.039   9.444  -4.085  0.00  0.00    -0.372 N 
ATOM      3  N   UNL     1      -5.118   8.470  -2.008  0.00  0.00    -0.372 N 
ATOM      4  C   UNL     1      -5.624   8.586  -3.241  0.00  0.00    +0.166 C 
ATOM      5  H   UNL     1      -7.039   8.031  -4.583  0.00  0.00    +0.163 HD
ATOM      6  H   UNL     1      -4.235   9.992  -3.808  0.00  0.00    +0.159 HD
ATOM      7  H   UNL     1      -5.367   9.564  -5.035  0.00  0.00    +0.159 HD
ATOM      8  H   UNL     1      -5.517   7.845  -1.322  0.00  0.00    +0.159 HD
ATOM      9  H   UNL     1      -4.320   9.018  -1.709  0.00  0.00    +0.159 HD
ENDROOT
BRANCH   1  10
ATOM     10  C   UNL     1      -7.362   6.875  -2.822  0.00  0.00    +0.151 C 
BRANCH  10  11
ATOM     11  C   UNL     1      -7.094   5.509  -3.390  0.00  0.00    -0.028 A 
ATOM     12  C   UNL     1      -7.531   5.176  -4.681  0.00  0.00    +0.005 A 
ATOM     13  C   UNL     1      -6.399   4.544  -2.645  0.00  0.00    +0.005 A 
ATOM     14  C   UNL     1      -7.256   3.917  -5.220  0.00  0.00    +0.000 A 
ATOM     15  C   UNL     1      -6.128   3.288  -3.187  0.00  0.00    +0.000 A 
ATOM     16  C   UNL     1      -6.554   2.975  -4.475  0.00  0.00    +0.000 A 
ENDBRANCH  10  11
ENDBRANCH   1  10
TORSDOF 2
ENDMDL
MODEL 6
REMARK VINA RESULT:    -4.085     18.496     19.181
REMARK INTER + INTRA:          -4.701
REMARK INTER:                  -4.564
REMARK INTRA:                  -0.138
REMARK UNBOUND:                -0.139
REMARK  Name = 1550473
REMARK  2 active torsions:
REMARK  status: ('A' for Active; 'I' for Inactive)
REMARK    1  A    between atoms: N_1  and  C_4
REMARK    2  A    between atoms: C_4  and  C_5
REMARK                            x       y       z     vdW  Elec       q    Type
REMARK                         _______ _______ _______ _____ _____    ______ ____
ROOT
ATOM      1  N   UNL     1       3.619  -7.545   2.973  0.00  0.00    -0.354 N 
ATOM      2  N   UNL     1       3.778  -9.072   1.239  0.00  0.00    -0.372 N 
ATOM      3  N   UNL     1       5.267  -7.328   1.321  0.00  0.00    -0.372 N 
ATOM      4  C   UNL     1       4.222  -7.970   1.855  0.00  0.00    +0.166 C 
ATOM      5  H   UNL     1       2.813  -8.058   3.310  0.00  0.00    +0.163 HD
ATOM      6  H   UNL     1       4.215  -9.419   0.396  0.00  0.00    +0.159 HD
ATOM      7  H   UNL     1       3.001  -9.609   1.604  0.00  0.00    +0.159 HD
ATOM      8  H   UNL     1       5.646  -6.486   1.734  0.00  0.00    +0.159 HD
ATOM      9  H   UNL     1       5.710  -7.653   0.471  0.00  0.00    +0.159 HD
ENDROOT
BRANCH   1  10
ATOM     10  C   UNL     1       4.058  -6.387   3.750  0.00  0.00    +0.151 C 
BRANCH  10  11
ATOM     11  C   UNL     1       3.967  -6.714   5.215  0.00  0.00    -0.028 A 
ATOM     12  C   UNL     1       3.531  -7.979   5.635  0.00  0.00    +0.005 A 
ATOM     13  C   UNL     1       4.321  -5.766   6.187  0.00  0.00    +0.005 A 
ATOM     14  C   UNL     1       3.475  -8.294   6.995  0.00  0.00    +0.000 A 
ATOM     15  C   UNL     1       4.262  -6.084   7.543  0.00  0.00    +0.000 A 
ATOM     16  C   UNL     1       3.842  -7.349   7.947  0.00  0.00    +0.000 A 
ENDBRANCH  10  11
ENDBRANCH   1  10
TORSDOF 2
ENDMDL
MODEL 7
REMARK VINA RESULT:    -4.079     14.990     16.211
REMARK INTER + INTRA:          -4.694
REMARK INTER:                  -4.575
REMARK INTRA:                  -0.119
REMARK UNBOUND:                -0.139
REMARK  Name = 1550473
REMARK  2 active torsions:
REMARK  status: ('A' for Active; 'I' for Inactive)
REMARK    1  A    between atoms: N_1  and  C_4
REMARK    2  A    between atoms: C_4  and  C_5
REMARK                            x       y       z     vdW  Elec       q    Type
REMARK                         _______ _______ _______ _____ _____    ______ ____
ROOT
ATOM      1  N   UNL     1      -6.507   2.869  -6.960  0.00  0.00    -0.354 N 
ATOM      2  N   UNL     1      -7.821   2.864  -5.053  0.00  0.00    -0.372 N 
ATOM      3  N   UNL     1      -5.623   2.224  -4.887  0.00  0.00    -0.372 N 
ATOM      4  C   UNL     1      -6.639   2.651  -5.644  0.00  0.00    +0.166 C 
ATOM      5  H   UNL     1      -7.323   3.163  -7.484  0.00  0.00    +0.163 HD
ATOM      6  H   UNL     1      -7.950   2.712  -4.061  0.00  0.00    +0.159 HD
ATOM      7  H   UNL     1      -8.623   3.202  -5.570  0.00  0.00    +0.159 HD
ATOM      8  H   UNL     1      -4.708   2.039  -5.274  0.00  0.00    +0.159 HD
ATOM      9  H   UNL     1      -5.736   2.054  -3.895  0.00  0.00    +0.159 HD
ENDROOT
BRANCH   1  10
ATOM     10  C   UNL     1      -5.250   2.719  -7.691  0.00  0.00    +0.151 C 
BRANCH  10  11
ATOM     11  C   UNL     1      -5.440   3.206  -9.100  0.00  0.00    -0.028 A 
ATOM     12  C   UNL     1      -4.630   2.720 -10.137  0.00  0.00    +0.005 A 
ATOM     13  C   UNL     1      -6.433   4.149  -9.407  0.00  0.00    +0.005 A 
ATOM     14  C   UNL     1      -4.826   3.150 -11.452  0.00  0.00    +0.000 A 
ATOM     15  C   UNL     1      -6.625   4.576 -10.721  0.00  0.00    +0.000 A 
ATOM     16  C   UNL     1      -5.823   4.074 -11.743  0.00  0.00    +0.000 A 
ENDBRANCH  10  11
ENDBRANCH   1  10
TORSDOF 2
ENDMDL
MODEL 8
REMARK VINA RESULT:    -4.038     14.436     15.617
REMARK INTER + INTRA:          -4.648
REMARK INTER:                  -4.477
REMARK INTRA:                  -0.171
REMARK UNBOUND:                -0.139
REMARK  Name = 1550473
REMARK  2 active torsions:
REMARK  status: ('A' for Active; 'I' for Inactive)
REMARK    1  A    between atoms: N_1  and  C_4
REMARK    2  A    between atoms: C_4  and  C_5
REMARK                            x       y       z     vdW  Elec       q    Type
REMARK                         _______ _______ _______ _____ _____    ______ ____
ROOT
ATOM      1  N   UNL     1      -6.113   3.707  -8.482  0.00  0.00    -0.354 N 
ATOM      2  N   UNL     1      -7.344   3.530  -6.528  0.00  0.00    -0.372 N 
ATOM      3  N   UNL     1      -5.464   2.237  -6.776  0.00  0.00    -0.372 N 
ATOM      4  C   UNL     1      -6.297   3.157  -7.274  0.00  0.00    +0.166 C 
ATOM      5  H   UNL     1      -6.797   4.377  -8.815  0.00  0.00    +0.163 HD
ATOM      6  H   UNL     1      -7.506   3.135  -5.611  0.00  0.00    +0.159 HD
ATOM      7  H   UNL     1      -8.000   4.233  -6.844  0.00  0.00    +0.159 HD
ATOM      8  H   UNL     1      -4.659   1.909  -7.292  0.00  0.00    +0.159 HD
ATOM      9  H   UNL     1      -5.617   1.821  -5.865  0.00  0.00    +0.159 HD
ENDROOT
BRANCH   1  10
ATOM     10  C   UNL     1      -4.976   3.410  -9.351  0.00  0.00    +0.151 C 
BRANCH  10  11
ATOM     11  C   UNL     1      -5.367   2.328 -10.319  0.00  0.00    -0.028 A 
ATOM     12  C   UNL     1      -4.724   1.081 -10.291  0.00  0.00    +0.005 A 
ATOM     13  C   UNL     1      -6.383   2.541 -11.263  0.00  0.00    +0.005 A 
ATOM     14  C   UNL     1      -5.107   0.066 -11.170  0.00  0.00    +0.000 A 
ATOM     15  C   UNL     1      -6.762   1.524 -12.140  0.00  0.00    +0.000 A 
ATOM     16  C   UNL     1      -6.126   0.286 -12.091  0.00  0.00    +0.000 A 
ENDBRANCH  10  11
ENDBRANCH   1  10
TORSDOF 2
ENDMDL
MODEL 9
REMARK VINA RESULT:    -4.035     28.147     28.786
REMARK INTER + INTRA:          -4.645
REMARK INTER:                  -4.523
REMARK INTRA:                  -0.122
REMARK UNBOUND:                -0.139
REMARK  Name = 1550473
REMARK  2 active torsions:
REMARK  status: ('A' for Active; 'I' for Inactive)
REMARK    1  A    between atoms: N_1  and  C_4
REMARK    2  A    between atoms: C_4  and  C_5
REMARK                            x       y       z     vdW  Elec       q    Type
REMARK                         _______ _______ _______ _____ _____    ______ ____
ROOT
ATOM      1  N   UNL     1      -6.913  -0.411  11.840  0.00  0.00    -0.354 N 
ATOM      2  N   UNL     1      -8.315  -1.985  12.800  0.00  0.00    -0.372 N 
ATOM      3  N   UNL     1      -7.785  -2.182  10.576  0.00  0.00    -0.372 N 
ATOM      4  C   UNL     1      -7.662  -1.517  11.730  0.00  0.00    +0.166 C 
ATOM      5  H   UNL     1      -6.885   0.064  12.735  0.00  0.00    +0.163 HD
ATOM      6  H   UNL     1      -8.884  -2.819  12.748  0.00  0.00    +0.159 HD
ATOM      7  H   UNL     1      -8.248  -1.534  13.704  0.00  0.00    +0.159 HD
ATOM      8  H   UNL     1      -7.322  -1.877   9.730  0.00  0.00    +0.159 HD
ATOM      9  H   UNL     1      -8.360  -3.012  10.501  0.00  0.00    +0.159 HD
ENDROOT
BRANCH   1  10
ATOM     10  C   UNL     1      -6.119   0.151  10.748  0.00  0.00    +0.151 C 
BRANCH  10  11
ATOM     11  C   UNL     1      -6.360   1.633  10.679  0.00  0.00    -0.028 A 
ATOM     12  C   UNL     1      -7.395   2.150   9.886  0.00  0.00    +0.005 A 
ATOM     13  C   UNL     1      -5.560   2.527  11.408  0.00  0.00    +0.005 A 
ATOM     14  C   UNL     1      -7.639   3.525   9.844  0.00  0.00    +0.000 A 
ATOM     15  C   UNL     1      -5.806   3.899  11.363  0.00  0.00    +0.000 A 
ATOM     16  C   UNL     1      -6.847   4.397  10.583  0.00  0.00    +0.000 A 
ENDBRANCH  10  11
ENDBRANCH   1  10
TORSDOF 2
ENDMDL
