MODEL 1
REMARK VINA RESULT:    -6.134      0.000      0.000
REMARK INTER + INTRA:          -6.988
REMARK INTER:                  -6.852
REMARK INTRA:                  -0.136
REMARK UNBOUND:                -0.136
REMARK  Name = 1550473
REMARK  2 active torsions:
REMARK  status: ('A' for Active; 'I' for Inactive)
REMARK    1  A    between atoms: N_1  and  C_4
REMARK    2  A    between atoms: C_4  and  C_5
REMARK                            x       y       z     vdW  Elec       q    Type
REMARK                         _______ _______ _______ _____ _____    ______ ____
ROOT
ATOM      1  N   UNL     1     -13.258  -0.016  -1.617  0.00  0.00    -0.354 N 
ATOM      2  N   UNL     1     -14.913   0.916  -0.292  0.00  0.00    -0.372 N 
ATOM      3  N   UNL     1     -13.462  -0.595   0.645  0.00  0.00    -0.372 N 
ATOM      4  C   UNL     1     -13.865   0.094  -0.428  0.00  0.00    +0.166 C 
ATOM      5  H   UNL     1     -13.631   0.510  -2.398  0.00  0.00    +0.163 HD
ATOM      6  H   UNL     1     -15.389   1.022   0.594  0.00  0.00    +0.159 HD
ATOM      7  H   UNL     1     -15.255   1.476  -1.063  0.00  0.00    +0.159 HD
ATOM      8  H   UNL     1     -12.682  -1.237   0.607  0.00  0.00    +0.159 HD
ATOM      9  H   UNL     1     -13.934  -0.511   1.537  0.00  0.00    +0.159 HD
ENDROOT
BRANCH   1  10
ATOM     10  C   UNL     1     -12.076  -0.842  -1.858  0.00  0.00    +0.151 C 
BRANCH  10  11
ATOM     11  C   UNL     1     -11.001   0.007  -2.478  0.00  0.00    -0.028 A 
ATOM     12  C   UNL     1      -9.898  -0.589  -3.108  0.00  0.00    +0.005 A 
ATOM     13  C   UNL     1     -11.083   1.407  -2.446  0.00  0.00    +0.005 A 
ATOM     14  C   UNL     1      -8.914   0.199  -3.710  0.00  0.00    +0.000 A 
ATOM     15  C   UNL     1     -10.098   2.190  -3.048  0.00  0.00    +0.000 A 
ATOM     16  C   UNL     1      -9.015   1.586  -3.682  0.00  0.00    +0.000 A 
ENDBRANCH  10  11
ENDBRANCH   1  10
TORSDOF 2
ENDMDL
MODEL 2
REMARK VINA RESULT:    -5.260     21.881     22.379
REMARK INTER + INTRA:          -6.011
REMARK INTER:                  -5.908
REMARK INTRA:                  -0.103
REMARK UNBOUND:                -0.136
REMARK  Name = 1550473
REMARK  2 active torsions:
REMARK  status: ('A' for Active; 'I' for Inactive)
REMARK    1  A    between atoms: N_1  and  C_4
REMARK    2  A    between atoms: C_4  and  C_5
REMARK                            x       y       z     vdW  Elec       q    Type
REMARK                         _______ _______ _______ _____ _____    ______ ____
ROOT
ATOM      1  N   UNL     1       2.567   0.030  13.550  0.00  0.00    -0.354 N 
ATOM      2  N   UNL     1       2.561   0.423  11.268  0.00  0.00    -0.372 N 
ATOM      3  N   UNL     1       3.713   1.859  12.638  0.00  0.00    -0.372 N 
ATOM      4  C   UNL     1       2.948   0.770  12.501  0.00  0.00    +0.166 C 
ATOM      5  H   UNL     1       1.962  -0.766  13.383  0.00  0.00    +0.163 HD
ATOM      6  H   UNL     1       2.836   0.961  10.457  0.00  0.00    +0.159 HD
ATOM      7  H   UNL     1       1.994  -0.399  11.099  0.00  0.00    +0.159 HD
ATOM      8  H   UNL     1       4.034   2.178  13.542  0.00  0.00    +0.159 HD
ATOM      9  H   UNL     1       3.989   2.416  11.839  0.00  0.00    +0.159 HD
ENDROOT
BRANCH   1  10
ATOM     10  C   UNL     1       2.979   0.291  14.928  0.00  0.00    +0.151 C 
BRANCH  10  11
ATOM     11  C   UNL     1       2.143  -0.546  15.857  0.00  0.00    -0.028 A 
ATOM     12  C   UNL     1       2.029  -1.930  15.660  0.00  0.00    +0.005 A 
ATOM     13  C   UNL     1       1.468   0.038  16.940  0.00  0.00    +0.005 A 
ATOM     14  C   UNL     1       1.277  -2.712  16.541  0.00  0.00    +0.000 A 
ATOM     15  C   UNL     1       0.718  -0.746  17.816  0.00  0.00    +0.000 A 
ATOM     16  C   UNL     1       0.625  -2.122  17.618  0.00  0.00    +0.000 A 
ENDBRANCH  10  11
ENDBRANCH   1  10
TORSDOF 2
ENDMDL
MODEL 3
REMARK VINA RESULT:    -4.960     30.316     31.236
REMARK INTER + INTRA:          -5.676
REMARK INTER:                  -5.494
REMARK INTRA:                  -0.181
REMARK UNBOUND:                -0.136
REMARK  Name = 1550473
REMARK  2 active torsions:
REMARK  status: ('A' for Active; 'I' for Inactive)
REMARK    1  A    between atoms: N_1  and  C_4
REMARK    2  A    between atoms: C_4  and  C_5
REMARK                            x       y       z     vdW  Elec       q    Type
REMARK                         _______ _______ _______ _____ _____    ______ ____
ROOT
ATOM      1  N   UNL     1      14.640   7.100  15.220  0.00  0.00    -0.354 N 
ATOM      2  N   UNL     1      16.574   8.285  15.688  0.00  0.00    -0.372 N 
ATOM      3  N   UNL     1      16.561   6.013  16.007  0.00  0.00    -0.372 N 
ATOM      4  C   UNL     1      15.913   7.122  15.636  0.00  0.00    +0.166 C 
ATOM      5  H   UNL     1      14.196   7.979  14.981  0.00  0.00    +0.163 HD
ATOM      6  H   UNL     1      17.536   8.332  15.994  0.00  0.00    +0.159 HD
ATOM      7  H   UNL     1      16.142   9.156  15.405  0.00  0.00    +0.159 HD
ATOM      8  H   UNL     1      16.116   5.104  15.996  0.00  0.00    +0.159 HD
ATOM      9  H   UNL     1      17.520   6.042  16.328  0.00  0.00    +0.159 HD
ENDROOT
BRANCH   1  10
ATOM     10  C   UNL     1      13.848   5.880  15.075  0.00  0.00    +0.151 C 
BRANCH  10  11
ATOM     11  C   UNL     1      13.843   5.465  13.630  0.00  0.00    -0.028 A 
ATOM     12  C   UNL     1      14.365   4.222  13.244  0.00  0.00    +0.005 A 
ATOM     13  C   UNL     1      13.312   6.309  12.642  0.00  0.00    +0.005 A 
ATOM     14  C   UNL     1      14.333   3.824  11.905  0.00  0.00    +0.000 A 
ATOM     15  C   UNL     1      13.283   5.908  11.306  0.00  0.00    +0.000 A 
ATOM     16  C   UNL     1      13.791   4.665  10.939  0.00  0.00    +0.000 A 
ENDBRANCH  10  11
ENDBRANCH   1  10
TORSDOF 2
ENDMDL
MODEL 4
REMARK VINA RESULT:    -4.778     18.852     19.965
REMARK INTER + INTRA:          -5.473
REMARK INTER:                  -5.358
REMARK INTRA:                  -0.115
REMARK UNBOUND:                -0.136
REMARK  Name = 1550473
REMARK  2 active torsions:
REMARK  status: ('A' for Active; 'I' for Inactive)
REMARK    1  A    between atoms: N_1  and  C_4
REMARK    2  A    between atoms: C_4  and  C_5
REMARK                            x       y       z     vdW  Elec       q    Type
REMARK                         _______ _______ _______ _____ _____    ______ ____
ROOT
ATOM      1  N   UNL     1       4.480  -6.118 -11.397  0.00  0.00    -0.354 N 
ATOM      2  N   UNL     1       6.703  -5.472 -11.334  0.00  0.00    -0.372 N 
ATOM      3  N   UNL     1       5.087  -3.862 -11.583  0.00  0.00    -0.372 N 
ATOM      4  C   UNL     1       5.407  -5.152 -11.439  0.00  0.00    +0.166 C 
ATOM      5  H   UNL     1       4.789  -7.079 -11.316  0.00  0.00    +0.163 HD
ATOM      6  H   UNL     1       7.425  -4.765 -11.359  0.00  0.00    +0.159 HD
ATOM      7  H   UNL     1       7.007  -6.430 -11.208  0.00  0.00    +0.159 HD
ATOM      8  H   UNL     1       4.128  -3.555 -11.673  0.00  0.00    +0.159 HD
ATOM      9  H   UNL     1       5.796  -3.141 -11.622  0.00  0.00    +0.159 HD
ENDROOT
BRANCH   1  10
ATOM     10  C   UNL     1       3.040  -5.871 -11.448  0.00  0.00    +0.151 C 
BRANCH  10  11
ATOM     11  C   UNL     1       2.589  -5.885 -12.882  0.00  0.00    -0.028 A 
ATOM     12  C   UNL     1       1.585  -5.011 -13.322  0.00  0.00    +0.005 A 
ATOM     13  C   UNL     1       3.168  -6.767 -13.808  0.00  0.00    +0.005 A 
ATOM     14  C   UNL     1       1.187  -5.003 -14.661  0.00  0.00    +0.000 A 
ATOM     15  C   UNL     1       2.767  -6.757 -15.144  0.00  0.00    +0.000 A 
ATOM     16  C   UNL     1       1.779  -5.873 -15.571  0.00  0.00    +0.000 A 
ENDBRANCH  10  11
ENDBRANCH   1  10
TORSDOF 2
ENDMDL
MODEL 5
REMARK VINA RESULT:    -4.762      1.266      2.376
REMARK INTER + INTRA:          -5.454
REMARK INTER:                  -5.323
REMARK INTRA:                  -0.132
REMARK UNBOUND:                -0.136
REMARK  Name = 1550473
REMARK  2 active torsions:
REMARK  status: ('A' for Active; 'I' for Inactive)
REMARK    1  A    between atoms: N_1  and  C_4
REMARK    2  A    between atoms: C_4  and  C_5
REMARK                            x       y       z     vdW  Elec       q    Type
REMARK                         _______ _______ _______ _____ _____    ______ ____
ROOT
ATOM      1  N   UNL     1     -14.094  -0.817  -0.552  0.00  0.00    -0.354 N 
ATOM      2  N   UNL     1     -14.428  -2.671   0.795  0.00  0.00    -0.372 N 
ATOM      3  N   UNL     1     -13.277  -0.876   1.644  0.00  0.00    -0.372 N 
ATOM      4  C   UNL     1     -13.929  -1.441   0.622  0.00  0.00    +0.166 C 
ATOM      5  H   UNL     1     -14.571  -1.311  -1.297  0.00  0.00    +0.163 HD
ATOM      6  H   UNL     1     -14.322  -3.165   1.671  0.00  0.00    +0.159 HD
ATOM      7  H   UNL     1     -14.944  -3.144   0.064  0.00  0.00    +0.159 HD
ATOM      8  H   UNL     1     -12.872   0.048   1.576  0.00  0.00    +0.159 HD
ATOM      9  H   UNL     1     -13.151  -1.360   2.524  0.00  0.00    +0.159 HD
ENDROOT
BRANCH   1  10
ATOM     10  C   UNL     1     -13.637   0.545  -0.825  0.00  0.00    +0.151 C 
BRANCH  10  11
ATOM     11  C   UNL     1     -12.438   0.488  -1.732  0.00  0.00    -0.028 A 
ATOM     12  C   UNL     1     -11.639   1.623  -1.928  0.00  0.00    +0.005 A 
ATOM     13  C   UNL     1     -12.094  -0.701  -2.394  0.00  0.00    +0.005 A 
ATOM     14  C   UNL     1     -10.509   1.562  -2.747  0.00  0.00    +0.000 A 
ATOM     15  C   UNL     1     -10.965  -0.757  -3.212  0.00  0.00    +0.000 A 
ATOM     16  C   UNL     1     -10.172   0.374  -3.386  0.00  0.00    +0.000 A 
ENDBRANCH  10  11
ENDBRANCH   1  10
TORSDOF 2
ENDMDL
MODEL 6
REMARK VINA RESULT:    -4.685     15.691     17.054
REMARK INTER + INTRA:          -5.368
REMARK INTER:                  -5.209
REMARK INTRA:                  -0.159
REMARK UNBOUND:                -0.136
REMARK  Name = 1550473
REMARK  2 active torsions:
REMARK  status: ('A' for Active; 'I' for Inactive)
REMARK    1  A    between atoms: N_1  and  C_4
REMARK    2  A    between atoms: C_4  and  C_5
REMARK                            x       y       z     vdW  Elec       q    Type
REMARK                         _______ _______ _______ _____ _____    ______ ____
ROOT
ATOM      1  N   UNL     1      -0.648 -12.286  -1.842  0.00  0.00    -0.354 N 
ATOM      2  N   UNL     1      -1.164 -10.595  -0.345  0.00  0.00    -0.372 N 
ATOM      3  N   UNL     1      -1.567 -10.260  -2.579  0.00  0.00    -0.372 N 
ATOM      4  C   UNL     1      -1.124 -11.057  -1.601  0.00  0.00    +0.166 C 
ATOM      5  H   UNL     1      -0.299 -12.829  -1.060  0.00  0.00    +0.163 HD
ATOM      6  H   UNL     1      -1.520  -9.673  -0.132  0.00  0.00    +0.159 HD
ATOM      7  H   UNL     1      -0.856 -11.157   0.439  0.00  0.00    +0.159 HD
ATOM      8  H   UNL     1      -1.559 -10.547  -3.548  0.00  0.00    +0.159 HD
ATOM      9  H   UNL     1      -1.917  -9.330  -2.387  0.00  0.00    +0.159 HD
ENDROOT
BRANCH   1  10
ATOM     10  C   UNL     1      -0.611 -12.903  -3.166  0.00  0.00    +0.151 C 
BRANCH  10  11
ATOM     11  C   UNL     1      -1.816 -13.788  -3.330  0.00  0.00    -0.028 A 
ATOM     12  C   UNL     1      -2.325 -14.506  -2.238  0.00  0.00    +0.005 A 
ATOM     13  C   UNL     1      -2.457 -13.908  -4.572  0.00  0.00    +0.005 A 
ATOM     14  C   UNL     1      -3.462 -15.305  -2.382  0.00  0.00    +0.000 A 
ATOM     15  C   UNL     1      -3.591 -14.707  -4.712  0.00  0.00    +0.000 A 
ATOM     16  C   UNL     1      -4.095 -15.403  -3.617  0.00  0.00    +0.000 A 
ENDBRANCH  10  11
ENDBRANCH   1  10
TORSDOF 2
ENDMDL
MODEL 7
REMARK VINA RESULT:    -4.584     27.984     29.171
REMARK INTER + INTRA:          -5.256
REMARK INTER:                  -5.080
REMARK INTRA:                  -0.176
REMARK UNBOUND:                -0.136
REMARK  Name = 1550473
REMARK  2 active torsions:
REMARK  status: ('A' for Active; 'I' for Inactive)
REMARK    1  A    between atoms: N_1  and  C_4
REMARK    2  A    between atoms: C_4  and  C_5
REMARK                            x       y       z     vdW  Elec       q    Type
REMARK                         _______ _______ _______ _____ _____    ______ ____
ROOT
ATOM      1  N   UNL     1      15.418   5.470  -7.706  0.00  0.00    -0.354 N 
ATOM      2  N   UNL     1      15.766   3.995  -9.458  0.00  0.00    -0.372 N 
ATOM      3  N   UNL     1      17.191   5.776  -9.208  0.00  0.00    -0.372 N 
ATOM      4  C   UNL     1      16.125   5.092  -8.780  0.00  0.00    +0.166 C 
ATOM      5  H   UNL     1      14.602   4.925  -7.451  0.00  0.00    +0.163 HD
ATOM      6  H   UNL     1      16.282   3.683 -10.270  0.00  0.00    +0.159 HD
ATOM      7  H   UNL     1      14.977   3.427  -9.174  0.00  0.00    +0.159 HD
ATOM      8  H   UNL     1      17.510   6.615  -8.744  0.00  0.00    +0.159 HD
ATOM      9  H   UNL     1      17.713   5.486 -10.025  0.00  0.00    +0.159 HD
ENDROOT
BRANCH   1  10
ATOM     10  C   UNL     1      15.757   6.617  -6.867  0.00  0.00    +0.151 C 
BRANCH  10  11
ATOM     11  C   UNL     1      16.334   6.124  -5.569  0.00  0.00    -0.028 A 
ATOM     12  C   UNL     1      17.722   6.120  -5.363  0.00  0.00    +0.005 A 
ATOM     13  C   UNL     1      15.499   5.664  -4.540  0.00  0.00    +0.005 A 
ATOM     14  C   UNL     1      18.257   5.690  -4.147  0.00  0.00    +0.000 A 
ATOM     15  C   UNL     1      16.038   5.234  -3.327  0.00  0.00    +0.000 A 
ATOM     16  C   UNL     1      17.417   5.249  -3.130  0.00  0.00    +0.000 A 
ENDBRANCH  10  11
ENDBRANCH   1  10
TORSDOF 2
ENDMDL
MODEL 8
REMARK VINA RESULT:    -4.569     22.856     23.386
REMARK INTER + INTRA:          -5.240
REMARK INTER:                  -5.172
REMARK INTRA:                  -0.067
REMARK UNBOUND:                -0.136
REMARK  Name = 1550473
REMARK  2 active torsions:
REMARK  status: ('A' for Active; 'I' for Inactive)
REMARK    1  A    between atoms: N_1  and  C_4
REMARK    2  A    between atoms: C_4  and  C_5
REMARK                            x       y       z     vdW  Elec       q    Type
REMARK                         _______ _______ _______ _____ _____    ______ ____
ROOT
ATOM      1  N   UNL     1       1.789  -0.718  15.402  0.00  0.00    -0.354 N 
ATOM      2  N   UNL     1       2.634   0.261  13.481  0.00  0.00    -0.372 N 
ATOM      3  N   UNL     1       3.937   0.219  15.369  0.00  0.00    -0.372 N 
ATOM      4  C   UNL     1       2.784  -0.085  14.765  0.00  0.00    +0.166 C 
ATOM      5  H   UNL     1       0.928  -0.892  14.897  0.00  0.00    +0.163 HD
ATOM      6  H   UNL     1       3.368   0.737  12.973  0.00  0.00    +0.159 HD
ATOM      7  H   UNL     1       1.790   0.045  12.965  0.00  0.00    +0.159 HD
ATOM      8  H   UNL     1       4.111  -0.010  16.338  0.00  0.00    +0.159 HD
ATOM      9  H   UNL     1       4.679   0.704  14.880  0.00  0.00    +0.159 HD
ENDROOT
BRANCH   1  10
ATOM     10  C   UNL     1       1.872  -1.186  16.784  0.00  0.00    +0.151 C 
BRANCH  10  11
ATOM     11  C   UNL     1       0.989  -0.327  17.647  0.00  0.00    -0.028 A 
ATOM     12  C   UNL     1       0.320  -0.877  18.751  0.00  0.00    +0.005 A 
ATOM     13  C   UNL     1       0.821   1.038  17.370  0.00  0.00    +0.005 A 
ATOM     14  C   UNL     1      -0.477  -0.073  19.570  0.00  0.00    +0.000 A 
ATOM     15  C   UNL     1       0.025   1.837  18.190  0.00  0.00    +0.000 A 
ATOM     16  C   UNL     1      -0.622   1.282  19.291  0.00  0.00    +0.000 A 
ENDBRANCH  10  11
ENDBRANCH   1  10
TORSDOF 2
ENDMDL
MODEL 9
REMARK VINA RESULT:    -4.514     20.386     21.385
REMARK INTER + INTRA:          -5.178
REMARK INTER:                  -4.997
REMARK INTRA:                  -0.181
REMARK UNBOUND:                -0.136
REMARK  Name = 1550473
REMARK  2 active torsions:
REMARK  status: ('A' for Active; 'I' for Inactive)
REMARK    1  A    between atoms: N_1  and  C_4
REMARK    2  A    between atoms: C_4  and  C_5
REMARK                            x       y       z     vdW  Elec       q    Type
REMARK                         _______ _______ _______ _____ _____    ______ ____
ROOT
ATOM      1  N   UNL     1       4.265  -6.822 -12.446  0.00  0.00    -0.354 N 
ATOM      2  N   UNL     1       3.873  -8.947 -11.613  0.00  0.00    -0.372 N 
ATOM      3  N   UNL     1       5.509  -8.661 -13.197  0.00  0.00    -0.372 N 
ATOM      4  C   UNL     1       4.553  -8.130 -12.426  0.00  0.00    +0.166 C 
ATOM      5  H   UNL     1       3.509  -6.487 -11.860  0.00  0.00    +0.163 HD
ATOM      6  H   UNL     1       4.071  -9.938 -11.574  0.00  0.00    +0.159 HD
ATOM      7  H   UNL     1       3.149  -8.602 -10.995  0.00  0.00    +0.159 HD
ATOM      8  H   UNL     1       6.054  -8.099 -13.836  0.00  0.00    +0.159 HD
ATOM      9  H   UNL     1       5.713  -9.652 -13.180  0.00  0.00    +0.159 HD
ENDROOT
BRANCH   1  10
ATOM     10  C   UNL     1       4.982  -5.838 -13.256  0.00  0.00    +0.151 C 
BRANCH  10  11
ATOM     11  C   UNL     1       6.054  -5.200 -12.416  0.00  0.00    -0.028 A 
ATOM     12  C   UNL     1       7.408  -5.366 -12.743  0.00  0.00    +0.005 A 
ATOM     13  C   UNL     1       5.722  -4.422 -11.296  0.00  0.00    +0.005 A 
ATOM     14  C   UNL     1       8.403  -4.748 -11.982  0.00  0.00    +0.000 A 
ATOM     15  C   UNL     1       6.719  -3.808 -10.538  0.00  0.00    +0.000 A 
ATOM     16  C   UNL     1       8.058  -3.969 -10.882  0.00  0.00    +0.000 A 
ENDBRANCH  10  11
ENDBRANCH   1  10
TORSDOF 2
ENDMDL
