MODEL 1
REMARK VINA RESULT:    -4.817      0.000      0.000
REMARK INTER + INTRA:          -5.510
REMARK INTER:                  -5.380
REMARK INTRA:                  -0.131
REMARK UNBOUND:                -0.131
REMARK  Name = 1550473
REMARK  2 active torsions:
REMARK  status: ('A' for Active; 'I' for Inactive)
REMARK    1  A    between atoms: N_1  and  C_4
REMARK    2  A    between atoms: C_4  and  C_5
REMARK                            x       y       z     vdW  Elec       q    Type
REMARK                         _______ _______ _______ _____ _____    ______ ____
ROOT
ATOM      1  N   UNL     1      -6.298  -1.961 -10.781  0.00  0.00    -0.354 N 
ATOM      2  N   UNL     1      -7.579  -0.333  -9.746  0.00  0.00    -0.372 N 
ATOM      3  N   UNL     1      -5.353  -0.497  -9.215  0.00  0.00    -0.372 N 
ATOM      4  C   UNL     1      -6.399  -0.941  -9.919  0.00  0.00    +0.166 C 
ATOM      5  H   UNL     1      -7.135  -2.270 -11.262  0.00  0.00    +0.163 HD
ATOM      6  H   UNL     1      -7.685   0.442  -9.105  0.00  0.00    +0.159 HD
ATOM      7  H   UNL     1      -8.404  -0.614 -10.262  0.00  0.00    +0.159 HD
ATOM      8  H   UNL     1      -4.436  -0.916  -9.296  0.00  0.00    +0.159 HD
ATOM      9  H   UNL     1      -5.441   0.270  -8.560  0.00  0.00    +0.159 HD
ENDROOT
BRANCH   1  10
ATOM     10  C   UNL     1      -5.047  -2.656 -11.083  0.00  0.00    +0.151 C 
BRANCH  10  11
ATOM     11  C   UNL     1      -5.352  -4.086 -11.434  0.00  0.00    -0.028 A 
ATOM     12  C   UNL     1      -4.424  -4.857 -12.149  0.00  0.00    +0.005 A 
ATOM     13  C   UNL     1      -6.565  -4.678 -11.049  0.00  0.00    +0.005 A 
ATOM     14  C   UNL     1      -4.694  -6.194 -12.450  0.00  0.00    +0.000 A 
ATOM     15  C   UNL     1      -6.831  -6.013 -11.352  0.00  0.00    +0.000 A 
ATOM     16  C   UNL     1      -5.895  -6.772 -12.050  0.00  0.00    +0.000 A 
ENDBRANCH  10  11
ENDBRANCH   1  10
TORSDOF 2
ENDMDL
MODEL 2
REMARK VINA RESULT:    -4.433      3.110      5.382
REMARK INTER + INTRA:          -5.082
REMARK INTER:                  -4.959
REMARK INTRA:                  -0.123
REMARK UNBOUND:                -0.131
REMARK  Name = 1550473
REMARK  2 active torsions:
REMARK  status: ('A' for Active; 'I' for Inactive)
REMARK    1  A    between atoms: N_1  and  C_4
REMARK    2  A    between atoms: C_4  and  C_5
REMARK                            x       y       z     vdW  Elec       q    Type
REMARK                         _______ _______ _______ _____ _____    ______ ____
ROOT
ATOM      1  N   UNL     1      -5.186  -5.945 -11.753  0.00  0.00    -0.354 N 
ATOM      2  N   UNL     1      -3.549  -7.371 -12.559  0.00  0.00    -0.372 N 
ATOM      3  N   UNL     1      -5.729  -7.718 -13.186  0.00  0.00    -0.372 N 
ATOM      4  C   UNL     1      -4.834  -7.003 -12.495  0.00  0.00    +0.166 C 
ATOM      5  H   UNL     1      -4.465  -5.464 -11.228  0.00  0.00    +0.163 HD
ATOM      6  H   UNL     1      -3.253  -8.163 -13.113  0.00  0.00    +0.159 HD
ATOM      7  H   UNL     1      -2.824  -6.860 -12.070  0.00  0.00    +0.159 HD
ATOM      8  H   UNL     1      -6.715  -7.496 -13.175  0.00  0.00    +0.159 HD
ATOM      9  H   UNL     1      -5.453  -8.521 -13.738  0.00  0.00    +0.159 HD
ENDROOT
BRANCH   1  10
ATOM     10  C   UNL     1      -6.551  -5.430 -11.659  0.00  0.00    +0.151 C 
BRANCH  10  11
ATOM     11  C   UNL     1      -6.514  -4.046 -11.072  0.00  0.00    -0.028 A 
ATOM     12  C   UNL     1      -7.643  -3.514 -10.431  0.00  0.00    +0.005 A 
ATOM     13  C   UNL     1      -5.351  -3.263 -11.147  0.00  0.00    +0.005 A 
ATOM     14  C   UNL     1      -7.599  -2.240  -9.859  0.00  0.00    +0.000 A 
ATOM     15  C   UNL     1      -5.312  -1.992 -10.576  0.00  0.00    +0.000 A 
ATOM     16  C   UNL     1      -6.436  -1.481  -9.930  0.00  0.00    +0.000 A 
ENDBRANCH  10  11
ENDBRANCH   1  10
TORSDOF 2
ENDMDL
MODEL 3
REMARK VINA RESULT:    -4.318     24.726     26.365
REMARK INTER + INTRA:          -4.953
REMARK INTER:                  -4.809
REMARK INTRA:                  -0.144
REMARK UNBOUND:                -0.131
REMARK  Name = 1550473
REMARK  2 active torsions:
REMARK  status: ('A' for Active; 'I' for Inactive)
REMARK    1  A    between atoms: N_1  and  C_4
REMARK    2  A    between atoms: C_4  and  C_5
REMARK                            x       y       z     vdW  Elec       q    Type
REMARK                         _______ _______ _______ _____ _____    ______ ____
ROOT
ATOM      1  N   UNL     1      -7.675   0.520  15.750  0.00  0.00    -0.354 N 
ATOM      2  N   UNL     1      -6.457  -0.521  17.422  0.00  0.00    -0.372 N 
ATOM      3  N   UNL     1      -8.344   0.653  17.991  0.00  0.00    -0.372 N 
ATOM      4  C   UNL     1      -7.502   0.226  17.045  0.00  0.00    +0.166 C 
ATOM      5  H   UNL     1      -6.984   0.191  15.085  0.00  0.00    +0.163 HD
ATOM      6  H   UNL     1      -6.302  -0.762  18.392  0.00  0.00    +0.159 HD
ATOM      7  H   UNL     1      -5.793  -0.886  16.750  0.00  0.00    +0.159 HD
ATOM      8  H   UNL     1      -9.149   1.225  17.773  0.00  0.00    +0.159 HD
ATOM      9  H   UNL     1      -8.200   0.432  18.969  0.00  0.00    +0.159 HD
ENDROOT
BRANCH   1  10
ATOM     10  C   UNL     1      -8.809   1.280  15.228  0.00  0.00    +0.151 C 
BRANCH  10  11
ATOM     11  C   UNL     1      -9.451   0.501  14.113  0.00  0.00    -0.028 A 
ATOM     12  C   UNL     1     -10.596   0.993  13.468  0.00  0.00    +0.005 A 
ATOM     13  C   UNL     1      -8.917  -0.726  13.693  0.00  0.00    +0.005 A 
ATOM     14  C   UNL     1     -11.175   0.285  12.413  0.00  0.00    +0.000 A 
ATOM     15  C   UNL     1      -9.498  -1.431  12.639  0.00  0.00    +0.000 A 
ATOM     16  C   UNL     1     -10.626  -0.923  11.998  0.00  0.00    +0.000 A 
ENDBRANCH  10  11
ENDBRANCH   1  10
TORSDOF 2
ENDMDL
MODEL 4
REMARK VINA RESULT:    -4.156      3.044      4.442
REMARK INTER + INTRA:          -4.773
REMARK INTER:                  -4.609
REMARK INTRA:                  -0.164
REMARK UNBOUND:                -0.131
REMARK  Name = 1550473
REMARK  2 active torsions:
REMARK  status: ('A' for Active; 'I' for Inactive)
REMARK    1  A    between atoms: N_1  and  C_4
REMARK    2  A    between atoms: C_4  and  C_5
REMARK                            x       y       z     vdW  Elec       q    Type
REMARK                         _______ _______ _______ _____ _____    ______ ____
ROOT
ATOM      1  N   UNL     1      -5.782  -4.195 -13.828  0.00  0.00    -0.354 N 
ATOM      2  N   UNL     1      -5.967  -3.407 -15.998  0.00  0.00    -0.372 N 
ATOM      3  N   UNL     1      -4.098  -2.873 -14.780  0.00  0.00    -0.372 N 
ATOM      4  C   UNL     1      -5.279  -3.495 -14.854  0.00  0.00    +0.166 C 
ATOM      5  H   UNL     1      -6.696  -4.618 -13.937  0.00  0.00    +0.163 HD
ATOM      6  H   UNL     1      -5.612  -2.889 -16.790  0.00  0.00    +0.159 HD
ATOM      7  H   UNL     1      -6.860  -3.870 -16.120  0.00  0.00    +0.159 HD
ATOM      8  H   UNL     1      -3.531  -2.896 -13.942  0.00  0.00    +0.159 HD
ATOM      9  H   UNL     1      -3.730  -2.340 -15.558  0.00  0.00    +0.159 HD
ENDROOT
BRANCH   1  10
ATOM     10  C   UNL     1      -5.088  -4.397 -12.557  0.00  0.00    +0.151 C 
BRANCH  10  11
ATOM     11  C   UNL     1      -5.795  -3.620 -11.482  0.00  0.00    -0.028 A 
ATOM     12  C   UNL     1      -5.165  -2.534 -10.857  0.00  0.00    +0.005 A 
ATOM     13  C   UNL     1      -7.098  -3.961 -11.087  0.00  0.00    +0.005 A 
ATOM     14  C   UNL     1      -5.833  -1.793  -9.879  0.00  0.00    +0.000 A 
ATOM     15  C   UNL     1      -7.761  -3.219 -10.110  0.00  0.00    +0.000 A 
ATOM     16  C   UNL     1      -7.129  -2.134  -9.507  0.00  0.00    +0.000 A 
ENDBRANCH  10  11
ENDBRANCH   1  10
TORSDOF 2
ENDMDL
MODEL 5
REMARK VINA RESULT:    -4.152     18.623     21.878
REMARK INTER + INTRA:          -4.768
REMARK INTER:                  -4.659
REMARK INTRA:                  -0.109
REMARK UNBOUND:                -0.131
REMARK  Name = 1550473
REMARK  2 active torsions:
REMARK  status: ('A' for Active; 'I' for Inactive)
REMARK    1  A    between atoms: N_1  and  C_4
REMARK    2  A    between atoms: C_4  and  C_5
REMARK                            x       y       z     vdW  Elec       q    Type
REMARK                         _______ _______ _______ _____ _____    ______ ____
ROOT
ATOM      1  N   UNL     1      -2.420  14.240  -2.973  0.00  0.00    -0.354 N 
ATOM      2  N   UNL     1      -2.478  11.926  -2.902  0.00  0.00    -0.372 N 
ATOM      3  N   UNL     1      -1.256  12.955  -4.549  0.00  0.00    -0.372 N 
ATOM      4  C   UNL     1      -2.050  13.056  -3.477  0.00  0.00    +0.166 C 
ATOM      5  H   UNL     1      -3.048  14.249  -2.177  0.00  0.00    +0.163 HD
ATOM      6  H   UNL     1      -2.213  11.018  -3.258  0.00  0.00    +0.159 HD
ATOM      7  H   UNL     1      -3.069  11.938  -2.079  0.00  0.00    +0.159 HD
ATOM      8  H   UNL     1      -0.903  13.769  -5.033  0.00  0.00    +0.159 HD
ATOM      9  H   UNL     1      -0.988  12.055  -4.927  0.00  0.00    +0.159 HD
ENDROOT
BRANCH   1  10
ATOM     10  C   UNL     1      -1.966  15.529  -3.492  0.00  0.00    +0.151 C 
BRANCH  10  11
ATOM     11  C   UNL     1      -2.689  16.632  -2.771  0.00  0.00    -0.028 A 
ATOM     12  C   UNL     1      -4.081  16.583  -2.607  0.00  0.00    +0.005 A 
ATOM     13  C   UNL     1      -1.987  17.727  -2.243  0.00  0.00    +0.005 A 
ATOM     14  C   UNL     1      -4.750  17.593  -1.911  0.00  0.00    +0.000 A 
ATOM     15  C   UNL     1      -2.658  18.733  -1.549  0.00  0.00    +0.000 A 
ATOM     16  C   UNL     1      -4.039  18.665  -1.381  0.00  0.00    +0.000 A 
ENDBRANCH  10  11
ENDBRANCH   1  10
TORSDOF 2
ENDMDL
MODEL 6
REMARK VINA RESULT:    -4.140     19.958     20.556
REMARK INTER + INTRA:          -4.755
REMARK INTER:                  -4.626
REMARK INTRA:                  -0.129
REMARK UNBOUND:                -0.131
REMARK  Name = 1550473
REMARK  2 active torsions:
REMARK  status: ('A' for Active; 'I' for Inactive)
REMARK    1  A    between atoms: N_1  and  C_4
REMARK    2  A    between atoms: C_4  and  C_5
REMARK                            x       y       z     vdW  Elec       q    Type
REMARK                         _______ _______ _______ _____ _____    ______ ____
ROOT
ATOM      1  N   UNL     1     -11.314  -7.218   8.196  0.00  0.00    -0.354 N 
ATOM      2  N   UNL     1     -12.309  -5.314   7.331  0.00  0.00    -0.372 N 
ATOM      3  N   UNL     1     -13.303  -6.377   9.105  0.00  0.00    -0.372 N 
ATOM      4  C   UNL     1     -12.304  -6.316   8.218  0.00  0.00    +0.166 C 
ATOM      5  H   UNL     1     -10.602  -7.134   7.479  0.00  0.00    +0.163 HD
ATOM      6  H   UNL     1     -13.042  -4.617   7.325  0.00  0.00    +0.159 HD
ATOM      7  H   UNL     1     -11.572  -5.206   6.645  0.00  0.00    +0.159 HD
ATOM      8  H   UNL     1     -13.361  -7.112   9.797  0.00  0.00    +0.159 HD
ATOM      9  H   UNL     1     -14.052  -5.695   9.108  0.00  0.00    +0.159 HD
ENDROOT
BRANCH   1  10
ATOM     10  C   UNL     1     -11.186  -8.316   9.152  0.00  0.00    +0.151 C 
BRANCH  10  11
ATOM     11  C   UNL     1     -10.574  -9.502   8.459  0.00  0.00    -0.028 A 
ATOM     12  C   UNL     1     -10.649 -10.779   9.033  0.00  0.00    +0.005 A 
ATOM     13  C   UNL     1      -9.921  -9.356   7.226  0.00  0.00    +0.005 A 
ATOM     14  C   UNL     1     -10.106 -11.886   8.376  0.00  0.00    +0.000 A 
ATOM     15  C   UNL     1      -9.379 -10.463   6.573  0.00  0.00    +0.000 A 
ATOM     16  C   UNL     1      -9.474 -11.728   7.147  0.00  0.00    +0.000 A 
ENDBRANCH  10  11
ENDBRANCH   1  10
TORSDOF 2
ENDMDL
MODEL 7
REMARK VINA RESULT:    -4.132     20.701     21.281
REMARK INTER + INTRA:          -4.746
REMARK INTER:                  -4.601
REMARK INTRA:                  -0.146
REMARK UNBOUND:                -0.131
REMARK  Name = 1550473
REMARK  2 active torsions:
REMARK  status: ('A' for Active; 'I' for Inactive)
REMARK    1  A    between atoms: N_1  and  C_4
REMARK    2  A    between atoms: C_4  and  C_5
REMARK                            x       y       z     vdW  Elec       q    Type
REMARK                         _______ _______ _______ _____ _____    ______ ____
ROOT
ATOM      1  N   UNL     1     -10.873  -6.387   8.893  0.00  0.00    -0.354 N 
ATOM      2  N   UNL     1     -10.015  -4.663  10.181  0.00  0.00    -0.372 N 
ATOM      3  N   UNL     1     -12.052  -5.558  10.741  0.00  0.00    -0.372 N 
ATOM      4  C   UNL     1     -10.988  -5.547   9.931  0.00  0.00    +0.166 C 
ATOM      5  H   UNL     1     -10.055  -6.308   8.299  0.00  0.00    +0.163 HD
ATOM      6  H   UNL     1     -10.073  -4.019  10.959  0.00  0.00    +0.159 HD
ATOM      7  H   UNL     1      -9.178  -4.617   9.613  0.00  0.00    +0.159 HD
ATOM      8  H   UNL     1     -12.824  -6.197  10.603  0.00  0.00    +0.159 HD
ATOM      9  H   UNL     1     -12.134  -4.914  11.517  0.00  0.00    +0.159 HD
ENDROOT
BRANCH   1  10
ATOM     10  C   UNL     1     -11.850  -7.423   8.567  0.00  0.00    +0.151 C 
BRANCH  10  11
ATOM     11  C   UNL     1     -11.175  -8.766   8.607  0.00  0.00    -0.028 A 
ATOM     12  C   UNL     1     -10.544  -9.279   7.464  0.00  0.00    +0.005 A 
ATOM     13  C   UNL     1     -11.156  -9.527   9.785  0.00  0.00    +0.005 A 
ATOM     14  C   UNL     1      -9.890 -10.513   7.508  0.00  0.00    +0.000 A 
ATOM     15  C   UNL     1     -10.503 -10.759   9.825  0.00  0.00    +0.000 A 
ATOM     16  C   UNL     1      -9.868 -11.250   8.687  0.00  0.00    +0.000 A 
ENDBRANCH  10  11
ENDBRANCH   1  10
TORSDOF 2
ENDMDL
MODEL 8
REMARK VINA RESULT:    -4.071     19.019     22.236
REMARK INTER + INTRA:          -4.677
REMARK INTER:                  -4.568
REMARK INTRA:                  -0.109
REMARK UNBOUND:                -0.131
REMARK  Name = 1550473
REMARK  2 active torsions:
REMARK  status: ('A' for Active; 'I' for Inactive)
REMARK    1  A    between atoms: N_1  and  C_4
REMARK    2  A    between atoms: C_4  and  C_5
REMARK                            x       y       z     vdW  Elec       q    Type
REMARK                         _______ _______ _______ _____ _____    ______ ____
ROOT
ATOM      1  N   UNL     1      -2.699  14.673  -3.165  0.00  0.00    -0.354 N 
ATOM      2  N   UNL     1      -3.369  12.510  -2.682  0.00  0.00    -0.372 N 
ATOM      3  N   UNL     1      -1.549  12.829  -4.042  0.00  0.00    -0.372 N 
ATOM      4  C   UNL     1      -2.533  13.351  -3.301  0.00  0.00    +0.166 C 
ATOM      5  H   UNL     1      -3.483  15.006  -2.614  0.00  0.00    +0.163 HD
ATOM      6  H   UNL     1      -3.267  11.507  -2.763  0.00  0.00    +0.159 HD
ATOM      7  H   UNL     1      -4.124  12.844  -2.095  0.00  0.00    +0.159 HD
ATOM      8  H   UNL     1      -0.888  13.410  -4.539  0.00  0.00    +0.159 HD
ATOM      9  H   UNL     1      -1.437  11.828  -4.145  0.00  0.00    +0.159 HD
ENDROOT
BRANCH   1  10
ATOM     10  C   UNL     1      -1.811  15.674  -3.754  0.00  0.00    +0.151 C 
BRANCH  10  11
ATOM     11  C   UNL     1      -1.672  16.829  -2.800  0.00  0.00    -0.028 A 
ATOM     12  C   UNL     1      -0.403  17.282  -2.411  0.00  0.00    +0.005 A 
ATOM     13  C   UNL     1      -2.805  17.478  -2.287  0.00  0.00    +0.005 A 
ATOM     14  C   UNL     1      -0.273  18.373  -1.549  0.00  0.00    +0.000 A 
ATOM     15  C   UNL     1      -2.671  18.567  -1.426  0.00  0.00    +0.000 A 
ATOM     16  C   UNL     1      -1.405  19.016  -1.059  0.00  0.00    +0.000 A 
ENDBRANCH  10  11
ENDBRANCH   1  10
TORSDOF 2
ENDMDL
MODEL 9
REMARK VINA RESULT:    -3.995     18.619     19.790
REMARK INTER + INTRA:          -4.593
REMARK INTER:                  -4.437
REMARK INTRA:                  -0.156
REMARK UNBOUND:                -0.131
REMARK  Name = 1550473
REMARK  2 active torsions:
REMARK  status: ('A' for Active; 'I' for Inactive)
REMARK    1  A    between atoms: N_1  and  C_4
REMARK    2  A    between atoms: C_4  and  C_5
REMARK                            x       y       z     vdW  Elec       q    Type
REMARK                         _______ _______ _______ _____ _____    ______ ____
ROOT
ATOM      1  N   UNL     1      -2.498  14.238  -3.146  0.00  0.00    -0.354 N 
ATOM      2  N   UNL     1      -4.591  13.291  -3.440  0.00  0.00    -0.372 N 
ATOM      3  N   UNL     1      -2.833  11.938  -2.852  0.00  0.00    -0.372 N 
ATOM      4  C   UNL     1      -3.292  13.159  -3.144  0.00  0.00    +0.166 C 
ATOM      5  H   UNL     1      -2.901  15.132  -3.405  0.00  0.00    +0.163 HD
ATOM      6  H   UNL     1      -5.215  12.495  -3.442  0.00  0.00    +0.159 HD
ATOM      7  H   UNL     1      -5.001  14.192  -3.653  0.00  0.00    +0.159 HD
ATOM      8  H   UNL     1      -1.862  11.770  -2.626  0.00  0.00    +0.159 HD
ATOM      9  H   UNL     1      -3.440  11.127  -2.861  0.00  0.00    +0.159 HD
ENDROOT
BRANCH   1  10
ATOM     10  C   UNL     1      -1.082  14.212  -2.786  0.00  0.00    +0.151 C 
BRANCH  10  11
ATOM     11  C   UNL     1      -0.256  14.409  -4.027  0.00  0.00    -0.028 A 
ATOM     12  C   UNL     1      -0.131  13.378  -4.970  0.00  0.00    +0.005 A 
ATOM     13  C   UNL     1       0.401  15.626  -4.268  0.00  0.00    +0.005 A 
ATOM     14  C   UNL     1       0.612  13.571  -6.137  0.00  0.00    +0.000 A 
ATOM     15  C   UNL     1       1.142  15.814  -5.434  0.00  0.00    +0.000 A 
ATOM     16  C   UNL     1       1.245  14.787  -6.370  0.00  0.00    +0.000 A 
ENDBRANCH  10  11
ENDBRANCH   1  10
TORSDOF 2
ENDMDL
