MODEL 1
REMARK VINA RESULT:    -6.071      0.000      0.000
REMARK INTER + INTRA:          -6.930
REMARK INTER:                  -6.781
REMARK INTRA:                  -0.149
REMARK UNBOUND:                -0.149
REMARK  Name = 1550473
REMARK  2 active torsions:
REMARK  status: ('A' for Active; 'I' for Inactive)
REMARK    1  A    between atoms: N_1  and  C_4
REMARK    2  A    between atoms: C_4  and  C_5
REMARK                            x       y       z     vdW  Elec       q    Type
REMARK                         _______ _______ _______ _____ _____    ______ ____
ROOT
ATOM      1  N   UNL     1      12.007   6.164   0.438  0.00  0.00    -0.354 N 
ATOM      2  N   UNL     1      12.432   6.518   2.687  0.00  0.00    -0.372 N 
ATOM      3  N   UNL     1      10.259   6.552   1.950  0.00  0.00    -0.372 N 
ATOM      4  C   UNL     1      11.561   6.409   1.677  0.00  0.00    +0.166 C 
ATOM      5  H   UNL     1      13.008   6.096   0.291  0.00  0.00    +0.163 HD
ATOM      6  H   UNL     1      12.125   6.699   3.633  0.00  0.00    +0.159 HD
ATOM      7  H   UNL     1      13.429   6.404   2.546  0.00  0.00    +0.159 HD
ATOM      8  H   UNL     1       9.551   6.487   1.231  0.00  0.00    +0.159 HD
ATOM      9  H   UNL     1       9.933   6.745   2.889  0.00  0.00    +0.159 HD
ENDROOT
BRANCH   1  10
ATOM     10  C   UNL     1      11.138   5.975  -0.722  0.00  0.00    +0.151 C 
BRANCH  10  11
ATOM     11  C   UNL     1      11.427   4.634  -1.339  0.00  0.00    -0.028 A 
ATOM     12  C   UNL     1      11.150   3.452  -0.637  0.00  0.00    +0.005 A 
ATOM     13  C   UNL     1      11.973   4.539  -2.629  0.00  0.00    +0.005 A 
ATOM     14  C   UNL     1      11.391   2.207  -1.222  0.00  0.00    +0.000 A 
ATOM     15  C   UNL     1      12.213   3.294  -3.209  0.00  0.00    +0.000 A 
ATOM     16  C   UNL     1      11.919   2.128  -2.506  0.00  0.00    +0.000 A 
ENDBRANCH  10  11
ENDBRANCH   1  10
TORSDOF 2
ENDMDL
MODEL 2
REMARK VINA RESULT:    -5.562      3.101      4.426
REMARK INTER + INTRA:          -6.361
REMARK INTER:                  -6.229
REMARK INTRA:                  -0.132
REMARK UNBOUND:                -0.149
REMARK  Name = 1550473
REMARK  2 active torsions:
REMARK  status: ('A' for Active; 'I' for Inactive)
REMARK    1  A    between atoms: N_1  and  C_4
REMARK    2  A    between atoms: C_4  and  C_5
REMARK                            x       y       z     vdW  Elec       q    Type
REMARK                         _______ _______ _______ _____ _____    ______ ____
ROOT
ATOM      1  N   UNL     1      12.796   7.089  -3.241  0.00  0.00    -0.354 N 
ATOM      2  N   UNL     1      12.218   9.035  -4.356  0.00  0.00    -0.372 N 
ATOM      3  N   UNL     1      12.945   7.233  -5.575  0.00  0.00    -0.372 N 
ATOM      4  C   UNL     1      12.658   7.772  -4.386  0.00  0.00    +0.166 C 
ATOM      5  H   UNL     1      12.590   7.565  -2.370  0.00  0.00    +0.163 HD
ATOM      6  H   UNL     1      12.100   9.574  -5.204  0.00  0.00    +0.159 HD
ATOM      7  H   UNL     1      11.969   9.493  -3.487  0.00  0.00    +0.159 HD
ATOM      8  H   UNL     1      13.287   6.286  -5.666  0.00  0.00    +0.159 HD
ATOM      9  H   UNL     1      12.845   7.760  -6.434  0.00  0.00    +0.159 HD
ENDROOT
BRANCH   1  10
ATOM     10  C   UNL     1      13.216   5.691  -3.168  0.00  0.00    +0.151 C 
BRANCH  10  11
ATOM     11  C   UNL     1      12.259   4.936  -2.288  0.00  0.00    -0.028 A 
ATOM     12  C   UNL     1      11.978   3.584  -2.537  0.00  0.00    +0.005 A 
ATOM     13  C   UNL     1      11.633   5.565  -1.201  0.00  0.00    +0.005 A 
ATOM     14  C   UNL     1      11.112   2.874  -1.702  0.00  0.00    +0.000 A 
ATOM     15  C   UNL     1      10.768   4.852  -0.370  0.00  0.00    +0.000 A 
ATOM     16  C   UNL     1      10.510   3.507  -0.619  0.00  0.00    +0.000 A 
ENDBRANCH  10  11
ENDBRANCH   1  10
TORSDOF 2
ENDMDL
MODEL 3
REMARK VINA RESULT:    -5.353      1.367      2.053
REMARK INTER + INTRA:          -6.128
REMARK INTER:                  -5.979
REMARK INTRA:                  -0.149
REMARK UNBOUND:                -0.149
REMARK  Name = 1550473
REMARK  2 active torsions:
REMARK  status: ('A' for Active; 'I' for Inactive)
REMARK    1  A    between atoms: N_1  and  C_4
REMARK    2  A    between atoms: C_4  and  C_5
REMARK                            x       y       z     vdW  Elec       q    Type
REMARK                         _______ _______ _______ _____ _____    ______ ____
ROOT
ATOM      1  N   UNL     1      11.988   6.806   0.575  0.00  0.00    -0.354 N 
ATOM      2  N   UNL     1      11.570   7.843   2.603  0.00  0.00    -0.372 N 
ATOM      3  N   UNL     1      13.702   7.132   2.140  0.00  0.00    -0.372 N 
ATOM      4  C   UNL     1      12.425   7.253   1.760  0.00  0.00    +0.166 C 
ATOM      5  H   UNL     1      11.003   6.900   0.359  0.00  0.00    +0.163 HD
ATOM      6  H   UNL     1      11.871   8.193   3.503  0.00  0.00    +0.159 HD
ATOM      7  H   UNL     1      10.595   7.977   2.365  0.00  0.00    +0.159 HD
ATOM      8  H   UNL     1      14.396   6.691   1.552  0.00  0.00    +0.159 HD
ATOM      9  H   UNL     1      14.020   7.466   3.041  0.00  0.00    +0.159 HD
ENDROOT
BRANCH   1  10
ATOM     10  C   UNL     1      12.849   6.197  -0.438  0.00  0.00    +0.151 C 
BRANCH  10  11
ATOM     11  C   UNL     1      12.373   4.797  -0.710  0.00  0.00    -0.028 A 
ATOM     12  C   UNL     1      13.169   3.904  -1.442  0.00  0.00    +0.005 A 
ATOM     13  C   UNL     1      11.129   4.355  -0.234  0.00  0.00    +0.005 A 
ATOM     14  C   UNL     1      12.741   2.594  -1.670  0.00  0.00    +0.000 A 
ATOM     15  C   UNL     1      10.705   3.047  -0.464  0.00  0.00    +0.000 A 
ATOM     16  C   UNL     1      11.512   2.166  -1.180  0.00  0.00    +0.000 A 
ENDBRANCH  10  11
ENDBRANCH   1  10
TORSDOF 2
ENDMDL
MODEL 4
REMARK VINA RESULT:    -5.206     23.662     24.755
REMARK INTER + INTRA:          -5.964
REMARK INTER:                  -5.868
REMARK INTRA:                  -0.097
REMARK UNBOUND:                -0.149
REMARK  Name = 1550473
REMARK  2 active torsions:
REMARK  status: ('A' for Active; 'I' for Inactive)
REMARK    1  A    between atoms: N_1  and  C_4
REMARK    2  A    between atoms: C_4  and  C_5
REMARK                            x       y       z     vdW  Elec       q    Type
REMARK                         _______ _______ _______ _____ _____    ______ ____
ROOT
ATOM      1  N   UNL     1      -5.905  -8.682  -7.589  0.00  0.00    -0.354 N 
ATOM      2  N   UNL     1      -4.172  -7.364  -8.377  0.00  0.00    -0.372 N 
ATOM      3  N   UNL     1      -5.896  -6.365  -7.238  0.00  0.00    -0.372 N 
ATOM      4  C   UNL     1      -5.337  -7.477  -7.728  0.00  0.00    +0.166 C 
ATOM      5  H   UNL     1      -5.447  -9.482  -8.010  0.00  0.00    +0.163 HD
ATOM      6  H   UNL     1      -3.718  -6.468  -8.495  0.00  0.00    +0.159 HD
ATOM      7  H   UNL     1      -3.693  -8.171  -8.757  0.00  0.00    +0.159 HD
ATOM      8  H   UNL     1      -6.777  -6.382  -6.743  0.00  0.00    +0.159 HD
ATOM      9  H   UNL     1      -5.462  -5.458  -7.355  0.00  0.00    +0.159 HD
ENDROOT
BRANCH   1  10
ATOM     10  C   UNL     1      -7.146  -8.922  -6.854  0.00  0.00    +0.151 C 
BRANCH  10  11
ATOM     11  C   UNL     1      -7.579 -10.345  -7.071  0.00  0.00    -0.028 A 
ATOM     12  C   UNL     1      -8.085 -10.754  -8.314  0.00  0.00    +0.005 A 
ATOM     13  C   UNL     1      -7.481 -11.292  -6.040  0.00  0.00    +0.005 A 
ATOM     14  C   UNL     1      -8.459 -12.083  -8.526  0.00  0.00    +0.000 A 
ATOM     15  C   UNL     1      -7.857 -12.618  -6.255  0.00  0.00    +0.000 A 
ATOM     16  C   UNL     1      -8.343 -13.013  -7.499  0.00  0.00    +0.000 A 
ENDBRANCH  10  11
ENDBRANCH   1  10
TORSDOF 2
ENDMDL
MODEL 5
REMARK VINA RESULT:    -5.141      1.916      2.313
REMARK INTER + INTRA:          -5.891
REMARK INTER:                  -5.801
REMARK INTRA:                  -0.091
REMARK UNBOUND:                -0.149
REMARK  Name = 1550473
REMARK  2 active torsions:
REMARK  status: ('A' for Active; 'I' for Inactive)
REMARK    1  A    between atoms: N_1  and  C_4
REMARK    2  A    between atoms: C_4  and  C_5
REMARK                            x       y       z     vdW  Elec       q    Type
REMARK                         _______ _______ _______ _____ _____    ______ ____
ROOT
ATOM      1  N   UNL     1      12.293   6.492   0.562  0.00  0.00    -0.354 N 
ATOM      2  N   UNL     1      11.868   8.216   2.049  0.00  0.00    -0.372 N 
ATOM      3  N   UNL     1      10.376   6.478   1.910  0.00  0.00    -0.372 N 
ATOM      4  C   UNL     1      11.512   7.049   1.497  0.00  0.00    +0.166 C 
ATOM      5  H   UNL     1      13.126   6.990   0.271  0.00  0.00    +0.163 HD
ATOM      6  H   UNL     1      11.301   8.658   2.760  0.00  0.00    +0.159 HD
ATOM      7  H   UNL     1      12.725   8.689   1.790  0.00  0.00    +0.159 HD
ATOM      8  H   UNL     1      10.049   5.600   1.529  0.00  0.00    +0.159 HD
ATOM      9  H   UNL     1       9.789   6.911   2.611  0.00  0.00    +0.159 HD
ENDROOT
BRANCH   1  10
ATOM     10  C   UNL     1      12.024   5.197  -0.062  0.00  0.00    +0.151 C 
BRANCH  10  11
ATOM     11  C   UNL     1      12.993   4.987  -1.193  0.00  0.00    -0.028 A 
ATOM     12  C   UNL     1      14.226   4.359  -0.967  0.00  0.00    +0.005 A 
ATOM     13  C   UNL     1      12.680   5.408  -2.495  0.00  0.00    +0.005 A 
ATOM     14  C   UNL     1      15.114   4.137  -2.023  0.00  0.00    +0.000 A 
ATOM     15  C   UNL     1      13.569   5.185  -3.546  0.00  0.00    +0.000 A 
ATOM     16  C   UNL     1      14.785   4.547  -3.310  0.00  0.00    +0.000 A 
ENDBRANCH  10  11
ENDBRANCH   1  10
TORSDOF 2
ENDMDL
MODEL 6
REMARK VINA RESULT:    -5.137      3.391      4.832
REMARK INTER + INTRA:          -5.887
REMARK INTER:                  -5.708
REMARK INTRA:                  -0.180
REMARK UNBOUND:                -0.149
REMARK  Name = 1550473
REMARK  2 active torsions:
REMARK  status: ('A' for Active; 'I' for Inactive)
REMARK    1  A    between atoms: N_1  and  C_4
REMARK    2  A    between atoms: C_4  and  C_5
REMARK                            x       y       z     vdW  Elec       q    Type
REMARK                         _______ _______ _______ _____ _____    ______ ____
ROOT
ATOM      1  N   UNL     1      11.310   4.102  -3.852  0.00  0.00    -0.354 N 
ATOM      2  N   UNL     1      10.189   5.164  -5.578  0.00  0.00    -0.372 N 
ATOM      3  N   UNL     1       8.969   4.154  -3.918  0.00  0.00    -0.372 N 
ATOM      4  C   UNL     1      10.161   4.465  -4.437  0.00  0.00    +0.166 C 
ATOM      5  H   UNL     1      12.181   4.342  -4.312  0.00  0.00    +0.163 HD
ATOM      6  H   UNL     1       9.338   5.455  -6.041  0.00  0.00    +0.159 HD
ATOM      7  H   UNL     1      11.061   5.442  -6.011  0.00  0.00    +0.159 HD
ATOM      8  H   UNL     1       8.879   3.624  -3.062  0.00  0.00    +0.159 HD
ATOM      9  H   UNL     1       8.106   4.427  -4.372  0.00  0.00    +0.159 HD
ENDROOT
BRANCH   1  10
ATOM     10  C   UNL     1      11.390   3.387  -2.580  0.00  0.00    +0.151 C 
BRANCH  10  11
ATOM     11  C   UNL     1      11.750   4.359  -1.491  0.00  0.00    -0.028 A 
ATOM     12  C   UNL     1      10.747   4.984  -0.735  0.00  0.00    +0.005 A 
ATOM     13  C   UNL     1      13.091   4.656  -1.206  0.00  0.00    +0.005 A 
ATOM     14  C   UNL     1      11.081   5.865   0.296  0.00  0.00    +0.000 A 
ATOM     15  C   UNL     1      13.420   5.537  -0.176  0.00  0.00    +0.000 A 
ATOM     16  C   UNL     1      12.415   6.139   0.577  0.00  0.00    +0.000 A 
ENDBRANCH  10  11
ENDBRANCH   1  10
TORSDOF 2
ENDMDL
MODEL 7
REMARK VINA RESULT:    -5.058      2.063      2.882
REMARK INTER + INTRA:          -5.798
REMARK INTER:                  -5.644
REMARK INTRA:                  -0.154
REMARK UNBOUND:                -0.149
REMARK  Name = 1550473
REMARK  2 active torsions:
REMARK  status: ('A' for Active; 'I' for Inactive)
REMARK    1  A    between atoms: N_1  and  C_4
REMARK    2  A    between atoms: C_4  and  C_5
REMARK                            x       y       z     vdW  Elec       q    Type
REMARK                         _______ _______ _______ _____ _____    ______ ____
ROOT
ATOM      1  N   UNL     1      12.325   6.585  -0.274  0.00  0.00    -0.354 N 
ATOM      2  N   UNL     1      10.336   7.056   0.814  0.00  0.00    -0.372 N 
ATOM      3  N   UNL     1      10.760   4.897   0.164  0.00  0.00    -0.372 N 
ATOM      4  C   UNL     1      11.153   6.174   0.227  0.00  0.00    +0.166 C 
ATOM      5  H   UNL     1      12.551   7.572  -0.222  0.00  0.00    +0.163 HD
ATOM      6  H   UNL     1       9.447   6.775   1.205  0.00  0.00    +0.159 HD
ATOM      7  H   UNL     1      10.585   8.034   0.907  0.00  0.00    +0.159 HD
ATOM      8  H   UNL     1      11.328   4.183  -0.272  0.00  0.00    +0.159 HD
ATOM      9  H   UNL     1       9.868   4.598   0.539  0.00  0.00    +0.159 HD
ENDROOT
BRANCH   1  10
ATOM     10  C   UNL     1      13.311   5.695  -0.886  0.00  0.00    +0.151 C 
BRANCH  10  11
ATOM     11  C   UNL     1      13.056   5.624  -2.366  0.00  0.00    -0.028 A 
ATOM     12  C   UNL     1      13.002   4.385  -3.020  0.00  0.00    +0.005 A 
ATOM     13  C   UNL     1      12.864   6.793  -3.119  0.00  0.00    +0.005 A 
ATOM     14  C   UNL     1      12.736   4.317  -4.390  0.00  0.00    +0.000 A 
ATOM     15  C   UNL     1      12.599   6.720  -4.487  0.00  0.00    +0.000 A 
ATOM     16  C   UNL     1      12.533   5.482  -5.121  0.00  0.00    +0.000 A 
ENDBRANCH  10  11
ENDBRANCH   1  10
TORSDOF 2
ENDMDL
MODEL 8
REMARK VINA RESULT:    -4.968     24.550     25.621
REMARK INTER + INTRA:          -5.698
REMARK INTER:                  -5.517
REMARK INTRA:                  -0.181
REMARK UNBOUND:                -0.149
REMARK  Name = 1550473
REMARK  2 active torsions:
REMARK  status: ('A' for Active; 'I' for Inactive)
REMARK    1  A    between atoms: N_1  and  C_4
REMARK    2  A    between atoms: C_4  and  C_5
REMARK                            x       y       z     vdW  Elec       q    Type
REMARK                         _______ _______ _______ _____ _____    ______ ____
ROOT
ATOM      1  N   UNL     1      -7.846  -9.189  -7.405  0.00  0.00    -0.354 N 
ATOM      2  N   UNL     1      -6.795  -7.627  -8.754  0.00  0.00    -0.372 N 
ATOM      3  N   UNL     1      -7.779  -9.454  -9.733  0.00  0.00    -0.372 N 
ATOM      4  C   UNL     1      -7.481  -8.769  -8.624  0.00  0.00    +0.166 C 
ATOM      5  H   UNL     1      -7.562  -8.640  -6.602  0.00  0.00    +0.163 HD
ATOM      6  H   UNL     1      -6.509  -7.283  -9.661  0.00  0.00    +0.159 HD
ATOM      7  H   UNL     1      -6.553  -7.057  -7.953  0.00  0.00    +0.159 HD
ATOM      8  H   UNL     1      -8.290 -10.327  -9.702  0.00  0.00    +0.159 HD
ATOM      9  H   UNL     1      -7.492  -9.132 -10.648  0.00  0.00    +0.159 HD
ENDROOT
BRANCH   1  10
ATOM     10  C   UNL     1      -8.641 -10.391  -7.159  0.00  0.00    +0.151 C 
BRANCH  10  11
ATOM     11  C   UNL     1      -7.736 -11.486  -6.665  0.00  0.00    -0.028 A 
ATOM     12  C   UNL     1      -7.267 -12.473  -7.545  0.00  0.00    +0.005 A 
ATOM     13  C   UNL     1      -7.340 -11.540  -5.320  0.00  0.00    +0.005 A 
ATOM     14  C   UNL     1      -6.403 -13.473  -7.094  0.00  0.00    +0.000 A 
ATOM     15  C   UNL     1      -6.477 -12.541  -4.874  0.00  0.00    +0.000 A 
ATOM     16  C   UNL     1      -6.007 -13.506  -5.761  0.00  0.00    +0.000 A 
ENDBRANCH  10  11
ENDBRANCH   1  10
TORSDOF 2
ENDMDL
MODEL 9
REMARK VINA RESULT:    -4.929     18.312     19.708
REMARK INTER + INTRA:          -5.654
REMARK INTER:                  -5.498
REMARK INTRA:                  -0.156
REMARK UNBOUND:                -0.149
REMARK  Name = 1550473
REMARK  2 active torsions:
REMARK  status: ('A' for Active; 'I' for Inactive)
REMARK    1  A    between atoms: N_1  and  C_4
REMARK    2  A    between atoms: C_4  and  C_5
REMARK                            x       y       z     vdW  Elec       q    Type
REMARK                         _______ _______ _______ _____ _____    ______ ____
ROOT
ATOM      1  N   UNL     1       1.559  -8.919  -7.026  0.00  0.00    -0.354 N 
ATOM      2  N   UNL     1       3.190  -7.278  -6.926  0.00  0.00    -0.372 N 
ATOM      3  N   UNL     1       2.756  -8.289  -8.940  0.00  0.00    -0.372 N 
ATOM      4  C   UNL     1       2.491  -8.173  -7.634  0.00  0.00    +0.166 C 
ATOM      5  H   UNL     1       1.427  -8.805  -6.028  0.00  0.00    +0.163 HD
ATOM      6  H   UNL     1       3.897  -6.698  -7.358  0.00  0.00    +0.159 HD
ATOM      7  H   UNL     1       3.024  -7.133  -5.938  0.00  0.00    +0.159 HD
ATOM      8  H   UNL     1       2.268  -8.950  -9.529  0.00  0.00    +0.159 HD
ATOM      9  H   UNL     1       3.468  -7.726  -9.388  0.00  0.00    +0.159 HD
ENDROOT
BRANCH   1  10
ATOM     10  C   UNL     1       0.706  -9.884  -7.717  0.00  0.00    +0.151 C 
BRANCH  10  11
ATOM     11  C   UNL     1       1.047 -11.270  -7.241  0.00  0.00    -0.028 A 
ATOM     12  C   UNL     1       1.675 -12.183  -8.101  0.00  0.00    +0.005 A 
ATOM     13  C   UNL     1       0.749 -11.673  -5.931  0.00  0.00    +0.005 A 
ATOM     14  C   UNL     1       2.020 -13.460  -7.650  0.00  0.00    +0.000 A 
ATOM     15  C   UNL     1       1.094 -12.949  -5.485  0.00  0.00    +0.000 A 
ATOM     16  C   UNL     1       1.731 -13.841  -6.344  0.00  0.00    +0.000 A 
ENDBRANCH  10  11
ENDBRANCH   1  10
TORSDOF 2
ENDMDL
