MODEL 1
REMARK VINA RESULT:    -5.255      0.000      0.000
REMARK INTER + INTRA:          -5.975
REMARK INTER:                  -5.869
REMARK INTRA:                  -0.106
REMARK UNBOUND:                -0.106
REMARK  Name = 1550473
REMARK  2 active torsions:
REMARK  status: ('A' for Active; 'I' for Inactive)
REMARK    1  A    between atoms: N_1  and  C_4
REMARK    2  A    between atoms: C_4  and  C_5
REMARK                            x       y       z     vdW  Elec       q    Type
REMARK                         _______ _______ _______ _____ _____    ______ ____
ROOT
ATOM      1  N   UNL     1      -8.597  -2.505   5.606  0.00  0.00    -0.354 N 
ATOM      2  N   UNL     1      -8.826  -2.536   3.301  0.00  0.00    -0.372 N 
ATOM      3  N   UNL     1      -8.917  -0.523   4.398  0.00  0.00    -0.372 N 
ATOM      4  C   UNL     1      -8.779  -1.852   4.451  0.00  0.00    +0.166 C 
ATOM      5  H   UNL     1      -8.529  -3.516   5.582  0.00  0.00    +0.163 HD
ATOM      6  H   UNL     1      -8.959  -2.070   2.414  0.00  0.00    +0.159 HD
ATOM      7  H   UNL     1      -8.712  -3.542   3.276  0.00  0.00    +0.159 HD
ATOM      8  H   UNL     1      -8.897   0.051   5.230  0.00  0.00    +0.159 HD
ATOM      9  H   UNL     1      -9.063  -0.039   3.520  0.00  0.00    +0.159 HD
ENDROOT
BRANCH   1  10
ATOM     10  C   UNL     1      -8.477  -1.848   6.906  0.00  0.00    +0.151 C 
BRANCH  10  11
ATOM     11  C   UNL     1      -8.197  -2.887   7.957  0.00  0.00    -0.028 A 
ATOM     12  C   UNL     1      -8.993  -4.038   8.050  0.00  0.00    +0.005 A 
ATOM     13  C   UNL     1      -7.135  -2.729   8.860  0.00  0.00    +0.005 A 
ATOM     14  C   UNL     1      -8.715  -5.018   9.006  0.00  0.00    +0.000 A 
ATOM     15  C   UNL     1      -6.861  -3.709   9.814  0.00  0.00    +0.000 A 
ATOM     16  C   UNL     1      -7.650  -4.854   9.885  0.00  0.00    +0.000 A 
ENDBRANCH  10  11
ENDBRANCH   1  10
TORSDOF 2
ENDMDL
MODEL 2
REMARK VINA RESULT:    -5.160     12.839     13.491
REMARK INTER + INTRA:          -5.869
REMARK INTER:                  -5.773
REMARK INTRA:                  -0.096
REMARK UNBOUND:                -0.106
REMARK  Name = 1550473
REMARK  2 active torsions:
REMARK  status: ('A' for Active; 'I' for Inactive)
REMARK    1  A    between atoms: N_1  and  C_4
REMARK    2  A    between atoms: C_4  and  C_5
REMARK                            x       y       z     vdW  Elec       q    Type
REMARK                         _______ _______ _______ _____ _____    ______ ____
ROOT
ATOM      1  N   UNL     1       1.709 -10.345   4.623  0.00  0.00    -0.354 N 
ATOM      2  N   UNL     1       2.499  -9.494   6.628  0.00  0.00    -0.372 N 
ATOM      3  N   UNL     1       3.965 -10.561   5.222  0.00  0.00    -0.372 N 
ATOM      4  C   UNL     1       2.722 -10.140   5.477  0.00  0.00    +0.166 C 
ATOM      5  H   UNL     1       0.784 -10.029   4.889  0.00  0.00    +0.163 HD
ATOM      6  H   UNL     1       3.243  -9.322   7.289  0.00  0.00    +0.159 HD
ATOM      7  H   UNL     1       1.582  -9.138   6.870  0.00  0.00    +0.159 HD
ATOM      8  H   UNL     1       4.198 -11.060   4.373  0.00  0.00    +0.159 HD
ATOM      9  H   UNL     1       4.721 -10.408   5.877  0.00  0.00    +0.159 HD
ENDROOT
BRANCH   1  10
ATOM     10  C   UNL     1       1.857 -10.991   3.320  0.00  0.00    +0.151 C 
BRANCH  10  11
ATOM     11  C   UNL     1       0.511 -11.479   2.858  0.00  0.00    -0.028 A 
ATOM     12  C   UNL     1       0.038 -12.740   3.250  0.00  0.00    +0.005 A 
ATOM     13  C   UNL     1      -0.298 -10.682   2.034  0.00  0.00    +0.005 A 
ATOM     14  C   UNL     1      -1.224 -13.181   2.846  0.00  0.00    +0.000 A 
ATOM     15  C   UNL     1      -1.558 -11.126   1.632  0.00  0.00    +0.000 A 
ATOM     16  C   UNL     1      -2.021 -12.375   2.040  0.00  0.00    +0.000 A 
ENDBRANCH  10  11
ENDBRANCH   1  10
TORSDOF 2
ENDMDL
MODEL 3
REMARK VINA RESULT:    -5.157      2.841      4.888
REMARK INTER + INTRA:          -5.865
REMARK INTER:                  -5.728
REMARK INTRA:                  -0.137
REMARK UNBOUND:                -0.106
REMARK  Name = 1550473
REMARK  2 active torsions:
REMARK  status: ('A' for Active; 'I' for Inactive)
REMARK    1  A    between atoms: N_1  and  C_4
REMARK    2  A    between atoms: C_4  and  C_5
REMARK                            x       y       z     vdW  Elec       q    Type
REMARK                         _______ _______ _______ _____ _____    ______ ____
ROOT
ATOM      1  N   UNL     1      -9.590  -3.691   8.750  0.00  0.00    -0.354 N 
ATOM      2  N   UNL     1      -9.974  -5.944   9.128  0.00  0.00    -0.372 N 
ATOM      3  N   UNL     1      -7.822  -5.155   9.222  0.00  0.00    -0.372 N 
ATOM      4  C   UNL     1      -9.123  -4.915   9.031  0.00  0.00    +0.166 C 
ATOM      5  H   UNL     1     -10.584  -3.581   8.586  0.00  0.00    +0.163 HD
ATOM      6  H   UNL     1      -9.652  -6.878   9.343  0.00  0.00    +0.159 HD
ATOM      7  H   UNL     1     -10.973  -5.822   9.009  0.00  0.00    +0.159 HD
ATOM      8  H   UNL     1      -7.127  -4.422   9.157  0.00  0.00    +0.159 HD
ATOM      9  H   UNL     1      -7.478  -6.085   9.426  0.00  0.00    +0.159 HD
ENDROOT
BRANCH   1  10
ATOM     10  C   UNL     1      -8.754  -2.494   8.675  0.00  0.00    +0.151 C 
BRANCH  10  11
ATOM     11  C   UNL     1      -8.834  -1.925   7.285  0.00  0.00    -0.028 A 
ATOM     12  C   UNL     1      -8.630  -2.746   6.167  0.00  0.00    +0.005 A 
ATOM     13  C   UNL     1      -9.120  -0.567   7.080  0.00  0.00    +0.005 A 
ATOM     14  C   UNL     1      -8.734  -2.225   4.875  0.00  0.00    +0.000 A 
ATOM     15  C   UNL     1      -9.222  -0.049   5.789  0.00  0.00    +0.000 A 
ATOM     16  C   UNL     1      -9.031  -0.879   4.687  0.00  0.00    +0.000 A 
ENDBRANCH  10  11
ENDBRANCH   1  10
TORSDOF 2
ENDMDL
MODEL 4
REMARK VINA RESULT:    -4.870     24.386     27.008
REMARK INTER + INTRA:          -5.545
REMARK INTER:                  -5.434
REMARK INTRA:                  -0.111
REMARK UNBOUND:                -0.106
REMARK  Name = 1550473
REMARK  2 active torsions:
REMARK  status: ('A' for Active; 'I' for Inactive)
REMARK    1  A    between atoms: N_1  and  C_4
REMARK    2  A    between atoms: C_4  and  C_5
REMARK                            x       y       z     vdW  Elec       q    Type
REMARK                         _______ _______ _______ _____ _____    ______ ____
ROOT
ATOM      1  N   UNL     1       3.482  -5.183 -15.050  0.00  0.00    -0.354 N 
ATOM      2  N   UNL     1       3.470  -5.282 -12.737  0.00  0.00    -0.372 N 
ATOM      3  N   UNL     1       4.936  -6.613 -13.897  0.00  0.00    -0.372 N 
ATOM      4  C   UNL     1       3.965  -5.694 -13.910  0.00  0.00    +0.166 C 
ATOM      5  H   UNL     1       2.724  -4.512 -14.994  0.00  0.00    +0.163 HD
ATOM      6  H   UNL     1       3.817  -5.647 -11.860  0.00  0.00    +0.159 HD
ATOM      7  H   UNL     1       2.745  -4.577 -12.682  0.00  0.00    +0.159 HD
ATOM      8  H   UNL     1       5.347  -6.970 -14.748  0.00  0.00    +0.159 HD
ATOM      9  H   UNL     1       5.288  -6.999 -13.029  0.00  0.00    +0.159 HD
ENDROOT
BRANCH   1  10
ATOM     10  C   UNL     1       3.988  -5.524 -16.379  0.00  0.00    +0.151 C 
BRANCH  10  11
ATOM     11  C   UNL     1       3.713  -4.382 -17.318  0.00  0.00    -0.028 A 
ATOM     12  C   UNL     1       4.678  -3.982 -18.253  0.00  0.00    +0.005 A 
ATOM     13  C   UNL     1       2.487  -3.701 -17.281  0.00  0.00    +0.005 A 
ATOM     14  C   UNL     1       4.412  -2.940 -19.146  0.00  0.00    +0.000 A 
ATOM     15  C   UNL     1       2.225  -2.662 -18.173  0.00  0.00    +0.000 A 
ATOM     16  C   UNL     1       3.186  -2.283 -19.107  0.00  0.00    +0.000 A 
ENDBRANCH  10  11
ENDBRANCH   1  10
TORSDOF 2
ENDMDL
MODEL 5
REMARK VINA RESULT:    -4.866     17.303     18.760
REMARK INTER + INTRA:          -5.541
REMARK INTER:                  -5.413
REMARK INTRA:                  -0.128
REMARK UNBOUND:                -0.106
REMARK  Name = 1550473
REMARK  2 active torsions:
REMARK  status: ('A' for Active; 'I' for Inactive)
REMARK    1  A    between atoms: N_1  and  C_4
REMARK    2  A    between atoms: C_4  and  C_5
REMARK                            x       y       z     vdW  Elec       q    Type
REMARK                         _______ _______ _______ _____ _____    ______ ____
ROOT
ATOM      1  N   UNL     1       0.160  13.144  -1.107  0.00  0.00    -0.354 N 
ATOM      2  N   UNL     1      -1.037  14.880  -0.149  0.00  0.00    -0.372 N 
ATOM      3  N   UNL     1      -2.087  13.512  -1.663  0.00  0.00    -0.372 N 
ATOM      4  C   UNL     1      -0.982  13.833  -0.981  0.00  0.00    +0.166 C 
ATOM      5  H   UNL     1       0.971  13.456  -0.586  0.00  0.00    +0.163 HD
ATOM      6  H   UNL     1      -1.885  15.417  -0.031  0.00  0.00    +0.159 HD
ATOM      7  H   UNL     1      -0.238  15.162   0.405  0.00  0.00    +0.159 HD
ATOM      8  H   UNL     1      -2.110  12.736  -2.311  0.00  0.00    +0.159 HD
ATOM      9  H   UNL     1      -2.943  14.044  -1.566  0.00  0.00    +0.159 HD
ENDROOT
BRANCH   1  10
ATOM     10  C   UNL     1       0.310  11.955  -1.946  0.00  0.00    +0.151 C 
BRANCH  10  11
ATOM     11  C   UNL     1       0.894  10.843  -1.120  0.00  0.00    -0.028 A 
ATOM     12  C   UNL     1       0.059   9.905  -0.495  0.00  0.00    +0.005 A 
ATOM     13  C   UNL     1       2.283  10.717  -0.964  0.00  0.00    +0.005 A 
ATOM     14  C   UNL     1       0.603   8.854   0.247  0.00  0.00    +0.000 A 
ATOM     15  C   UNL     1       2.823   9.666  -0.222  0.00  0.00    +0.000 A 
ATOM     16  C   UNL     1       1.982   8.734   0.382  0.00  0.00    +0.000 A 
ENDBRANCH  10  11
ENDBRANCH   1  10
TORSDOF 2
ENDMDL
MODEL 6
REMARK VINA RESULT:    -4.824      4.032      5.811
REMARK INTER + INTRA:          -5.494
REMARK INTER:                  -5.423
REMARK INTRA:                  -0.070
REMARK UNBOUND:                -0.106
REMARK  Name = 1550473
REMARK  2 active torsions:
REMARK  status: ('A' for Active; 'I' for Inactive)
REMARK    1  A    between atoms: N_1  and  C_4
REMARK    2  A    between atoms: C_4  and  C_5
REMARK                            x       y       z     vdW  Elec       q    Type
REMARK                         _______ _______ _______ _____ _____    ______ ____
ROOT
ATOM      1  N   UNL     1      -6.662  -5.236  10.584  0.00  0.00    -0.354 N 
ATOM      2  N   UNL     1      -5.564  -5.019  12.612  0.00  0.00    -0.372 N 
ATOM      3  N   UNL     1      -7.845  -4.773  12.553  0.00  0.00    -0.372 N 
ATOM      4  C   UNL     1      -6.700  -5.010  11.904  0.00  0.00    +0.166 C 
ATOM      5  H   UNL     1      -5.759  -5.380  10.146  0.00  0.00    +0.163 HD
ATOM      6  H   UNL     1      -5.562  -4.855  13.609  0.00  0.00    +0.159 HD
ATOM      7  H   UNL     1      -4.668  -5.208  12.179  0.00  0.00    +0.159 HD
ATOM      8  H   UNL     1      -8.736  -4.747  12.075  0.00  0.00    +0.159 HD
ATOM      9  H   UNL     1      -7.862  -4.595  13.549  0.00  0.00    +0.159 HD
ENDROOT
BRANCH   1  10
ATOM     10  C   UNL     1      -7.847  -5.302   9.731  0.00  0.00    +0.151 C 
BRANCH  10  11
ATOM     11  C   UNL     1      -7.915  -4.058   8.888  0.00  0.00    -0.028 A 
ATOM     12  C   UNL     1      -7.034  -2.992   9.121  0.00  0.00    +0.005 A 
ATOM     13  C   UNL     1      -8.855  -3.941   7.852  0.00  0.00    +0.005 A 
ATOM     14  C   UNL     1      -7.077  -1.848   8.319  0.00  0.00    +0.000 A 
ATOM     15  C   UNL     1      -8.895  -2.798   7.055  0.00  0.00    +0.000 A 
ATOM     16  C   UNL     1      -8.004  -1.753   7.287  0.00  0.00    +0.000 A 
ENDBRANCH  10  11
ENDBRANCH   1  10
TORSDOF 2
ENDMDL
MODEL 7
REMARK VINA RESULT:    -4.657      1.805      2.992
REMARK INTER + INTRA:          -5.307
REMARK INTER:                  -5.202
REMARK INTRA:                  -0.105
REMARK UNBOUND:                -0.106
REMARK  Name = 1550473
REMARK  2 active torsions:
REMARK  status: ('A' for Active; 'I' for Inactive)
REMARK    1  A    between atoms: N_1  and  C_4
REMARK    2  A    between atoms: C_4  and  C_5
REMARK                            x       y       z     vdW  Elec       q    Type
REMARK                         _______ _______ _______ _____ _____    ______ ____
ROOT
ATOM      1  N   UNL     1      -8.901  -2.872   8.412  0.00  0.00    -0.354 N 
ATOM      2  N   UNL     1      -9.180  -0.854   7.310  0.00  0.00    -0.372 N 
ATOM      3  N   UNL     1      -8.508  -2.689   6.108  0.00  0.00    -0.372 N 
ATOM      4  C   UNL     1      -8.860  -2.153   7.282  0.00  0.00    +0.166 C 
ATOM      5  H   UNL     1      -9.147  -2.400   9.274  0.00  0.00    +0.163 HD
ATOM      6  H   UNL     1      -9.161  -0.286   6.473  0.00  0.00    +0.159 HD
ATOM      7  H   UNL     1      -9.469  -0.395   8.166  0.00  0.00    +0.159 HD
ATOM      8  H   UNL     1      -8.250  -3.663   6.021  0.00  0.00    +0.159 HD
ATOM      9  H   UNL     1      -8.473  -2.135   5.262  0.00  0.00    +0.159 HD
ENDROOT
BRANCH   1  10
ATOM     10  C   UNL     1      -8.624  -4.306   8.479  0.00  0.00    +0.151 C 
BRANCH  10  11
ATOM     11  C   UNL     1      -8.053  -4.633   9.831  0.00  0.00    -0.028 A 
ATOM     12  C   UNL     1      -8.743  -4.277  11.000  0.00  0.00    +0.005 A 
ATOM     13  C   UNL     1      -6.826  -5.303   9.950  0.00  0.00    +0.005 A 
ATOM     14  C   UNL     1      -8.227  -4.608  12.256  0.00  0.00    +0.000 A 
ATOM     15  C   UNL     1      -6.315  -5.630  11.206  0.00  0.00    +0.000 A 
ATOM     16  C   UNL     1      -7.017  -5.285  12.358  0.00  0.00    +0.000 A 
ENDBRANCH  10  11
ENDBRANCH   1  10
TORSDOF 2
ENDMDL
MODEL 8
REMARK VINA RESULT:    -4.601     25.329     26.085
REMARK INTER + INTRA:          -5.245
REMARK INTER:                  -5.122
REMARK INTRA:                  -0.123
REMARK UNBOUND:                -0.106
REMARK  Name = 1550473
REMARK  2 active torsions:
REMARK  status: ('A' for Active; 'I' for Inactive)
REMARK    1  A    between atoms: N_1  and  C_4
REMARK    2  A    between atoms: C_4  and  C_5
REMARK                            x       y       z     vdW  Elec       q    Type
REMARK                         _______ _______ _______ _____ _____    ______ ____
ROOT
ATOM      1  N   UNL     1       8.021  16.213  -0.716  0.00  0.00    -0.354 N 
ATOM      2  N   UNL     1       9.681  14.873   0.187  0.00  0.00    -0.372 N 
ATOM      3  N   UNL     1       9.449  14.967  -2.094  0.00  0.00    -0.372 N 
ATOM      4  C   UNL     1       9.040  15.359  -0.883  0.00  0.00    +0.166 C 
ATOM      5  H   UNL     1       7.740  16.447   0.229  0.00  0.00    +0.163 HD
ATOM      6  H   UNL     1      10.455  14.229   0.092  0.00  0.00    +0.159 HD
ATOM      7  H   UNL     1       9.427  15.144   1.129  0.00  0.00    +0.159 HD
ATOM      8  H   UNL     1       9.004  15.293  -2.942  0.00  0.00    +0.159 HD
ATOM      9  H   UNL     1      10.215  14.315  -2.210  0.00  0.00    +0.159 HD
ENDROOT
BRANCH   1  10
ATOM     10  C   UNL     1       7.292  16.842  -1.816  0.00  0.00    +0.151 C 
BRANCH  10  11
ATOM     11  C   UNL     1       5.871  17.084  -1.388  0.00  0.00    -0.028 A 
ATOM     12  C   UNL     1       4.844  17.162  -2.340  0.00  0.00    +0.005 A 
ATOM     13  C   UNL     1       5.544  17.232  -0.031  0.00  0.00    +0.005 A 
ATOM     14  C   UNL     1       3.520  17.357  -1.941  0.00  0.00    +0.000 A 
ATOM     15  C   UNL     1       4.221  17.428   0.363  0.00  0.00    +0.000 A 
ATOM     16  C   UNL     1       3.209  17.488  -0.592  0.00  0.00    +0.000 A 
ENDBRANCH  10  11
ENDBRANCH   1  10
TORSDOF 2
ENDMDL
MODEL 9
REMARK VINA RESULT:    -4.570     14.069     14.691
REMARK INTER + INTRA:          -5.210
REMARK INTER:                  -5.131
REMARK INTRA:                  -0.079
REMARK UNBOUND:                -0.106
REMARK  Name = 1550473
REMARK  2 active torsions:
REMARK  status: ('A' for Active; 'I' for Inactive)
REMARK    1  A    between atoms: N_1  and  C_4
REMARK    2  A    between atoms: C_4  and  C_5
REMARK                            x       y       z     vdW  Elec       q    Type
REMARK                         _______ _______ _______ _____ _____    ______ ____
ROOT
ATOM      1  N   UNL     1      -0.916 -12.336   1.941  0.00  0.00    -0.354 N 
ATOM      2  N   UNL     1      -2.542 -10.810   2.566  0.00  0.00    -0.372 N 
ATOM      3  N   UNL     1      -0.910 -10.150   1.095  0.00  0.00    -0.372 N 
ATOM      4  C   UNL     1      -1.444 -11.107   1.862  0.00  0.00    +0.166 C 
ATOM      5  H   UNL     1      -1.351 -13.007   2.563  0.00  0.00    +0.163 HD
ATOM      6  H   UNL     1      -2.965  -9.892   2.524  0.00  0.00    +0.159 HD
ATOM      7  H   UNL     1      -3.001 -11.497   3.152  0.00  0.00    +0.159 HD
ATOM      8  H   UNL     1      -0.077 -10.308   0.543  0.00  0.00    +0.159 HD
ATOM      9  H   UNL     1      -1.312  -9.222   1.049  0.00  0.00    +0.159 HD
ENDROOT
BRANCH   1  10
ATOM     10  C   UNL     1       0.247 -12.777   1.173  0.00  0.00    +0.151 C 
BRANCH  10  11
ATOM     11  C   UNL     1      -0.199 -13.184  -0.204  0.00  0.00    -0.028 A 
ATOM     12  C   UNL     1      -1.369 -13.939  -0.379  0.00  0.00    +0.005 A 
ATOM     13  C   UNL     1       0.539 -12.814  -1.338  0.00  0.00    +0.005 A 
ATOM     14  C   UNL     1      -1.800 -14.292  -1.660  0.00  0.00    +0.000 A 
ATOM     15  C   UNL     1       0.106 -13.169  -2.616  0.00  0.00    +0.000 A 
ATOM     16  C   UNL     1      -1.065 -13.906  -2.776  0.00  0.00    +0.000 A 
ENDBRANCH  10  11
ENDBRANCH   1  10
TORSDOF 2
ENDMDL
