MODEL 1
REMARK VINA RESULT:    -4.333      0.000      0.000
REMARK INTER + INTRA:          -4.975
REMARK INTER:                  -4.839
REMARK INTRA:                  -0.136
REMARK UNBOUND:                -0.136
REMARK  Name = 1550473
REMARK  2 active torsions:
REMARK  status: ('A' for Active; 'I' for Inactive)
REMARK    1  A    between atoms: N_1  and  C_4
REMARK    2  A    between atoms: C_4  and  C_5
REMARK                            x       y       z     vdW  Elec       q    Type
REMARK                         _______ _______ _______ _____ _____    ______ ____
ROOT
ATOM      1  N   UNL     1       0.398  -0.257  13.932  0.00  0.00    -0.354 N 
ATOM      2  N   UNL     1       2.151   1.254  14.002  0.00  0.00    -0.372 N 
ATOM      3  N   UNL     1       2.306  -0.681  15.225  0.00  0.00    -0.372 N 
ATOM      4  C   UNL     1       1.608   0.094  14.388  0.00  0.00    +0.166 C 
ATOM      5  H   UNL     1      -0.093   0.387  13.324  0.00  0.00    +0.163 HD
ATOM      6  H   UNL     1       3.064   1.545  14.326  0.00  0.00    +0.159 HD
ATOM      7  H   UNL     1       1.678   1.876  13.357  0.00  0.00    +0.159 HD
ATOM      8  H   UNL     1       1.950  -1.566  15.559  0.00  0.00    +0.159 HD
ATOM      9  H   UNL     1       3.216  -0.402  15.570  0.00  0.00    +0.159 HD
ENDROOT
BRANCH   1  10
ATOM     10  C   UNL     1      -0.259  -1.524  14.249  0.00  0.00    +0.151 C 
BRANCH  10  11
ATOM     11  C   UNL     1      -1.601  -1.241  14.865  0.00  0.00    -0.028 A 
ATOM     12  C   UNL     1      -2.445  -0.264  14.317  0.00  0.00    +0.005 A 
ATOM     13  C   UNL     1      -2.037  -1.950  15.995  0.00  0.00    +0.005 A 
ATOM     14  C   UNL     1      -3.704  -0.021  14.871  0.00  0.00    +0.000 A 
ATOM     15  C   UNL     1      -3.295  -1.704  16.546  0.00  0.00    +0.000 A 
ATOM     16  C   UNL     1      -4.129  -0.742  15.982  0.00  0.00    +0.000 A 
ENDBRANCH  10  11
ENDBRANCH   1  10
TORSDOF 2
ENDMDL
MODEL 2
REMARK VINA RESULT:    -4.165     18.298     20.142
REMARK INTER + INTRA:          -4.788
REMARK INTER:                  -4.668
REMARK INTRA:                  -0.120
REMARK UNBOUND:                -0.136
REMARK  Name = 1550473
REMARK  2 active torsions:
REMARK  status: ('A' for Active; 'I' for Inactive)
REMARK    1  A    between atoms: N_1  and  C_4
REMARK    2  A    between atoms: C_4  and  C_5
REMARK                            x       y       z     vdW  Elec       q    Type
REMARK                         _______ _______ _______ _____ _____    ______ ____
ROOT
ATOM      1  N   UNL     1      11.077  15.902  21.262  0.00  0.00    -0.354 N 
ATOM      2  N   UNL     1      12.546  17.292  20.133  0.00  0.00    -0.372 N 
ATOM      3  N   UNL     1      10.710  18.214  21.156  0.00  0.00    -0.372 N 
ATOM      4  C   UNL     1      11.433  17.129  20.858  0.00  0.00    +0.166 C 
ATOM      5  H   UNL     1      11.651  15.117  20.978  0.00  0.00    +0.163 HD
ATOM      6  H   UNL     1      12.841  18.206  19.817  0.00  0.00    +0.159 HD
ATOM      7  H   UNL     1      13.143  16.511  19.889  0.00  0.00    +0.159 HD
ATOM      8  H   UNL     1       9.857  18.158  21.695  0.00  0.00    +0.159 HD
ATOM      9  H   UNL     1      10.983  19.136  20.839  0.00  0.00    +0.159 HD
ENDROOT
BRANCH   1  10
ATOM     10  C   UNL     1       9.913  15.623  22.101  0.00  0.00    +0.151 C 
BRANCH  10  11
ATOM     11  C   UNL     1       9.513  14.184  21.922  0.00  0.00    -0.028 A 
ATOM     12  C   UNL     1       9.070  13.427  23.017  0.00  0.00    +0.005 A 
ATOM     13  C   UNL     1       9.569  13.573  20.660  0.00  0.00    +0.005 A 
ATOM     14  C   UNL     1       8.670  12.100  22.846  0.00  0.00    +0.000 A 
ATOM     15  C   UNL     1       9.169  12.248  20.494  0.00  0.00    +0.000 A 
ATOM     16  C   UNL     1       8.718  11.512  21.586  0.00  0.00    +0.000 A 
ENDBRANCH  10  11
ENDBRANCH   1  10
TORSDOF 2
ENDMDL
MODEL 3
REMARK VINA RESULT:    -4.115     23.823     24.645
REMARK INTER + INTRA:          -4.731
REMARK INTER:                  -4.550
REMARK INTRA:                  -0.182
REMARK UNBOUND:                -0.136
REMARK  Name = 1550473
REMARK  2 active torsions:
REMARK  status: ('A' for Active; 'I' for Inactive)
REMARK    1  A    between atoms: N_1  and  C_4
REMARK    2  A    between atoms: C_4  and  C_5
REMARK                            x       y       z     vdW  Elec       q    Type
REMARK                         _______ _______ _______ _____ _____    ______ ____
ROOT
ATOM      1  N   UNL     1      -2.642 -11.924  -5.479  0.00  0.00    -0.354 N 
ATOM      2  N   UNL     1      -2.734 -11.550  -3.195  0.00  0.00    -0.372 N 
ATOM      3  N   UNL     1      -3.343  -9.859  -4.622  0.00  0.00    -0.372 N 
ATOM      4  C   UNL     1      -2.906 -11.111  -4.448  0.00  0.00    +0.166 C 
ATOM      5  H   UNL     1      -2.285 -12.852  -5.281  0.00  0.00    +0.163 HD
ATOM      6  H   UNL     1      -2.929 -10.960  -2.397  0.00  0.00    +0.159 HD
ATOM      7  H   UNL     1      -2.421 -12.493  -2.999  0.00  0.00    +0.159 HD
ATOM      8  H   UNL     1      -3.488  -9.465  -5.542  0.00  0.00    +0.159 HD
ATOM      9  H   UNL     1      -3.532  -9.250  -3.836  0.00  0.00    +0.159 HD
ENDROOT
BRANCH   1  10
ATOM     10  C   UNL     1      -2.847 -11.562  -6.880  0.00  0.00    +0.151 C 
BRANCH  10  11
ATOM     11  C   UNL     1      -4.149 -12.147  -7.353  0.00  0.00    -0.028 A 
ATOM     12  C   UNL     1      -5.306 -11.357  -7.412  0.00  0.00    +0.005 A 
ATOM     13  C   UNL     1      -4.230 -13.491  -7.750  0.00  0.00    +0.005 A 
ATOM     14  C   UNL     1      -6.508 -11.893  -7.880  0.00  0.00    +0.000 A 
ATOM     15  C   UNL     1      -5.433 -14.022  -8.216  0.00  0.00    +0.000 A 
ATOM     16  C   UNL     1      -6.571 -13.222  -8.283  0.00  0.00    +0.000 A 
ENDBRANCH  10  11
ENDBRANCH   1  10
TORSDOF 2
ENDMDL
MODEL 4
REMARK VINA RESULT:    -4.037     35.238     36.103
REMARK INTER + INTRA:          -4.644
REMARK INTER:                  -4.551
REMARK INTRA:                  -0.093
REMARK UNBOUND:                -0.136
REMARK  Name = 1550473
REMARK  2 active torsions:
REMARK  status: ('A' for Active; 'I' for Inactive)
REMARK    1  A    between atoms: N_1  and  C_4
REMARK    2  A    between atoms: C_4  and  C_5
REMARK                            x       y       z     vdW  Elec       q    Type
REMARK                         _______ _______ _______ _____ _____    ______ ____
ROOT
ATOM      1  N   UNL     1      -0.871 -14.113 -17.939  0.00  0.00    -0.354 N 
ATOM      2  N   UNL     1      -1.579 -15.365 -16.123  0.00  0.00    -0.372 N 
ATOM      3  N   UNL     1      -0.462 -16.418 -17.829  0.00  0.00    -0.372 N 
ATOM      4  C   UNL     1      -0.965 -15.293 -17.311  0.00  0.00    +0.166 C 
ATOM      5  H   UNL     1      -1.300 -13.303 -17.508  0.00  0.00    +0.163 HD
ATOM      6  H   UNL     1      -1.662 -16.241 -15.624  0.00  0.00    +0.159 HD
ATOM      7  H   UNL     1      -1.966 -14.545 -15.673  0.00  0.00    +0.159 HD
ATOM      8  H   UNL     1       0.008 -16.432 -18.724  0.00  0.00    +0.159 HD
ATOM      9  H   UNL     1      -0.545 -17.306 -17.349  0.00  0.00    +0.159 HD
ENDROOT
BRANCH   1  10
ATOM     10  C   UNL     1      -0.176 -13.917 -19.210  0.00  0.00    +0.151 C 
BRANCH  10  11
ATOM     11  C   UNL     1       0.020 -12.444 -19.440  0.00  0.00    -0.028 A 
ATOM     12  C   UNL     1      -0.929 -11.703 -20.159  0.00  0.00    +0.005 A 
ATOM     13  C   UNL     1       1.151 -11.782 -18.936  0.00  0.00    +0.005 A 
ATOM     14  C   UNL     1      -0.762 -10.329 -20.347  0.00  0.00    +0.000 A 
ATOM     15  C   UNL     1       1.314 -10.410 -19.127  0.00  0.00    +0.000 A 
ATOM     16  C   UNL     1       0.357  -9.683 -19.830  0.00  0.00    +0.000 A 
ENDBRANCH  10  11
ENDBRANCH   1  10
TORSDOF 2
ENDMDL
MODEL 5
REMARK VINA RESULT:    -3.973     24.364     25.345
REMARK INTER + INTRA:          -4.574
REMARK INTER:                  -4.413
REMARK INTRA:                  -0.160
REMARK UNBOUND:                -0.136
REMARK  Name = 1550473
REMARK  2 active torsions:
REMARK  status: ('A' for Active; 'I' for Inactive)
REMARK    1  A    between atoms: N_1  and  C_4
REMARK    2  A    between atoms: C_4  and  C_5
REMARK                            x       y       z     vdW  Elec       q    Type
REMARK                         _______ _______ _______ _____ _____    ______ ____
ROOT
ATOM      1  N   UNL     1       0.716  -6.624 -10.393  0.00  0.00    -0.354 N 
ATOM      2  N   UNL     1      -0.336  -8.290 -11.610  0.00  0.00    -0.372 N 
ATOM      3  N   UNL     1       0.306  -6.368 -12.686  0.00  0.00    -0.372 N 
ATOM      4  C   UNL     1       0.236  -7.081 -11.557  0.00  0.00    +0.166 C 
ATOM      5  H   UNL     1       0.604  -7.200  -9.567  0.00  0.00    +0.163 HD
ATOM      6  H   UNL     1      -0.704  -8.663 -12.475  0.00  0.00    +0.159 HD
ATOM      7  H   UNL     1      -0.405  -8.883 -10.793  0.00  0.00    +0.159 HD
ATOM      8  H   UNL     1       0.720  -5.446 -12.712  0.00  0.00    +0.159 HD
ATOM      9  H   UNL     1      -0.067  -6.719 -13.560  0.00  0.00    +0.159 HD
ENDROOT
BRANCH   1  10
ATOM     10  C   UNL     1       1.404  -5.344 -10.239  0.00  0.00    +0.151 C 
BRANCH  10  11
ATOM     11  C   UNL     1       0.620  -4.475  -9.295  0.00  0.00    -0.028 A 
ATOM     12  C   UNL     1       1.030  -4.321  -7.962  0.00  0.00    +0.005 A 
ATOM     13  C   UNL     1      -0.530  -3.798  -9.728  0.00  0.00    +0.005 A 
ATOM     14  C   UNL     1       0.319  -3.490  -7.093  0.00  0.00    +0.000 A 
ATOM     15  C   UNL     1      -1.238  -2.970  -8.857  0.00  0.00    +0.000 A 
ATOM     16  C   UNL     1      -0.811  -2.814  -7.540  0.00  0.00    +0.000 A 
ENDBRANCH  10  11
ENDBRANCH   1  10
TORSDOF 2
ENDMDL
MODEL 6
REMARK VINA RESULT:    -3.912      7.425      7.799
REMARK INTER + INTRA:          -4.505
REMARK INTER:                  -4.412
REMARK INTRA:                  -0.094
REMARK UNBOUND:                -0.136
REMARK  Name = 1550473
REMARK  2 active torsions:
REMARK  status: ('A' for Active; 'I' for Inactive)
REMARK    1  A    between atoms: N_1  and  C_4
REMARK    2  A    between atoms: C_4  and  C_5
REMARK                            x       y       z     vdW  Elec       q    Type
REMARK                         _______ _______ _______ _____ _____    ______ ____
ROOT
ATOM      1  N   UNL     1       0.742   6.181  20.218  0.00  0.00    -0.354 N 
ATOM      2  N   UNL     1       2.124   7.349  21.664  0.00  0.00    -0.372 N 
ATOM      3  N   UNL     1       3.013   5.639  20.419  0.00  0.00    -0.372 N 
ATOM      4  C   UNL     1       1.952   6.380  20.757  0.00  0.00    +0.166 C 
ATOM      5  H   UNL     1      -0.028   6.756  20.539  0.00  0.00    +0.163 HD
ATOM      6  H   UNL     1       3.026   7.525  22.085  0.00  0.00    +0.159 HD
ATOM      7  H   UNL     1       1.363   7.953  21.949  0.00  0.00    +0.159 HD
ATOM      8  H   UNL     1       2.949   4.888  19.744  0.00  0.00    +0.159 HD
ATOM      9  H   UNL     1       3.922   5.792  20.837  0.00  0.00    +0.159 HD
ENDROOT
BRANCH   1  10
ATOM     10  C   UNL     1       0.461   5.188  19.183  0.00  0.00    +0.151 C 
BRANCH  10  11
ATOM     11  C   UNL     1      -1.016   4.903  19.164  0.00  0.00    -0.028 A 
ATOM     12  C   UNL     1      -1.895   5.748  18.469  0.00  0.00    +0.005 A 
ATOM     13  C   UNL     1      -1.542   3.787  19.832  0.00  0.00    +0.005 A 
ATOM     14  C   UNL     1      -3.263   5.467  18.426  0.00  0.00    +0.000 A 
ATOM     15  C   UNL     1      -2.908   3.511  19.787  0.00  0.00    +0.000 A 
ATOM     16  C   UNL     1      -3.768   4.350  19.082  0.00  0.00    +0.000 A 
ENDBRANCH  10  11
ENDBRANCH   1  10
TORSDOF 2
ENDMDL
MODEL 7
REMARK VINA RESULT:    -3.889     36.281     37.302
REMARK INTER + INTRA:          -4.480
REMARK INTER:                  -4.326
REMARK INTRA:                  -0.154
REMARK UNBOUND:                -0.136
REMARK  Name = 1550473
REMARK  2 active torsions:
REMARK  status: ('A' for Active; 'I' for Inactive)
REMARK    1  A    between atoms: N_1  and  C_4
REMARK    2  A    between atoms: C_4  and  C_5
REMARK                            x       y       z     vdW  Elec       q    Type
REMARK                         _______ _______ _______ _____ _____    ______ ____
ROOT
ATOM      1  N   UNL     1      -1.391 -12.306 -21.081  0.00  0.00    -0.354 N 
ATOM      2  N   UNL     1      -2.107 -12.962 -23.184  0.00  0.00    -0.372 N 
ATOM      3  N   UNL     1      -0.139 -13.813 -22.367  0.00  0.00    -0.372 N 
ATOM      4  C   UNL     1      -1.205 -13.024 -22.197  0.00  0.00    +0.166 C 
ATOM      5  H   UNL     1      -2.205 -11.704 -21.027  0.00  0.00    +0.163 HD
ATOM      6  H   UNL     1      -1.994 -13.495 -24.037  0.00  0.00    +0.159 HD
ATOM      7  H   UNL     1      -2.942 -12.395 -23.108  0.00  0.00    +0.159 HD
ATOM      8  H   UNL     1       0.581 -13.899 -21.662  0.00  0.00    +0.159 HD
ATOM      9  H   UNL     1      -0.003 -14.345 -23.217  0.00  0.00    +0.159 HD
ENDROOT
BRANCH   1  10
ATOM     10  C   UNL     1      -0.497 -12.344 -19.926  0.00  0.00    +0.151 C 
BRANCH  10  11
ATOM     11  C   UNL     1       0.177 -11.008 -19.782  0.00  0.00    -0.028 A 
ATOM     12  C   UNL     1      -0.414  -9.852 -20.311  0.00  0.00    +0.005 A 
ATOM     13  C   UNL     1       1.405 -10.891 -19.113  0.00  0.00    +0.005 A 
ATOM     14  C   UNL     1       0.197  -8.606 -20.152  0.00  0.00    +0.000 A 
ATOM     15  C   UNL     1       2.013  -9.645 -18.957  0.00  0.00    +0.000 A 
ATOM     16  C   UNL     1       1.407  -8.502 -19.474  0.00  0.00    +0.000 A 
ENDBRANCH  10  11
ENDBRANCH   1  10
TORSDOF 2
ENDMDL
MODEL 8
REMARK VINA RESULT:    -3.806     15.776     17.843
REMARK INTER + INTRA:          -4.386
REMARK INTER:                  -4.248
REMARK INTRA:                  -0.139
REMARK UNBOUND:                -0.136
REMARK  Name = 1550473
REMARK  2 active torsions:
REMARK  status: ('A' for Active; 'I' for Inactive)
REMARK    1  A    between atoms: N_1  and  C_4
REMARK    2  A    between atoms: C_4  and  C_5
REMARK                            x       y       z     vdW  Elec       q    Type
REMARK                         _______ _______ _______ _____ _____    ______ ____
ROOT
ATOM      1  N   UNL     1       8.724   9.586  22.253  0.00  0.00    -0.354 N 
ATOM      2  N   UNL     1       6.910   8.657  23.354  0.00  0.00    -0.372 N 
ATOM      3  N   UNL     1       8.942   8.717  24.418  0.00  0.00    -0.372 N 
ATOM      4  C   UNL     1       8.206   8.992  23.336  0.00  0.00    +0.166 C 
ATOM      5  H   UNL     1       8.120   9.741  21.453  0.00  0.00    +0.163 HD
ATOM      6  H   UNL     1       6.491   8.211  24.159  0.00  0.00    +0.159 HD
ATOM      7  H   UNL     1       6.298   8.854  22.571  0.00  0.00    +0.159 HD
ATOM      8  H   UNL     1       9.928   8.939  24.466  0.00  0.00    +0.159 HD
ATOM      9  H   UNL     1       8.543   8.260  25.228  0.00  0.00    +0.159 HD
ENDROOT
BRANCH   1  10
ATOM     10  C   UNL     1      10.110  10.040  22.153  0.00  0.00    +0.151 C 
BRANCH  10  11
ATOM     11  C   UNL     1      10.127  11.467  21.680  0.00  0.00    -0.028 A 
ATOM     12  C   UNL     1       9.047  11.989  20.952  0.00  0.00    +0.005 A 
ATOM     13  C   UNL     1      11.217  12.305  21.961  0.00  0.00    +0.005 A 
ATOM     14  C   UNL     1       9.049  13.323  20.538  0.00  0.00    +0.000 A 
ATOM     15  C   UNL     1      11.215  13.637  21.545  0.00  0.00    +0.000 A 
ATOM     16  C   UNL     1      10.130  14.146  20.836  0.00  0.00    +0.000 A 
ENDBRANCH  10  11
ENDBRANCH   1  10
TORSDOF 2
ENDMDL
MODEL 9
REMARK VINA RESULT:    -3.752     14.892     15.838
REMARK INTER + INTRA:          -4.326
REMARK INTER:                  -4.199
REMARK INTRA:                  -0.127
REMARK UNBOUND:                -0.136
REMARK  Name = 1550473
REMARK  2 active torsions:
REMARK  status: ('A' for Active; 'I' for Inactive)
REMARK    1  A    between atoms: N_1  and  C_4
REMARK    2  A    between atoms: C_4  and  C_5
REMARK                            x       y       z     vdW  Elec       q    Type
REMARK                         _______ _______ _______ _____ _____    ______ ____
ROOT
ATOM      1  N   UNL     1      -1.431  13.789   6.138  0.00  0.00    -0.354 N 
ATOM      2  N   UNL     1       0.594  14.279   5.127  0.00  0.00    -0.372 N 
ATOM      3  N   UNL     1       0.206  15.037   7.258  0.00  0.00    -0.372 N 
ATOM      4  C   UNL     1      -0.223  14.367   6.183  0.00  0.00    +0.166 C 
ATOM      5  H   UNL     1      -1.709  13.321   5.283  0.00  0.00    +0.163 HD
ATOM      6  H   UNL     1       1.513  14.702   5.134  0.00  0.00    +0.159 HD
ATOM      7  H   UNL     1       0.332  13.772   4.291  0.00  0.00    +0.159 HD
ATOM      8  H   UNL     1      -0.365  15.145   8.085  0.00  0.00    +0.159 HD
ATOM      9  H   UNL     1       1.117  15.477   7.279  0.00  0.00    +0.159 HD
ENDROOT
BRANCH   1  10
ATOM     10  C   UNL     1      -2.376  13.780   7.254  0.00  0.00    +0.151 C 
BRANCH  10  11
ATOM     11  C   UNL     1      -3.262  12.571   7.137  0.00  0.00    -0.028 A 
ATOM     12  C   UNL     1      -3.276  11.809   5.960  0.00  0.00    +0.005 A 
ATOM     13  C   UNL     1      -4.086  12.178   8.203  0.00  0.00    +0.005 A 
ATOM     14  C   UNL     1      -4.077  10.669   5.862  0.00  0.00    +0.000 A 
ATOM     15  C   UNL     1      -4.885  11.040   8.101  0.00  0.00    +0.000 A 
ATOM     16  C   UNL     1      -4.878  10.284   6.931  0.00  0.00    +0.000 A 
ENDBRANCH  10  11
ENDBRANCH   1  10
TORSDOF 2
ENDMDL
