MODEL 1
REMARK VINA RESULT:    -5.389      0.000      0.000
REMARK INTER + INTRA:          -6.148
REMARK INTER:                  -6.019
REMARK INTRA:                  -0.130
REMARK UNBOUND:                -0.130
REMARK  Name = 1550473
REMARK  2 active torsions:
REMARK  status: ('A' for Active; 'I' for Inactive)
REMARK    1  A    between atoms: N_1  and  C_4
REMARK    2  A    between atoms: C_4  and  C_5
REMARK                            x       y       z     vdW  Elec       q    Type
REMARK                         _______ _______ _______ _____ _____    ______ ____
ROOT
ATOM      1  N   UNL     1       2.628   5.304   8.084  0.00  0.00    -0.354 N 
ATOM      2  N   UNL     1       2.781   6.162  10.230  0.00  0.00    -0.372 N 
ATOM      3  N   UNL     1       0.776   5.303   9.519  0.00  0.00    -0.372 N 
ATOM      4  C   UNL     1       2.058   5.583   9.264  0.00  0.00    +0.166 C 
ATOM      5  H   UNL     1       3.596   5.569   7.943  0.00  0.00    +0.163 HD
ATOM      6  H   UNL     1       2.379   6.382  11.131  0.00  0.00    +0.159 HD
ATOM      7  H   UNL     1       3.761   6.384  10.102  0.00  0.00    +0.159 HD
ATOM      8  H   UNL     1       0.174   4.872   8.830  0.00  0.00    +0.159 HD
ATOM      9  H   UNL     1       0.352   5.526  10.411  0.00  0.00    +0.159 HD
ENDROOT
BRANCH   1  10
ATOM     10  C   UNL     1       1.944   4.626   6.985  0.00  0.00    +0.151 C 
BRANCH  10  11
ATOM     11  C   UNL     1       2.725   3.400   6.601  0.00  0.00    -0.028 A 
ATOM     12  C   UNL     1       4.013   3.517   6.059  0.00  0.00    +0.005 A 
ATOM     13  C   UNL     1       2.185   2.117   6.783  0.00  0.00    +0.005 A 
ATOM     14  C   UNL     1       4.751   2.377   5.731  0.00  0.00    +0.000 A 
ATOM     15  C   UNL     1       2.924   0.982   6.453  0.00  0.00    +0.000 A 
ATOM     16  C   UNL     1       4.208   1.112   5.929  0.00  0.00    +0.000 A 
ENDBRANCH  10  11
ENDBRANCH   1  10
TORSDOF 2
ENDMDL
MODEL 2
REMARK VINA RESULT:    -5.270      4.295      5.397
REMARK INTER + INTRA:          -6.016
REMARK INTER:                  -5.917
REMARK INTRA:                  -0.099
REMARK UNBOUND:                -0.130
REMARK  Name = 1550473
REMARK  2 active torsions:
REMARK  status: ('A' for Active; 'I' for Inactive)
REMARK    1  A    between atoms: N_1  and  C_4
REMARK    2  A    between atoms: C_4  and  C_5
REMARK                            x       y       z     vdW  Elec       q    Type
REMARK                         _______ _______ _______ _____ _____    ______ ____
ROOT
ATOM      1  N   UNL     1       5.301   7.466   8.392  0.00  0.00    -0.354 N 
ATOM      2  N   UNL     1       7.411   7.197   7.476  0.00  0.00    -0.372 N 
ATOM      3  N   UNL     1       6.177   9.043   6.897  0.00  0.00    -0.372 N 
ATOM      4  C   UNL     1       6.282   7.906   7.593  0.00  0.00    +0.166 C 
ATOM      5  H   UNL     1       5.430   6.581   8.870  0.00  0.00    +0.163 HD
ATOM      6  H   UNL     1       8.170   7.505   6.883  0.00  0.00    +0.159 HD
ATOM      7  H   UNL     1       7.555   6.336   7.990  0.00  0.00    +0.159 HD
ATOM      8  H   UNL     1       5.349   9.621   6.937  0.00  0.00    +0.159 HD
ATOM      9  H   UNL     1       6.921   9.362   6.289  0.00  0.00    +0.159 HD
ENDROOT
BRANCH   1  10
ATOM     10  C   UNL     1       4.054   8.190   8.632  0.00  0.00    +0.151 C 
BRANCH  10  11
ATOM     11  C   UNL     1       2.959   7.200   8.920  0.00  0.00    -0.028 A 
ATOM     12  C   UNL     1       2.046   6.837   7.919  0.00  0.00    +0.005 A 
ATOM     13  C   UNL     1       2.833   6.617  10.190  0.00  0.00    +0.005 A 
ATOM     14  C   UNL     1       1.047   5.896   8.178  0.00  0.00    +0.000 A 
ATOM     15  C   UNL     1       1.833   5.678  10.444  0.00  0.00    +0.000 A 
ATOM     16  C   UNL     1       0.942   5.316   9.437  0.00  0.00    +0.000 A 
ENDBRANCH  10  11
ENDBRANCH   1  10
TORSDOF 2
ENDMDL
MODEL 3
REMARK VINA RESULT:    -5.070     12.378     13.972
REMARK INTER + INTRA:          -5.792
REMARK INTER:                  -5.652
REMARK INTRA:                  -0.141
REMARK UNBOUND:                -0.130
REMARK  Name = 1550473
REMARK  2 active torsions:
REMARK  status: ('A' for Active; 'I' for Inactive)
REMARK    1  A    between atoms: N_1  and  C_4
REMARK    2  A    between atoms: C_4  and  C_5
REMARK                            x       y       z     vdW  Elec       q    Type
REMARK                         _______ _______ _______ _____ _____    ______ ____
ROOT
ATOM      1  N   UNL     1      -2.847   7.929  17.436  0.00  0.00    -0.354 N 
ATOM      2  N   UNL     1      -3.895   6.374  16.077  0.00  0.00    -0.372 N 
ATOM      3  N   UNL     1      -5.178   7.685  17.456  0.00  0.00    -0.372 N 
ATOM      4  C   UNL     1      -3.969   7.341  17.000  0.00  0.00    +0.166 C 
ATOM      5  H   UNL     1      -1.959   7.602  17.074  0.00  0.00    +0.163 HD
ATOM      6  H   UNL     1      -4.725   5.914  15.726  0.00  0.00    +0.159 HD
ATOM      7  H   UNL     1      -3.010   6.080  15.683  0.00  0.00    +0.159 HD
ATOM      8  H   UNL     1      -5.301   8.403  18.157  0.00  0.00    +0.159 HD
ATOM      9  H   UNL     1      -6.019   7.228  17.125  0.00  0.00    +0.159 HD
ENDROOT
BRANCH   1  10
ATOM     10  C   UNL     1      -2.822   9.028  18.400  0.00  0.00    +0.151 C 
BRANCH  10  11
ATOM     11  C   UNL     1      -1.817   8.717  19.474  0.00  0.00    -0.028 A 
ATOM     12  C   UNL     1      -0.808   9.637  19.794  0.00  0.00    +0.005 A 
ATOM     13  C   UNL     1      -1.872   7.506  20.181  0.00  0.00    +0.005 A 
ATOM     14  C   UNL     1       0.107   9.361  20.812  0.00  0.00    +0.000 A 
ATOM     15  C   UNL     1      -0.956   7.234  21.196  0.00  0.00    +0.000 A 
ATOM     16  C   UNL     1       0.032   8.163  21.514  0.00  0.00    +0.000 A 
ENDBRANCH  10  11
ENDBRANCH   1  10
TORSDOF 2
ENDMDL
MODEL 4
REMARK VINA RESULT:    -4.996     28.382     29.308
REMARK INTER + INTRA:          -5.710
REMARK INTER:                  -5.611
REMARK INTRA:                  -0.099
REMARK UNBOUND:                -0.130
REMARK  Name = 1550473
REMARK  2 active torsions:
REMARK  status: ('A' for Active; 'I' for Inactive)
REMARK    1  A    between atoms: N_1  and  C_4
REMARK    2  A    between atoms: C_4  and  C_5
REMARK                            x       y       z     vdW  Elec       q    Type
REMARK                         _______ _______ _______ _____ _____    ______ ____
ROOT
ATOM      1  N   UNL     1      -7.664  -6.808 -16.812  0.00  0.00    -0.354 N 
ATOM      2  N   UNL     1      -8.742  -6.047 -14.908  0.00  0.00    -0.372 N 
ATOM      3  N   UNL     1      -9.961  -7.157 -16.504  0.00  0.00    -0.372 N 
ATOM      4  C   UNL     1      -8.784  -6.677 -16.089  0.00  0.00    +0.166 C 
ATOM      5  H   UNL     1      -6.810  -6.395 -16.455  0.00  0.00    +0.163 HD
ATOM      6  H   UNL     1      -9.570  -5.935 -14.339  0.00  0.00    +0.159 HD
ATOM      7  H   UNL     1      -7.878  -5.675 -14.533  0.00  0.00    +0.159 HD
ATOM      8  H   UNL     1     -10.061  -7.637 -17.388  0.00  0.00    +0.159 HD
ATOM      9  H   UNL     1     -10.803  -7.045 -15.954  0.00  0.00    +0.159 HD
ENDROOT
BRANCH   1  10
ATOM     10  C   UNL     1      -7.592  -7.524 -18.085  0.00  0.00    +0.151 C 
BRANCH  10  11
ATOM     11  C   UNL     1      -6.381  -7.055 -18.843  0.00  0.00    -0.028 A 
ATOM     12  C   UNL     1      -6.416  -5.857 -19.571  0.00  0.00    +0.005 A 
ATOM     13  C   UNL     1      -5.193  -7.803 -18.833  0.00  0.00    +0.005 A 
ATOM     14  C   UNL     1      -5.282  -5.406 -20.251  0.00  0.00    +0.000 A 
ATOM     15  C   UNL     1      -4.063  -7.350 -19.515  0.00  0.00    +0.000 A 
ATOM     16  C   UNL     1      -4.108  -6.150 -20.221  0.00  0.00    +0.000 A 
ENDBRANCH  10  11
ENDBRANCH   1  10
TORSDOF 2
ENDMDL
MODEL 5
REMARK VINA RESULT:    -4.817     10.737     11.548
REMARK INTER + INTRA:          -5.510
REMARK INTER:                  -5.379
REMARK INTRA:                  -0.131
REMARK UNBOUND:                -0.130
REMARK  Name = 1550473
REMARK  2 active torsions:
REMARK  status: ('A' for Active; 'I' for Inactive)
REMARK    1  A    between atoms: N_1  and  C_4
REMARK    2  A    between atoms: C_4  and  C_5
REMARK                            x       y       z     vdW  Elec       q    Type
REMARK                         _______ _______ _______ _____ _____    ______ ____
ROOT
ATOM      1  N   UNL     1       9.515   4.614  16.155  0.00  0.00    -0.354 N 
ATOM      2  N   UNL     1       8.507   6.673  15.825  0.00  0.00    -0.372 N 
ATOM      3  N   UNL     1       9.901   6.397  17.627  0.00  0.00    -0.372 N 
ATOM      4  C   UNL     1       9.316   5.882  16.540  0.00  0.00    +0.166 C 
ATOM      5  H   UNL     1       9.018   4.275  15.339  0.00  0.00    +0.163 HD
ATOM      6  H   UNL     1       8.340   7.635  16.090  0.00  0.00    +0.159 HD
ATOM      7  H   UNL     1       8.048   6.345  14.984  0.00  0.00    +0.159 HD
ATOM      8  H   UNL     1      10.518   5.850  18.213  0.00  0.00    +0.159 HD
ATOM      9  H   UNL     1       9.737   7.354  17.914  0.00  0.00    +0.159 HD
ENDROOT
BRANCH   1  10
ATOM     10  C   UNL     1      10.418   3.686  16.833  0.00  0.00    +0.151 C 
BRANCH  10  11
ATOM     11  C   UNL     1       9.913   2.283  16.644  0.00  0.00    -0.028 A 
ATOM     12  C   UNL     1      10.669   1.188  17.089  0.00  0.00    +0.005 A 
ATOM     13  C   UNL     1       8.676   2.041  16.027  0.00  0.00    +0.005 A 
ATOM     14  C   UNL     1      10.185  -0.115  16.941  0.00  0.00    +0.000 A 
ATOM     15  C   UNL     1       8.197   0.739  15.881  0.00  0.00    +0.000 A 
ATOM     16  C   UNL     1       8.951  -0.338  16.340  0.00  0.00    +0.000 A 
ENDBRANCH  10  11
ENDBRANCH   1  10
TORSDOF 2
ENDMDL
MODEL 6
REMARK VINA RESULT:    -4.794     13.556     14.563
REMARK INTER + INTRA:          -5.485
REMARK INTER:                  -5.369
REMARK INTRA:                  -0.115
REMARK UNBOUND:                -0.130
REMARK  Name = 1550473
REMARK  2 active torsions:
REMARK  status: ('A' for Active; 'I' for Inactive)
REMARK    1  A    between atoms: N_1  and  C_4
REMARK    2  A    between atoms: C_4  and  C_5
REMARK                            x       y       z     vdW  Elec       q    Type
REMARK                         _______ _______ _______ _____ _____    ______ ____
ROOT
ATOM      1  N   UNL     1       0.382   7.492  21.334  0.00  0.00    -0.354 N 
ATOM      2  N   UNL     1       1.948   6.450  22.685  0.00  0.00    -0.372 N 
ATOM      3  N   UNL     1       1.281   8.583  23.204  0.00  0.00    -0.372 N 
ATOM      4  C   UNL     1       1.193   7.518  22.400  0.00  0.00    +0.166 C 
ATOM      5  H   UNL     1       0.384   6.666  20.747  0.00  0.00    +0.163 HD
ATOM      6  H   UNL     1       2.568   6.439  23.484  0.00  0.00    +0.159 HD
ATOM      7  H   UNL     1       1.915   5.608  22.123  0.00  0.00    +0.159 HD
ATOM      8  H   UNL     1       0.741   9.423  23.040  0.00  0.00    +0.159 HD
ATOM      9  H   UNL     1       1.903   8.596  24.002  0.00  0.00    +0.159 HD
ENDROOT
BRANCH   1  10
ATOM     10  C   UNL     1      -0.521   8.582  20.968  0.00  0.00    +0.151 C 
BRANCH  10  11
ATOM     11  C   UNL     1      -1.581   8.051  20.042  0.00  0.00    -0.028 A 
ATOM     12  C   UNL     1      -1.924   8.752  18.877  0.00  0.00    +0.005 A 
ATOM     13  C   UNL     1      -2.241   6.845  20.321  0.00  0.00    +0.005 A 
ATOM     14  C   UNL     1      -2.887   8.245  18.001  0.00  0.00    +0.000 A 
ATOM     15  C   UNL     1      -3.202   6.342  19.445  0.00  0.00    +0.000 A 
ATOM     16  C   UNL     1      -3.523   7.041  18.284  0.00  0.00    +0.000 A 
ENDBRANCH  10  11
ENDBRANCH   1  10
TORSDOF 2
ENDMDL
MODEL 7
REMARK VINA RESULT:    -4.747     12.760     14.325
REMARK INTER + INTRA:          -5.432
REMARK INTER:                  -5.254
REMARK INTRA:                  -0.178
REMARK UNBOUND:                -0.130
REMARK  Name = 1550473
REMARK  2 active torsions:
REMARK  status: ('A' for Active; 'I' for Inactive)
REMARK    1  A    between atoms: N_1  and  C_4
REMARK    2  A    between atoms: C_4  and  C_5
REMARK                            x       y       z     vdW  Elec       q    Type
REMARK                         _______ _______ _______ _____ _____    ______ ____
ROOT
ATOM      1  N   UNL     1      -2.141   7.870  21.312  0.00  0.00    -0.354 N 
ATOM      2  N   UNL     1      -0.380   6.667  22.215  0.00  0.00    -0.372 N 
ATOM      3  N   UNL     1       0.076   8.340  20.713  0.00  0.00    -0.372 N 
ATOM      4  C   UNL     1      -0.825   7.635  21.406  0.00  0.00    +0.166 C 
ATOM      5  H   UNL     1      -2.774   7.280  21.840  0.00  0.00    +0.163 HD
ATOM      6  H   UNL     1       0.607   6.469  22.310  0.00  0.00    +0.159 HD
ATOM      7  H   UNL     1      -1.012   6.110  22.777  0.00  0.00    +0.159 HD
ATOM      8  H   UNL     1      -0.196   9.081  20.080  0.00  0.00    +0.159 HD
ATOM      9  H   UNL     1       1.067   8.150  20.785  0.00  0.00    +0.159 HD
ENDROOT
BRANCH   1  10
ATOM     10  C   UNL     1      -2.725   8.936  20.500  0.00  0.00    +0.151 C 
BRANCH  10  11
ATOM     11  C   UNL     1      -3.330   8.335  19.262  0.00  0.00    -0.028 A 
ATOM     12  C   UNL     1      -4.662   7.895  19.261  0.00  0.00    +0.005 A 
ATOM     13  C   UNL     1      -2.578   8.208  18.083  0.00  0.00    +0.005 A 
ATOM     14  C   UNL     1      -5.233   7.364  18.102  0.00  0.00    +0.000 A 
ATOM     15  C   UNL     1      -3.152   7.677  16.928  0.00  0.00    +0.000 A 
ATOM     16  C   UNL     1      -4.480   7.257  16.937  0.00  0.00    +0.000 A 
ENDBRANCH  10  11
ENDBRANCH   1  10
TORSDOF 2
ENDMDL
MODEL 8
REMARK VINA RESULT:    -4.725     11.467     12.954
REMARK INTER + INTRA:          -5.407
REMARK INTER:                  -5.263
REMARK INTRA:                  -0.144
REMARK UNBOUND:                -0.130
REMARK  Name = 1550473
REMARK  2 active torsions:
REMARK  status: ('A' for Active; 'I' for Inactive)
REMARK    1  A    between atoms: N_1  and  C_4
REMARK    2  A    between atoms: C_4  and  C_5
REMARK                            x       y       z     vdW  Elec       q    Type
REMARK                         _______ _______ _______ _____ _____    ______ ____
ROOT
ATOM      1  N   UNL     1      10.285   5.726  18.514  0.00  0.00    -0.354 N 
ATOM      2  N   UNL     1      11.234   5.608  20.624  0.00  0.00    -0.372 N 
ATOM      3  N   UNL     1       9.298   4.446  20.211  0.00  0.00    -0.372 N 
ATOM      4  C   UNL     1      10.264   5.259  19.770  0.00  0.00    +0.166 C 
ATOM      5  H   UNL     1      11.028   6.363  18.250  0.00  0.00    +0.163 HD
ATOM      6  H   UNL     1      11.246   5.268  21.576  0.00  0.00    +0.159 HD
ATOM      7  H   UNL     1      12.000   6.208  20.344  0.00  0.00    +0.159 HD
ATOM      8  H   UNL     1       8.535   4.150  19.618  0.00  0.00    +0.159 HD
ATOM      9  H   UNL     1       9.287   4.105  21.165  0.00  0.00    +0.159 HD
ENDROOT
BRANCH   1  10
ATOM     10  C   UNL     1       9.306   5.364  17.491  0.00  0.00    +0.151 C 
BRANCH  10  11
ATOM     11  C   UNL     1       8.705   6.619  16.921  0.00  0.00    -0.028 A 
ATOM     12  C   UNL     1       8.243   7.636  17.769  0.00  0.00    +0.005 A 
ATOM     13  C   UNL     1       8.600   6.800  15.533  0.00  0.00    +0.005 A 
ATOM     14  C   UNL     1       7.713   8.815  17.239  0.00  0.00    +0.000 A 
ATOM     15  C   UNL     1       8.069   7.978  15.008  0.00  0.00    +0.000 A 
ATOM     16  C   UNL     1       7.627   8.986  15.862  0.00  0.00    +0.000 A 
ENDBRANCH  10  11
ENDBRANCH   1  10
TORSDOF 2
ENDMDL
MODEL 9
REMARK VINA RESULT:    -4.629     13.446     14.599
REMARK INTER + INTRA:          -5.299
REMARK INTER:                  -5.167
REMARK INTRA:                  -0.132
REMARK UNBOUND:                -0.130
REMARK  Name = 1550473
REMARK  2 active torsions:
REMARK  status: ('A' for Active; 'I' for Inactive)
REMARK    1  A    between atoms: N_1  and  C_4
REMARK    2  A    between atoms: C_4  and  C_5
REMARK                            x       y       z     vdW  Elec       q    Type
REMARK                         _______ _______ _______ _____ _____    ______ ____
ROOT
ATOM      1  N   UNL     1      -3.581   4.147  20.164  0.00  0.00    -0.354 N 
ATOM      2  N   UNL     1      -4.989   2.309  20.119  0.00  0.00    -0.372 N 
ATOM      3  N   UNL     1      -4.523   3.300  22.135  0.00  0.00    -0.372 N 
ATOM      4  C   UNL     1      -4.355   3.264  20.809  0.00  0.00    +0.166 C 
ATOM      5  H   UNL     1      -3.470   4.048  19.161  0.00  0.00    +0.163 HD
ATOM      6  H   UNL     1      -5.582   1.631  20.578  0.00  0.00    +0.159 HD
ATOM      7  H   UNL     1      -4.913   2.240  19.111  0.00  0.00    +0.159 HD
ATOM      8  H   UNL     1      -4.067   3.992  22.714  0.00  0.00    +0.159 HD
ATOM      9  H   UNL     1      -5.104   2.623  22.614  0.00  0.00    +0.159 HD
ENDROOT
BRANCH   1  10
ATOM     10  C   UNL     1      -2.890   5.258  20.815  0.00  0.00    +0.151 C 
BRANCH  10  11
ATOM     11  C   UNL     1      -2.799   6.412  19.854  0.00  0.00    -0.028 A 
ATOM     12  C   UNL     1      -3.548   6.411  18.668  0.00  0.00    +0.005 A 
ATOM     13  C   UNL     1      -1.971   7.511  20.127  0.00  0.00    +0.005 A 
ATOM     14  C   UNL     1      -3.487   7.495  17.790  0.00  0.00    +0.000 A 
ATOM     15  C   UNL     1      -1.912   8.592  19.247  0.00  0.00    +0.000 A 
ATOM     16  C   UNL     1      -2.672   8.584  18.080  0.00  0.00    +0.000 A 
ENDBRANCH  10  11
ENDBRANCH   1  10
TORSDOF 2
ENDMDL
