MODEL 1
REMARK VINA RESULT:    -5.629      0.000      0.000
REMARK INTER + INTRA:          -6.390
REMARK INTER:                  -6.287
REMARK INTRA:                  -0.103
REMARK UNBOUND:                -0.103
REMARK  Name = 1550473
REMARK  2 active torsions:
REMARK  status: ('A' for Active; 'I' for Inactive)
REMARK    1  A    between atoms: N_1  and  C_4
REMARK    2  A    between atoms: C_4  and  C_5
REMARK                            x       y       z     vdW  Elec       q    Type
REMARK                         _______ _______ _______ _____ _____    ______ ____
ROOT
ATOM      1  N   UNL     1       2.194  -2.650  -9.126  0.00  0.00    -0.354 N 
ATOM      2  N   UNL     1       3.278  -2.144  -7.143  0.00  0.00    -0.372 N 
ATOM      3  N   UNL     1       1.094  -1.494  -7.410  0.00  0.00    -0.372 N 
ATOM      4  C   UNL     1       2.179  -2.098  -7.905  0.00  0.00    +0.166 C 
ATOM      5  H   UNL     1       3.057  -3.067  -9.455  0.00  0.00    +0.163 HD
ATOM      6  H   UNL     1       3.296  -1.740  -6.216  0.00  0.00    +0.159 HD
ATOM      7  H   UNL     1       4.125  -2.602  -7.457  0.00  0.00    +0.159 HD
ATOM      8  H   UNL     1       0.234  -1.420  -7.937  0.00  0.00    +0.159 HD
ATOM      9  H   UNL     1       1.096  -1.072  -6.489  0.00  0.00    +0.159 HD
ENDROOT
BRANCH   1  10
ATOM     10  C   UNL     1       1.034  -2.701 -10.014  0.00  0.00    +0.151 C 
BRANCH  10  11
ATOM     11  C   UNL     1       1.322  -3.651 -11.144  0.00  0.00    -0.028 A 
ATOM     12  C   UNL     1       2.482  -3.506 -11.918  0.00  0.00    +0.005 A 
ATOM     13  C   UNL     1       0.441  -4.702 -11.441  0.00  0.00    +0.005 A 
ATOM     14  C   UNL     1       2.765  -4.406 -12.948  0.00  0.00    +0.000 A 
ATOM     15  C   UNL     1       0.727  -5.599 -12.471  0.00  0.00    +0.000 A 
ATOM     16  C   UNL     1       1.890  -5.452 -13.223  0.00  0.00    +0.000 A 
ENDBRANCH  10  11
ENDBRANCH   1  10
TORSDOF 2
ENDMDL
MODEL 2
REMARK VINA RESULT:    -5.563      1.842      2.191
REMARK INTER + INTRA:          -6.316
REMARK INTER:                  -6.168
REMARK INTRA:                  -0.148
REMARK UNBOUND:                -0.103
REMARK  Name = 1550473
REMARK  2 active torsions:
REMARK  status: ('A' for Active; 'I' for Inactive)
REMARK    1  A    between atoms: N_1  and  C_4
REMARK    2  A    between atoms: C_4  and  C_5
REMARK                            x       y       z     vdW  Elec       q    Type
REMARK                         _______ _______ _______ _____ _____    ______ ____
ROOT
ATOM      1  N   UNL     1      -0.232  -1.897  -8.924  0.00  0.00    -0.354 N 
ATOM      2  N   UNL     1       0.109  -0.422  -7.171  0.00  0.00    -0.372 N 
ATOM      3  N   UNL     1      -0.798   0.368  -9.125  0.00  0.00    -0.372 N 
ATOM      4  C   UNL     1      -0.310  -0.658  -8.420  0.00  0.00    +0.166 C 
ATOM      5  H   UNL     1       0.176  -2.625  -8.349  0.00  0.00    +0.163 HD
ATOM      6  H   UNL     1       0.059   0.502  -6.763  0.00  0.00    +0.159 HD
ATOM      7  H   UNL     1       0.473  -1.161  -6.583  0.00  0.00    +0.159 HD
ATOM      8  H   UNL     1      -1.125   0.257 -10.076  0.00  0.00    +0.159 HD
ATOM      9  H   UNL     1      -0.845   1.303  -8.739  0.00  0.00    +0.159 HD
ENDROOT
BRANCH   1  10
ATOM     10  C   UNL     1      -0.710  -2.271 -10.254  0.00  0.00    +0.151 C 
BRANCH  10  11
ATOM     11  C   UNL     1       0.407  -2.939 -11.008  0.00  0.00    -0.028 A 
ATOM     12  C   UNL     1       1.528  -2.203 -11.419  0.00  0.00    +0.005 A 
ATOM     13  C   UNL     1       0.352  -4.308 -11.309  0.00  0.00    +0.005 A 
ATOM     14  C   UNL     1       2.579  -2.829 -12.093  0.00  0.00    +0.000 A 
ATOM     15  C   UNL     1       1.403  -4.930 -11.983  0.00  0.00    +0.000 A 
ATOM     16  C   UNL     1       2.518  -4.190 -12.372  0.00  0.00    +0.000 A 
ENDBRANCH  10  11
ENDBRANCH   1  10
TORSDOF 2
ENDMDL
MODEL 3
REMARK VINA RESULT:    -5.378      2.500      4.135
REMARK INTER + INTRA:          -6.110
REMARK INTER:                  -5.993
REMARK INTRA:                  -0.117
REMARK UNBOUND:                -0.103
REMARK  Name = 1550473
REMARK  2 active torsions:
REMARK  status: ('A' for Active; 'I' for Inactive)
REMARK    1  A    between atoms: N_1  and  C_4
REMARK    2  A    between atoms: C_4  and  C_5
REMARK                            x       y       z     vdW  Elec       q    Type
REMARK                         _______ _______ _______ _____ _____    ______ ____
ROOT
ATOM      1  N   UNL     1       3.426  -2.759 -10.540  0.00  0.00    -0.354 N 
ATOM      2  N   UNL     1       5.261  -1.402 -10.145  0.00  0.00    -0.372 N 
ATOM      3  N   UNL     1       4.068  -1.117 -12.084  0.00  0.00    -0.372 N 
ATOM      4  C   UNL     1       4.239  -1.768 -10.929  0.00  0.00    +0.166 C 
ATOM      5  H   UNL     1       3.627  -3.233  -9.667  0.00  0.00    +0.163 HD
ATOM      6  H   UNL     1       5.888  -0.655 -10.410  0.00  0.00    +0.159 HD
ATOM      7  H   UNL     1       5.432  -1.846  -9.251  0.00  0.00    +0.159 HD
ATOM      8  H   UNL     1       3.319  -1.349 -12.723  0.00  0.00    +0.159 HD
ATOM      9  H   UNL     1       4.692  -0.375 -12.372  0.00  0.00    +0.159 HD
ENDROOT
BRANCH   1  10
ATOM     10  C   UNL     1       2.253  -3.198 -11.295  0.00  0.00    +0.151 C 
BRANCH  10  11
ATOM     11  C   UNL     1       1.075  -2.345 -10.911  0.00  0.00    -0.028 A 
ATOM     12  C   UNL     1       0.509  -2.448  -9.632  0.00  0.00    +0.005 A 
ATOM     13  C   UNL     1       0.525  -1.428 -11.820  0.00  0.00    +0.005 A 
ATOM     14  C   UNL     1      -0.567  -1.635  -9.265  0.00  0.00    +0.000 A 
ATOM     15  C   UNL     1      -0.549  -0.619 -11.450  0.00  0.00    +0.000 A 
ATOM     16  C   UNL     1      -1.093  -0.721 -10.171  0.00  0.00    +0.000 A 
ENDBRANCH  10  11
ENDBRANCH   1  10
TORSDOF 2
ENDMDL
MODEL 4
REMARK VINA RESULT:    -5.360      2.619      3.437
REMARK INTER + INTRA:          -6.089
REMARK INTER:                  -5.905
REMARK INTRA:                  -0.184
REMARK UNBOUND:                -0.103
REMARK  Name = 1550473
REMARK  2 active torsions:
REMARK  status: ('A' for Active; 'I' for Inactive)
REMARK    1  A    between atoms: N_1  and  C_4
REMARK    2  A    between atoms: C_4  and  C_5
REMARK                            x       y       z     vdW  Elec       q    Type
REMARK                         _______ _______ _______ _____ _____    ______ ____
ROOT
ATOM      1  N   UNL     1       4.585  -3.740 -11.156  0.00  0.00    -0.354 N 
ATOM      2  N   UNL     1       5.911  -3.643  -9.259  0.00  0.00    -0.372 N 
ATOM      3  N   UNL     1       5.298  -1.685 -10.286  0.00  0.00    -0.372 N 
ATOM      4  C   UNL     1       5.256  -3.021 -10.247  0.00  0.00    +0.166 C 
ATOM      5  H   UNL     1       4.617  -4.751 -11.088  0.00  0.00    +0.163 HD
ATOM      6  H   UNL     1       6.423  -3.126  -8.557  0.00  0.00    +0.159 HD
ATOM      7  H   UNL     1       5.903  -4.652  -9.168  0.00  0.00    +0.159 HD
ATOM      8  H   UNL     1       4.830  -1.155 -11.009  0.00  0.00    +0.159 HD
ATOM      9  H   UNL     1       5.815  -1.150  -9.599  0.00  0.00    +0.159 HD
ENDROOT
BRANCH   1  10
ATOM     10  C   UNL     1       3.795  -3.158 -12.239  0.00  0.00    +0.151 C 
BRANCH  10  11
ATOM     11  C   UNL     1       2.343  -3.162 -11.846  0.00  0.00    -0.028 A 
ATOM     12  C   UNL     1       1.609  -4.357 -11.848  0.00  0.00    +0.005 A 
ATOM     13  C   UNL     1       1.698  -1.976 -11.466  0.00  0.00    +0.005 A 
ATOM     14  C   UNL     1       0.269  -4.367 -11.455  0.00  0.00    +0.000 A 
ATOM     15  C   UNL     1       0.359  -1.990 -11.074  0.00  0.00    +0.000 A 
ATOM     16  C   UNL     1      -0.354  -3.186 -11.066  0.00  0.00    +0.000 A 
ENDBRANCH  10  11
ENDBRANCH   1  10
TORSDOF 2
ENDMDL
MODEL 5
REMARK VINA RESULT:    -5.292      4.942      5.675
REMARK INTER + INTRA:          -6.013
REMARK INTER:                  -5.845
REMARK INTRA:                  -0.168
REMARK UNBOUND:                -0.103
REMARK  Name = 1550473
REMARK  2 active torsions:
REMARK  status: ('A' for Active; 'I' for Inactive)
REMARK    1  A    between atoms: N_1  and  C_4
REMARK    2  A    between atoms: C_4  and  C_5
REMARK                            x       y       z     vdW  Elec       q    Type
REMARK                         _______ _______ _______ _____ _____    ______ ____
ROOT
ATOM      1  N   UNL     1       5.306  -4.146 -10.985  0.00  0.00    -0.354 N 
ATOM      2  N   UNL     1       5.661  -2.016 -10.146  0.00  0.00    -0.372 N 
ATOM      3  N   UNL     1       4.641  -3.579  -8.811  0.00  0.00    -0.372 N 
ATOM      4  C   UNL     1       5.199  -3.262  -9.984  0.00  0.00    +0.166 C 
ATOM      5  H   UNL     1       5.711  -3.834 -11.860  0.00  0.00    +0.163 HD
ATOM      6  H   UNL     1       5.597  -1.329  -9.407  0.00  0.00    +0.159 HD
ATOM      7  H   UNL     1       6.108  -1.721 -11.006  0.00  0.00    +0.159 HD
ATOM      8  H   UNL     1       4.268  -4.501  -8.627  0.00  0.00    +0.159 HD
ATOM      9  H   UNL     1       4.558  -2.902  -8.063  0.00  0.00    +0.159 HD
ENDROOT
BRANCH   1  10
ATOM     10  C   UNL     1       4.883  -5.542 -10.893  0.00  0.00    +0.151 C 
BRANCH  10  11
ATOM     11  C   UNL     1       6.100  -6.416 -10.763  0.00  0.00    -0.028 A 
ATOM     12  C   UNL     1       6.698  -6.623  -9.511  0.00  0.00    +0.005 A 
ATOM     13  C   UNL     1       6.656  -7.045 -11.888  0.00  0.00    +0.005 A 
ATOM     14  C   UNL     1       7.810  -7.459  -9.386  0.00  0.00    +0.000 A 
ATOM     15  C   UNL     1       7.767  -7.878 -11.758  0.00  0.00    +0.000 A 
ATOM     16  C   UNL     1       8.342  -8.087 -10.507  0.00  0.00    +0.000 A 
ENDBRANCH  10  11
ENDBRANCH   1  10
TORSDOF 2
ENDMDL
MODEL 6
REMARK VINA RESULT:    -5.194     23.801     24.981
REMARK INTER + INTRA:          -5.904
REMARK INTER:                  -5.726
REMARK INTRA:                  -0.178
REMARK UNBOUND:                -0.103
REMARK  Name = 1550473
REMARK  2 active torsions:
REMARK  status: ('A' for Active; 'I' for Inactive)
REMARK    1  A    between atoms: N_1  and  C_4
REMARK    2  A    between atoms: C_4  and  C_5
REMARK                            x       y       z     vdW  Elec       q    Type
REMARK                         _______ _______ _______ _____ _____    ______ ____
ROOT
ATOM      1  N   UNL     1     -22.916   1.205  -6.783  0.00  0.00    -0.354 N 
ATOM      2  N   UNL     1     -22.451   0.136  -8.785  0.00  0.00    -0.372 N 
ATOM      3  N   UNL     1     -22.073  -0.981  -6.817  0.00  0.00    -0.372 N 
ATOM      4  C   UNL     1     -22.482   0.125  -7.447  0.00  0.00    +0.166 C 
ATOM      5  H   UNL     1     -23.184   2.023  -7.319  0.00  0.00    +0.163 HD
ATOM      6  H   UNL     1     -22.132  -0.665  -9.312  0.00  0.00    +0.159 HD
ATOM      7  H   UNL     1     -22.763   0.938  -9.318  0.00  0.00    +0.159 HD
ATOM      8  H   UNL     1     -22.067  -1.052  -5.808  0.00  0.00    +0.159 HD
ATOM      9  H   UNL     1     -21.739  -1.789  -7.327  0.00  0.00    +0.159 HD
ENDROOT
BRANCH   1  10
ATOM     10  C   UNL     1     -23.040   1.276  -5.329  0.00  0.00    +0.151 C 
BRANCH  10  11
ATOM     11  C   UNL     1     -21.934   2.136  -4.783  0.00  0.00    -0.028 A 
ATOM     12  C   UNL     1     -20.749   1.556  -4.309  0.00  0.00    +0.005 A 
ATOM     13  C   UNL     1     -22.064   3.533  -4.742  0.00  0.00    +0.005 A 
ATOM     14  C   UNL     1     -19.709   2.357  -3.829  0.00  0.00    +0.000 A 
ATOM     15  C   UNL     1     -21.024   4.329  -4.262  0.00  0.00    +0.000 A 
ATOM     16  C   UNL     1     -19.846   3.741  -3.808  0.00  0.00    +0.000 A 
ENDBRANCH  10  11
ENDBRANCH   1  10
TORSDOF 2
ENDMDL
MODEL 7
REMARK VINA RESULT:    -5.161      3.251      3.849
REMARK INTER + INTRA:          -5.868
REMARK INTER:                  -5.735
REMARK INTRA:                  -0.133
REMARK UNBOUND:                -0.103
REMARK  Name = 1550473
REMARK  2 active torsions:
REMARK  status: ('A' for Active; 'I' for Inactive)
REMARK    1  A    between atoms: N_1  and  C_4
REMARK    2  A    between atoms: C_4  and  C_5
REMARK                            x       y       z     vdW  Elec       q    Type
REMARK                         _______ _______ _______ _____ _____    ______ ____
ROOT
ATOM      1  N   UNL     1       2.542  -3.280  -9.372  0.00  0.00    -0.354 N 
ATOM      2  N   UNL     1       0.312  -2.701  -9.130  0.00  0.00    -0.372 N 
ATOM      3  N   UNL     1       1.778  -2.200  -7.437  0.00  0.00    -0.372 N 
ATOM      4  C   UNL     1       1.560  -2.730  -8.645  0.00  0.00    +0.166 C 
ATOM      5  H   UNL     1       2.306  -3.692 -10.267  0.00  0.00    +0.163 HD
ATOM      6  H   UNL     1      -0.449  -2.290  -8.606  0.00  0.00    +0.159 HD
ATOM      7  H   UNL     1       0.088  -3.073 -10.045  0.00  0.00    +0.159 HD
ATOM      8  H   UNL     1       2.696  -2.195  -7.013  0.00  0.00    +0.159 HD
ATOM      9  H   UNL     1       1.027  -1.794  -6.893  0.00  0.00    +0.159 HD
ENDROOT
BRANCH   1  10
ATOM     10  C   UNL     1       3.944  -3.313  -8.959  0.00  0.00    +0.151 C 
BRANCH  10  11
ATOM     11  C   UNL     1       4.569  -4.591  -9.448  0.00  0.00    -0.028 A 
ATOM     12  C   UNL     1       3.861  -5.450 -10.300  0.00  0.00    +0.005 A 
ATOM     13  C   UNL     1       5.873  -4.944  -9.067  0.00  0.00    +0.005 A 
ATOM     14  C   UNL     1       4.452  -6.622 -10.778  0.00  0.00    +0.000 A 
ATOM     15  C   UNL     1       6.460  -6.115  -9.546  0.00  0.00    +0.000 A 
ATOM     16  C   UNL     1       5.750  -6.952 -10.403  0.00  0.00    +0.000 A 
ENDBRANCH  10  11
ENDBRANCH   1  10
TORSDOF 2
ENDMDL
MODEL 8
REMARK VINA RESULT:    -5.128      2.669      4.372
REMARK INTER + INTRA:          -5.830
REMARK INTER:                  -5.664
REMARK INTRA:                  -0.166
REMARK UNBOUND:                -0.103
REMARK  Name = 1550473
REMARK  2 active torsions:
REMARK  status: ('A' for Active; 'I' for Inactive)
REMARK    1  A    between atoms: N_1  and  C_4
REMARK    2  A    between atoms: C_4  and  C_5
REMARK                            x       y       z     vdW  Elec       q    Type
REMARK                         _______ _______ _______ _____ _____    ______ ____
ROOT
ATOM      1  N   UNL     1       2.126  -4.248 -11.172  0.00  0.00    -0.354 N 
ATOM      2  N   UNL     1       2.276  -6.402 -10.333  0.00  0.00    -0.372 N 
ATOM      3  N   UNL     1       3.681  -4.789  -9.504  0.00  0.00    -0.372 N 
ATOM      4  C   UNL     1       2.696  -5.131 -10.340  0.00  0.00    +0.166 C 
ATOM      5  H   UNL     1       1.405  -4.577 -11.803  0.00  0.00    +0.163 HD
ATOM      6  H   UNL     1       2.684  -7.090  -9.715  0.00  0.00    +0.159 HD
ATOM      7  H   UNL     1       1.523  -6.718 -10.933  0.00  0.00    +0.159 HD
ATOM      8  H   UNL     1       4.047  -3.847  -9.464  0.00  0.00    +0.159 HD
ATOM      9  H   UNL     1       4.110  -5.466  -8.885  0.00  0.00    +0.159 HD
ENDROOT
BRANCH   1  10
ATOM     10  C   UNL     1       2.473  -2.829 -11.220  0.00  0.00    +0.151 C 
BRANCH  10  11
ATOM     11  C   UNL     1       1.314  -2.022 -10.702  0.00  0.00    -0.028 A 
ATOM     12  C   UNL     1       1.089  -1.904  -9.323  0.00  0.00    +0.005 A 
ATOM     13  C   UNL     1       0.442  -1.369 -11.586  0.00  0.00    +0.005 A 
ATOM     14  C   UNL     1       0.030  -1.130  -8.841  0.00  0.00    +0.000 A 
ATOM     15  C   UNL     1      -0.615  -0.598 -11.100  0.00  0.00    +0.000 A 
ATOM     16  C   UNL     1      -0.818  -0.477  -9.728  0.00  0.00    +0.000 A 
ENDBRANCH  10  11
ENDBRANCH   1  10
TORSDOF 2
ENDMDL
MODEL 9
REMARK VINA RESULT:    -5.114      2.789      3.085
REMARK INTER + INTRA:          -5.814
REMARK INTER:                  -5.719
REMARK INTRA:                  -0.095
REMARK UNBOUND:                -0.103
REMARK  Name = 1550473
REMARK  2 active torsions:
REMARK  status: ('A' for Active; 'I' for Inactive)
REMARK    1  A    between atoms: N_1  and  C_4
REMARK    2  A    between atoms: C_4  and  C_5
REMARK                            x       y       z     vdW  Elec       q    Type
REMARK                         _______ _______ _______ _____ _____    ______ ____
ROOT
ATOM      1  N   UNL     1       4.697  -3.705 -11.240  0.00  0.00    -0.354 N 
ATOM      2  N   UNL     1       6.099  -3.648  -9.397  0.00  0.00    -0.372 N 
ATOM      3  N   UNL     1       5.292  -1.672 -10.238  0.00  0.00    -0.372 N 
ATOM      4  C   UNL     1       5.353  -3.006 -10.304  0.00  0.00    +0.166 C 
ATOM      5  H   UNL     1       4.809  -4.713 -11.254  0.00  0.00    +0.163 HD
ATOM      6  H   UNL     1       6.602  -3.147  -8.677  0.00  0.00    +0.159 HD
ATOM      7  H   UNL     1       6.172  -4.658  -9.386  0.00  0.00    +0.159 HD
ATOM      8  H   UNL     1       4.751  -1.127 -10.897  0.00  0.00    +0.159 HD
ATOM      9  H   UNL     1       5.798  -1.152  -9.532  0.00  0.00    +0.159 HD
ENDROOT
BRANCH   1  10
ATOM     10  C   UNL     1       3.816  -3.106 -12.240  0.00  0.00    +0.151 C 
BRANCH  10  11
ATOM     11  C   UNL     1       2.987  -4.189 -12.876  0.00  0.00    -0.028 A 
ATOM     12  C   UNL     1       3.341  -4.713 -14.128  0.00  0.00    +0.005 A 
ATOM     13  C   UNL     1       1.851  -4.698 -12.229  0.00  0.00    +0.005 A 
ATOM     14  C   UNL     1       2.589  -5.739 -14.705  0.00  0.00    +0.000 A 
ATOM     15  C   UNL     1       1.102  -5.722 -12.809  0.00  0.00    +0.000 A 
ATOM     16  C   UNL     1       1.473  -6.244 -14.046  0.00  0.00    +0.000 A 
ENDBRANCH  10  11
ENDBRANCH   1  10
TORSDOF 2
ENDMDL
