MODEL 1
REMARK VINA RESULT:    -4.667      0.000      0.000
REMARK INTER + INTRA:          -5.385
REMARK INTER:                  -5.212
REMARK INTRA:                  -0.173
REMARK UNBOUND:                -0.173
REMARK  Name = 1550473
REMARK  2 active torsions:
REMARK  status: ('A' for Active; 'I' for Inactive)
REMARK    1  A    between atoms: N_1  and  C_4
REMARK    2  A    between atoms: C_4  and  C_5
REMARK                            x       y       z     vdW  Elec       q    Type
REMARK                         _______ _______ _______ _____ _____    ______ ____
ROOT
ATOM      1  N   UNL     1      18.837   2.722   4.565  0.00  0.00    -0.354 N 
ATOM      2  N   UNL     1      20.532   2.484   3.005  0.00  0.00    -0.372 N 
ATOM      3  N   UNL     1      20.450   4.395   4.271  0.00  0.00    -0.372 N 
ATOM      4  C   UNL     1      19.929   3.204   3.958  0.00  0.00    +0.166 C 
ATOM      5  H   UNL     1      18.474   1.825   4.261  0.00  0.00    +0.163 HD
ATOM      6  H   UNL     1      21.359   2.820   2.532  0.00  0.00    +0.159 HD
ATOM      7  H   UNL     1      20.193   1.568   2.735  0.00  0.00    +0.159 HD
ATOM      8  H   UNL     1      20.039   4.991   4.978  0.00  0.00    +0.159 HD
ATOM      9  H   UNL     1      21.271   4.755   3.800  0.00  0.00    +0.159 HD
ENDROOT
BRANCH   1  10
ATOM     10  C   UNL     1      18.137   3.403   5.653  0.00  0.00    +0.151 C 
BRANCH  10  11
ATOM     11  C   UNL     1      18.516   2.761   6.959  0.00  0.00    -0.028 A 
ATOM     12  C   UNL     1      18.432   1.371   7.120  0.00  0.00    +0.005 A 
ATOM     13  C   UNL     1      18.965   3.538   8.038  0.00  0.00    +0.005 A 
ATOM     14  C   UNL     1      18.813   0.771   8.323  0.00  0.00    +0.000 A 
ATOM     15  C   UNL     1      19.343   2.936   9.238  0.00  0.00    +0.000 A 
ATOM     16  C   UNL     1      19.269   1.552   9.379  0.00  0.00    +0.000 A 
ENDBRANCH  10  11
ENDBRANCH   1  10
TORSDOF 2
ENDMDL
MODEL 2
REMARK VINA RESULT:    -4.649     27.698     28.347
REMARK INTER + INTRA:          -5.366
REMARK INTER:                  -5.243
REMARK INTRA:                  -0.122
REMARK UNBOUND:                -0.173
REMARK  Name = 1550473
REMARK  2 active torsions:
REMARK  status: ('A' for Active; 'I' for Inactive)
REMARK    1  A    between atoms: N_1  and  C_4
REMARK    2  A    between atoms: C_4  and  C_5
REMARK                            x       y       z     vdW  Elec       q    Type
REMARK                         _______ _______ _______ _____ _____    ______ ____
ROOT
ATOM      1  N   UNL     1      -2.284  -5.863  -8.747  0.00  0.00    -0.354 N 
ATOM      2  N   UNL     1      -0.804  -7.630  -8.526  0.00  0.00    -0.372 N 
ATOM      3  N   UNL     1      -2.571  -7.838  -9.975  0.00  0.00    -0.372 N 
ATOM      4  C   UNL     1      -1.898  -7.100  -9.086  0.00  0.00    +0.166 C 
ATOM      5  H   UNL     1      -1.749  -5.367  -8.044  0.00  0.00    +0.163 HD
ATOM      6  H   UNL     1      -0.486  -8.560  -8.764  0.00  0.00    +0.159 HD
ATOM      7  H   UNL     1      -0.244  -7.115  -7.858  0.00  0.00    +0.159 HD
ATOM      8  H   UNL     1      -3.408  -7.498 -10.429  0.00  0.00    +0.159 HD
ATOM      9  H   UNL     1      -2.275  -8.776 -10.218  0.00  0.00    +0.159 HD
ENDROOT
BRANCH   1  10
ATOM     10  C   UNL     1      -3.430  -5.174  -9.338  0.00  0.00    +0.151 C 
BRANCH  10  11
ATOM     11  C   UNL     1      -2.951  -3.923 -10.022  0.00  0.00    -0.028 A 
ATOM     12  C   UNL     1      -1.773  -3.934 -10.783  0.00  0.00    +0.005 A 
ATOM     13  C   UNL     1      -3.675  -2.725  -9.919  0.00  0.00    +0.005 A 
ATOM     14  C   UNL     1      -1.344  -2.780 -11.443  0.00  0.00    +0.000 A 
ATOM     15  C   UNL     1      -3.242  -1.575 -10.579  0.00  0.00    +0.000 A 
ATOM     16  C   UNL     1      -2.078  -1.603 -11.343  0.00  0.00    +0.000 A 
ENDBRANCH  10  11
ENDBRANCH   1  10
TORSDOF 2
ENDMDL
MODEL 3
REMARK VINA RESULT:    -4.612     18.308     19.699
REMARK INTER + INTRA:          -5.325
REMARK INTER:                  -5.219
REMARK INTRA:                  -0.106
REMARK UNBOUND:                -0.173
REMARK  Name = 1550473
REMARK  2 active torsions:
REMARK  status: ('A' for Active; 'I' for Inactive)
REMARK    1  A    between atoms: N_1  and  C_4
REMARK    2  A    between atoms: C_4  and  C_5
REMARK                            x       y       z     vdW  Elec       q    Type
REMARK                         _______ _______ _______ _____ _____    ______ ____
ROOT
ATOM      1  N   UNL     1       3.174   9.513  -5.653  0.00  0.00    -0.354 N 
ATOM      2  N   UNL     1       1.545   8.942  -7.197  0.00  0.00    -0.372 N 
ATOM      3  N   UNL     1       3.701   9.246  -7.921  0.00  0.00    -0.372 N 
ATOM      4  C   UNL     1       2.820   9.238  -6.915  0.00  0.00    +0.166 C 
ATOM      5  H   UNL     1       2.453   9.520  -4.941  0.00  0.00    +0.163 HD
ATOM      6  H   UNL     1       1.249   8.726  -8.139  0.00  0.00    +0.159 HD
ATOM      7  H   UNL     1       0.835   8.904  -6.476  0.00  0.00    +0.159 HD
ATOM      8  H   UNL     1       4.677   9.468  -7.776  0.00  0.00    +0.159 HD
ATOM      9  H   UNL     1       3.421   9.045  -8.873  0.00  0.00    +0.159 HD
ENDROOT
BRANCH   1  10
ATOM     10  C   UNL     1       4.545   9.796  -5.232  0.00  0.00    +0.151 C 
BRANCH  10  11
ATOM     11  C   UNL     1       4.795   9.141  -3.901  0.00  0.00    -0.028 A 
ATOM     12  C   UNL     1       4.268   9.695  -2.725  0.00  0.00    +0.005 A 
ATOM     13  C   UNL     1       5.553   7.964  -3.810  0.00  0.00    +0.005 A 
ATOM     14  C   UNL     1       4.474   9.072  -1.493  0.00  0.00    +0.000 A 
ATOM     15  C   UNL     1       5.757   7.344  -2.577  0.00  0.00    +0.000 A 
ATOM     16  C   UNL     1       5.215   7.897  -1.419  0.00  0.00    +0.000 A 
ENDBRANCH  10  11
ENDBRANCH   1  10
TORSDOF 2
ENDMDL
MODEL 4
REMARK VINA RESULT:    -4.527     33.890     34.895
REMARK INTER + INTRA:          -5.230
REMARK INTER:                  -5.078
REMARK INTRA:                  -0.152
REMARK UNBOUND:                -0.173
REMARK  Name = 1550473
REMARK  2 active torsions:
REMARK  status: ('A' for Active; 'I' for Inactive)
REMARK    1  A    between atoms: N_1  and  C_4
REMARK    2  A    between atoms: C_4  and  C_5
REMARK                            x       y       z     vdW  Elec       q    Type
REMARK                         _______ _______ _______ _____ _____    ______ ____
ROOT
ATOM      1  N   UNL     1     -14.531   1.843  -0.052  0.00  0.00    -0.354 N 
ATOM      2  N   UNL     1     -13.119   2.685  -1.684  0.00  0.00    -0.372 N 
ATOM      3  N   UNL     1     -12.260   2.213   0.391  0.00  0.00    -0.372 N 
ATOM      4  C   UNL     1     -13.311   2.241  -0.435  0.00  0.00    +0.166 C 
ATOM      5  H   UNL     1     -15.293   1.918  -0.717  0.00  0.00    +0.163 HD
ATOM      6  H   UNL     1     -12.209   2.989  -2.002  0.00  0.00    +0.159 HD
ATOM      7  H   UNL     1     -13.872   2.715  -2.360  0.00  0.00    +0.159 HD
ATOM      8  H   UNL     1     -12.339   1.895   1.348  0.00  0.00    +0.159 HD
ATOM      9  H   UNL     1     -11.343   2.524   0.094  0.00  0.00    +0.159 HD
ENDROOT
BRANCH   1  10
ATOM     10  C   UNL     1     -14.835   1.294   1.268  0.00  0.00    +0.151 C 
BRANCH  10  11
ATOM     11  C   UNL     1     -15.766   2.230   1.987  0.00  0.00    -0.028 A 
ATOM     12  C   UNL     1     -15.913   2.157   3.380  0.00  0.00    +0.005 A 
ATOM     13  C   UNL     1     -16.500   3.197   1.283  0.00  0.00    +0.005 A 
ATOM     14  C   UNL     1     -16.755   3.046   4.053  0.00  0.00    +0.000 A 
ATOM     15  C   UNL     1     -17.340   4.082   1.958  0.00  0.00    +0.000 A 
ATOM     16  C   UNL     1     -17.465   4.008   3.343  0.00  0.00    +0.000 A 
ENDBRANCH  10  11
ENDBRANCH   1  10
TORSDOF 2
ENDMDL
MODEL 5
REMARK VINA RESULT:    -4.454     15.752     17.073
REMARK INTER + INTRA:          -5.148
REMARK INTER:                  -5.043
REMARK INTRA:                  -0.104
REMARK UNBOUND:                -0.173
REMARK  Name = 1550473
REMARK  2 active torsions:
REMARK  status: ('A' for Active; 'I' for Inactive)
REMARK    1  A    between atoms: N_1  and  C_4
REMARK    2  A    between atoms: C_4  and  C_5
REMARK                            x       y       z     vdW  Elec       q    Type
REMARK                         _______ _______ _______ _____ _____    ______ ____
ROOT
ATOM      1  N   UNL     1       7.834   7.157  -4.520  0.00  0.00    -0.354 N 
ATOM      2  N   UNL     1       9.862   7.170  -5.637  0.00  0.00    -0.372 N 
ATOM      3  N   UNL     1       9.238   5.281  -4.494  0.00  0.00    -0.372 N 
ATOM      4  C   UNL     1       8.965   6.533  -4.875  0.00  0.00    +0.166 C 
ATOM      5  H   UNL     1       7.700   8.117  -4.816  0.00  0.00    +0.163 HD
ATOM      6  H   UNL     1      10.723   6.724  -5.923  0.00  0.00    +0.159 HD
ATOM      7  H   UNL     1       9.705   8.113  -5.969  0.00  0.00    +0.159 HD
ATOM      8  H   UNL     1       8.604   4.747  -3.913  0.00  0.00    +0.159 HD
ATOM      9  H   UNL     1      10.100   4.821  -4.761  0.00  0.00    +0.159 HD
ENDROOT
BRANCH   1  10
ATOM     10  C   UNL     1       6.768   6.534  -3.737  0.00  0.00    +0.151 C 
BRANCH  10  11
ATOM     11  C   UNL     1       5.877   7.608  -3.177  0.00  0.00    -0.028 A 
ATOM     12  C   UNL     1       5.364   8.613  -4.010  0.00  0.00    +0.005 A 
ATOM     13  C   UNL     1       5.537   7.623  -1.816  0.00  0.00    +0.005 A 
ATOM     14  C   UNL     1       4.512   9.594  -3.497  0.00  0.00    +0.000 A 
ATOM     15  C   UNL     1       4.687   8.605  -1.307  0.00  0.00    +0.000 A 
ATOM     16  C   UNL     1       4.173   9.589  -2.148  0.00  0.00    +0.000 A 
ENDBRANCH  10  11
ENDBRANCH   1  10
TORSDOF 2
ENDMDL
MODEL 6
REMARK VINA RESULT:    -4.441      2.103      3.021
REMARK INTER + INTRA:          -5.133
REMARK INTER:                  -4.965
REMARK INTRA:                  -0.169
REMARK UNBOUND:                -0.173
REMARK  Name = 1550473
REMARK  2 active torsions:
REMARK  status: ('A' for Active; 'I' for Inactive)
REMARK    1  A    between atoms: N_1  and  C_4
REMARK    2  A    between atoms: C_4  and  C_5
REMARK                            x       y       z     vdW  Elec       q    Type
REMARK                         _______ _______ _______ _____ _____    ______ ____
ROOT
ATOM      1  N   UNL     1      18.114   3.797   6.123  0.00  0.00    -0.354 N 
ATOM      2  N   UNL     1      18.314   1.633   5.321  0.00  0.00    -0.372 N 
ATOM      3  N   UNL     1      19.962   3.153   4.834  0.00  0.00    -0.372 N 
ATOM      4  C   UNL     1      18.797   2.877   5.430  0.00  0.00    +0.166 C 
ATOM      5  H   UNL     1      17.222   3.532   6.525  0.00  0.00    +0.163 HD
ATOM      6  H   UNL     1      18.809   0.917   4.808  0.00  0.00    +0.159 HD
ATOM      7  H   UNL     1      17.445   1.359   5.764  0.00  0.00    +0.159 HD
ATOM      8  H   UNL     1      20.378   4.074   4.873  0.00  0.00    +0.159 HD
ATOM      9  H   UNL     1      20.467   2.453   4.306  0.00  0.00    +0.159 HD
ENDROOT
BRANCH   1  10
ATOM     10  C   UNL     1      18.579   5.165   6.346  0.00  0.00    +0.151 C 
BRANCH  10  11
ATOM     11  C   UNL     1      19.167   5.264   7.726  0.00  0.00    -0.028 A 
ATOM     12  C   UNL     1      18.572   4.592   8.804  0.00  0.00    +0.005 A 
ATOM     13  C   UNL     1      20.323   6.024   7.962  0.00  0.00    +0.005 A 
ATOM     14  C   UNL     1      19.136   4.659  10.081  0.00  0.00    +0.000 A 
ATOM     15  C   UNL     1      20.882   6.089   9.238  0.00  0.00    +0.000 A 
ATOM     16  C   UNL     1      20.290   5.405  10.297  0.00  0.00    +0.000 A 
ENDBRANCH  10  11
ENDBRANCH   1  10
TORSDOF 2
ENDMDL
MODEL 7
REMARK VINA RESULT:    -4.437     25.841     27.078
REMARK INTER + INTRA:          -5.129
REMARK INTER:                  -5.011
REMARK INTRA:                  -0.118
REMARK UNBOUND:                -0.173
REMARK  Name = 1550473
REMARK  2 active torsions:
REMARK  status: ('A' for Active; 'I' for Inactive)
REMARK    1  A    between atoms: N_1  and  C_4
REMARK    2  A    between atoms: C_4  and  C_5
REMARK                            x       y       z     vdW  Elec       q    Type
REMARK                         _______ _______ _______ _____ _____    ______ ____
ROOT
ATOM      1  N   UNL     1      -0.299  -7.013  -6.836  0.00  0.00    -0.354 N 
ATOM      2  N   UNL     1       1.741  -7.826  -6.100  0.00  0.00    -0.372 N 
ATOM      3  N   UNL     1       0.618  -6.307  -4.798  0.00  0.00    -0.372 N 
ATOM      4  C   UNL     1       0.673  -7.041  -5.914  0.00  0.00    +0.166 C 
ATOM      5  H   UNL     1      -0.183  -7.570  -7.674  0.00  0.00    +0.163 HD
ATOM      6  H   UNL     1       2.489  -7.872  -5.421  0.00  0.00    +0.159 HD
ATOM      7  H   UNL     1       1.832  -8.417  -6.918  0.00  0.00    +0.159 HD
ATOM      8  H   UNL     1      -0.158  -5.690  -4.600  0.00  0.00    +0.159 HD
ATOM      9  H   UNL     1       1.362  -6.330  -4.111  0.00  0.00    +0.159 HD
ENDROOT
BRANCH   1  10
ATOM     10  C   UNL     1      -1.528  -6.233  -6.703  0.00  0.00    +0.151 C 
BRANCH  10  11
ATOM     11  C   UNL     1      -2.244  -6.216  -8.026  0.00  0.00    -0.028 A 
ATOM     12  C   UNL     1      -3.100  -5.156  -8.359  0.00  0.00    +0.005 A 
ATOM     13  C   UNL     1      -2.065  -7.254  -8.953  0.00  0.00    +0.005 A 
ATOM     14  C   UNL     1      -3.742  -5.125  -9.599  0.00  0.00    +0.000 A 
ATOM     15  C   UNL     1      -2.708  -7.220 -10.190  0.00  0.00    +0.000 A 
ATOM     16  C   UNL     1      -3.545  -6.154 -10.514  0.00  0.00    +0.000 A 
ENDBRANCH  10  11
ENDBRANCH   1  10
TORSDOF 2
ENDMDL
MODEL 8
REMARK VINA RESULT:    -4.362     24.850     25.791
REMARK INTER + INTRA:          -5.045
REMARK INTER:                  -4.980
REMARK INTRA:                  -0.065
REMARK UNBOUND:                -0.173
REMARK  Name = 1550473
REMARK  2 active torsions:
REMARK  status: ('A' for Active; 'I' for Inactive)
REMARK    1  A    between atoms: N_1  and  C_4
REMARK    2  A    between atoms: C_4  and  C_5
REMARK                            x       y       z     vdW  Elec       q    Type
REMARK                         _______ _______ _______ _____ _____    ______ ____
ROOT
ATOM      1  N   UNL     1      -0.754  -7.781  -8.247  0.00  0.00    -0.354 N 
ATOM      2  N   UNL     1      -2.483  -7.838  -9.786  0.00  0.00    -0.372 N 
ATOM      3  N   UNL     1      -1.478  -5.829  -9.321  0.00  0.00    -0.372 N 
ATOM      4  C   UNL     1      -1.560  -7.146  -9.108  0.00  0.00    +0.166 C 
ATOM      5  H   UNL     1      -0.886  -8.776  -8.108  0.00  0.00    +0.163 HD
ATOM      6  H   UNL     1      -3.103  -7.387 -10.445  0.00  0.00    +0.159 HD
ATOM      7  H   UNL     1      -2.583  -8.840  -9.679  0.00  0.00    +0.159 HD
ATOM      8  H   UNL     1      -0.807  -5.248  -8.836  0.00  0.00    +0.159 HD
ATOM      9  H   UNL     1      -2.098  -5.357  -9.968  0.00  0.00    +0.159 HD
ENDROOT
BRANCH   1  10
ATOM     10  C   UNL     1       0.320  -7.129  -7.499  0.00  0.00    +0.151 C 
BRANCH  10  11
ATOM     11  C   UNL     1      -0.074  -7.040  -6.050  0.00  0.00    -0.028 A 
ATOM     12  C   UNL     1       0.891  -7.164  -5.041  0.00  0.00    +0.005 A 
ATOM     13  C   UNL     1      -1.411  -6.827  -5.681  0.00  0.00    +0.005 A 
ATOM     14  C   UNL     1       0.530  -7.052  -3.696  0.00  0.00    +0.000 A 
ATOM     15  C   UNL     1      -1.768  -6.716  -4.337  0.00  0.00    +0.000 A 
ATOM     16  C   UNL     1      -0.797  -6.826  -3.345  0.00  0.00    +0.000 A 
ENDBRANCH  10  11
ENDBRANCH   1  10
TORSDOF 2
ENDMDL
MODEL 9
REMARK VINA RESULT:    -4.355     28.953     29.627
REMARK INTER + INTRA:          -5.037
REMARK INTER:                  -4.918
REMARK INTRA:                  -0.120
REMARK UNBOUND:                -0.173
REMARK  Name = 1550473
REMARK  2 active torsions:
REMARK  status: ('A' for Active; 'I' for Inactive)
REMARK    1  A    between atoms: N_1  and  C_4
REMARK    2  A    between atoms: C_4  and  C_5
REMARK                            x       y       z     vdW  Elec       q    Type
REMARK                         _______ _______ _______ _____ _____    ______ ____
ROOT
ATOM      1  N   UNL     1      -8.028   3.828  13.742  0.00  0.00    -0.354 N 
ATOM      2  N   UNL     1      -5.907   3.801  14.673  0.00  0.00    -0.372 N 
ATOM      3  N   UNL     1      -6.338   2.466  12.857  0.00  0.00    -0.372 N 
ATOM      4  C   UNL     1      -6.771   3.363  13.749  0.00  0.00    +0.166 C 
ATOM      5  H   UNL     1      -8.302   4.484  14.464  0.00  0.00    +0.163 HD
ATOM      6  H   UNL     1      -4.952   3.471  14.701  0.00  0.00    +0.159 HD
ATOM      7  H   UNL     1      -6.171   4.491  15.365  0.00  0.00    +0.159 HD
ATOM      8  H   UNL     1      -6.942   2.091  12.138  0.00  0.00    +0.159 HD
ATOM      9  H   UNL     1      -5.389   2.115  12.876  0.00  0.00    +0.159 HD
ENDROOT
BRANCH   1  10
ATOM     10  C   UNL     1      -9.031   3.456  12.746  0.00  0.00    +0.151 C 
BRANCH  10  11
ATOM     11  C   UNL     1     -10.083   2.605  13.403  0.00  0.00    -0.028 A 
ATOM     12  C   UNL     1     -10.041   2.361  14.783  0.00  0.00    +0.005 A 
ATOM     13  C   UNL     1     -11.126   2.044  12.651  0.00  0.00    +0.005 A 
ATOM     14  C   UNL     1     -11.035   1.595  15.399  0.00  0.00    +0.000 A 
ATOM     15  C   UNL     1     -12.115   1.279  13.269  0.00  0.00    +0.000 A 
ATOM     16  C   UNL     1     -12.071   1.057  14.643  0.00  0.00    +0.000 A 
ENDBRANCH  10  11
ENDBRANCH   1  10
TORSDOF 2
ENDMDL
