MODEL 1
REMARK VINA RESULT:    -5.329      0.000      0.000
REMARK INTER + INTRA:          -6.076
REMARK INTER:                  -5.952
REMARK INTRA:                  -0.124
REMARK UNBOUND:                -0.124
REMARK  Name = 1550473
REMARK  2 active torsions:
REMARK  status: ('A' for Active; 'I' for Inactive)
REMARK    1  A    between atoms: N_1  and  C_4
REMARK    2  A    between atoms: C_4  and  C_5
REMARK                            x       y       z     vdW  Elec       q    Type
REMARK                         _______ _______ _______ _____ _____    ______ ____
ROOT
ATOM      1  N   UNL     1     -11.861  -5.583   9.725  0.00  0.00    -0.354 N 
ATOM      2  N   UNL     1      -9.652  -4.957   9.422  0.00  0.00    -0.372 N 
ATOM      3  N   UNL     1     -10.807  -4.115  11.217  0.00  0.00    -0.372 N 
ATOM      4  C   UNL     1     -10.788  -4.888  10.126  0.00  0.00    +0.166 C 
ATOM      5  H   UNL     1     -11.791  -6.126   8.872  0.00  0.00    +0.163 HD
ATOM      6  H   UNL     1      -8.825  -4.447   9.702  0.00  0.00    +0.159 HD
ATOM      7  H   UNL     1      -9.571  -5.537   8.596  0.00  0.00    +0.159 HD
ATOM      8  H   UNL     1     -11.635  -4.015  11.788  0.00  0.00    +0.159 HD
ATOM      9  H   UNL     1      -9.993  -3.587  11.507  0.00  0.00    +0.159 HD
ENDROOT
BRANCH   1  10
ATOM     10  C   UNL     1     -13.130  -5.619  10.450  0.00  0.00    +0.151 C 
BRANCH  10  11
ATOM     11  C   UNL     1     -14.053  -6.596   9.776  0.00  0.00    -0.028 A 
ATOM     12  C   UNL     1     -13.672  -7.230   8.585  0.00  0.00    +0.005 A 
ATOM     13  C   UNL     1     -15.309  -6.896  10.327  0.00  0.00    +0.005 A 
ATOM     14  C   UNL     1     -14.517  -8.160   7.974  0.00  0.00    +0.000 A 
ATOM     15  C   UNL     1     -16.150  -7.824   9.715  0.00  0.00    +0.000 A 
ATOM     16  C   UNL     1     -15.753  -8.458   8.540  0.00  0.00    +0.000 A 
ENDBRANCH  10  11
ENDBRANCH   1  10
TORSDOF 2
ENDMDL
MODEL 2
REMARK VINA RESULT:    -4.968     14.355     15.541
REMARK INTER + INTRA:          -5.673
REMARK INTER:                  -5.574
REMARK INTRA:                  -0.099
REMARK UNBOUND:                -0.124
REMARK  Name = 1550473
REMARK  2 active torsions:
REMARK  status: ('A' for Active; 'I' for Inactive)
REMARK    1  A    between atoms: N_1  and  C_4
REMARK    2  A    between atoms: C_4  and  C_5
REMARK                            x       y       z     vdW  Elec       q    Type
REMARK                         _______ _______ _______ _____ _____    ______ ____
ROOT
ATOM      1  N   UNL     1     -20.493  -5.539  -4.856  0.00  0.00    -0.354 N 
ATOM      2  N   UNL     1     -21.058  -3.656  -6.081  0.00  0.00    -0.372 N 
ATOM      3  N   UNL     1     -22.199  -4.101  -4.140  0.00  0.00    -0.372 N 
ATOM      4  C   UNL     1     -21.249  -4.444  -5.016  0.00  0.00    +0.166 C 
ATOM      5  H   UNL     1     -19.810  -5.761  -5.571  0.00  0.00    +0.163 HD
ATOM      6  H   UNL     1     -21.611  -2.822  -6.226  0.00  0.00    +0.159 HD
ATOM      7  H   UNL     1     -20.344  -3.855  -6.770  0.00  0.00    +0.159 HD
ATOM      8  H   UNL     1     -22.397  -4.657  -3.319  0.00  0.00    +0.159 HD
ATOM      9  H   UNL     1     -22.771  -3.276  -4.274  0.00  0.00    +0.159 HD
ENDROOT
BRANCH   1  10
ATOM     10  C   UNL     1     -20.584  -6.435  -3.704  0.00  0.00    +0.151 C 
BRANCH  10  11
ATOM     11  C   UNL     1     -19.286  -7.181  -3.559  0.00  0.00    -0.028 A 
ATOM     12  C   UNL     1     -19.157  -8.486  -4.056  0.00  0.00    +0.005 A 
ATOM     13  C   UNL     1     -18.181  -6.587  -2.931  0.00  0.00    +0.005 A 
ATOM     14  C   UNL     1     -17.943  -9.169  -3.949  0.00  0.00    +0.000 A 
ATOM     15  C   UNL     1     -16.971  -7.273  -2.825  0.00  0.00    +0.000 A 
ATOM     16  C   UNL     1     -16.852  -8.563  -3.336  0.00  0.00    +0.000 A 
ENDBRANCH  10  11
ENDBRANCH   1  10
TORSDOF 2
ENDMDL
MODEL 3
REMARK VINA RESULT:    -4.843     11.362     12.423
REMARK INTER + INTRA:          -5.533
REMARK INTER:                  -5.386
REMARK INTRA:                  -0.147
REMARK UNBOUND:                -0.124
REMARK  Name = 1550473
REMARK  2 active torsions:
REMARK  status: ('A' for Active; 'I' for Inactive)
REMARK    1  A    between atoms: N_1  and  C_4
REMARK    2  A    between atoms: C_4  and  C_5
REMARK                            x       y       z     vdW  Elec       q    Type
REMARK                         _______ _______ _______ _____ _____    ______ ____
ROOT
ATOM      1  N   UNL     1      -1.189  -3.642   9.185  0.00  0.00    -0.354 N 
ATOM      2  N   UNL     1      -2.701  -1.895   9.343  0.00  0.00    -0.372 N 
ATOM      3  N   UNL     1      -2.739  -3.542  10.940  0.00  0.00    -0.372 N 
ATOM      4  C   UNL     1      -2.201  -3.040   9.824  0.00  0.00    +0.166 C 
ATOM      5  H   UNL     1      -0.845  -3.226   8.327  0.00  0.00    +0.163 HD
ATOM      6  H   UNL     1      -3.462  -1.416   9.805  0.00  0.00    +0.159 HD
ATOM      7  H   UNL     1      -2.326  -1.458   8.510  0.00  0.00    +0.159 HD
ATOM      8  H   UNL     1      -2.410  -4.406  11.351  0.00  0.00    +0.159 HD
ATOM      9  H   UNL     1      -3.509  -3.083  11.410  0.00  0.00    +0.159 HD
ENDROOT
BRANCH   1  10
ATOM     10  C   UNL     1      -0.536  -4.863   9.655  0.00  0.00    +0.151 C 
BRANCH  10  11
ATOM     11  C   UNL     1      -0.710  -5.942   8.622  0.00  0.00    -0.028 A 
ATOM     12  C   UNL     1      -1.991  -6.313   8.189  0.00  0.00    +0.005 A 
ATOM     13  C   UNL     1       0.403  -6.593   8.069  0.00  0.00    +0.005 A 
ATOM     14  C   UNL     1      -2.152  -7.294   7.207  0.00  0.00    +0.000 A 
ATOM     15  C   UNL     1       0.239  -7.573   7.090  0.00  0.00    +0.000 A 
ATOM     16  C   UNL     1      -1.039  -7.922   6.658  0.00  0.00    +0.000 A 
ENDBRANCH  10  11
ENDBRANCH   1  10
TORSDOF 2
ENDMDL
MODEL 4
REMARK VINA RESULT:    -4.753      1.490      2.324
REMARK INTER + INTRA:          -5.433
REMARK INTER:                  -5.297
REMARK INTRA:                  -0.136
REMARK UNBOUND:                -0.124
REMARK  Name = 1550473
REMARK  2 active torsions:
REMARK  status: ('A' for Active; 'I' for Inactive)
REMARK    1  A    between atoms: N_1  and  C_4
REMARK    2  A    between atoms: C_4  and  C_5
REMARK                            x       y       z     vdW  Elec       q    Type
REMARK                         _______ _______ _______ _____ _____    ______ ____
ROOT
ATOM      1  N   UNL     1     -12.077  -4.412  10.542  0.00  0.00    -0.354 N 
ATOM      2  N   UNL     1     -10.064  -3.486  11.217  0.00  0.00    -0.372 N 
ATOM      3  N   UNL     1     -10.086  -4.887   9.400  0.00  0.00    -0.372 N 
ATOM      4  C   UNL     1     -10.755  -4.269  10.380  0.00  0.00    +0.166 C 
ATOM      5  H   UNL     1     -12.519  -3.941  11.323  0.00  0.00    +0.163 HD
ATOM      6  H   UNL     1      -9.066  -3.356  11.118  0.00  0.00    +0.159 HD
ATOM      7  H   UNL     1     -10.517  -2.980  11.969  0.00  0.00    +0.159 HD
ATOM      8  H   UNL     1     -10.548  -5.496   8.739  0.00  0.00    +0.159 HD
ATOM      9  H   UNL     1      -9.086  -4.779   9.291  0.00  0.00    +0.159 HD
ENDROOT
BRANCH   1  10
ATOM     10  C   UNL     1     -12.929  -5.199   9.653  0.00  0.00    +0.151 C 
BRANCH  10  11
ATOM     11  C   UNL     1     -13.697  -6.202  10.470  0.00  0.00    -0.028 A 
ATOM     12  C   UNL     1     -14.987  -6.596  10.085  0.00  0.00    +0.005 A 
ATOM     13  C   UNL     1     -13.137  -6.767  11.626  0.00  0.00    +0.005 A 
ATOM     14  C   UNL     1     -15.688  -7.550  10.826  0.00  0.00    +0.000 A 
ATOM     15  C   UNL     1     -13.841  -7.718  12.364  0.00  0.00    +0.000 A 
ATOM     16  C   UNL     1     -15.115  -8.112  11.962  0.00  0.00    +0.000 A 
ENDBRANCH  10  11
ENDBRANCH   1  10
TORSDOF 2
ENDMDL
MODEL 5
REMARK VINA RESULT:    -4.419     14.709     16.132
REMARK INTER + INTRA:          -5.059
REMARK INTER:                  -4.899
REMARK INTRA:                  -0.161
REMARK UNBOUND:                -0.124
REMARK  Name = 1550473
REMARK  2 active torsions:
REMARK  status: ('A' for Active; 'I' for Inactive)
REMARK    1  A    between atoms: N_1  and  C_4
REMARK    2  A    between atoms: C_4  and  C_5
REMARK                            x       y       z     vdW  Elec       q    Type
REMARK                         _______ _______ _______ _____ _____    ______ ____
ROOT
ATOM      1  N   UNL     1     -17.271  -8.256  -3.658  0.00  0.00    -0.354 N 
ATOM      2  N   UNL     1     -17.111  -6.344  -2.362  0.00  0.00    -0.372 N 
ATOM      3  N   UNL     1     -19.187  -7.072  -3.012  0.00  0.00    -0.372 N 
ATOM      4  C   UNL     1     -17.860  -7.236  -3.020  0.00  0.00    +0.166 C 
ATOM      5  H   UNL     1     -16.259  -8.308  -3.651  0.00  0.00    +0.163 HD
ATOM      6  H   UNL     1     -17.527  -5.566  -1.868  0.00  0.00    +0.159 HD
ATOM      7  H   UNL     1     -16.102  -6.424  -2.318  0.00  0.00    +0.159 HD
ATOM      8  H   UNL     1     -19.808  -7.707  -3.495  0.00  0.00    +0.159 HD
ATOM      9  H   UNL     1     -19.622  -6.293  -2.534  0.00  0.00    +0.159 HD
ENDROOT
BRANCH   1  10
ATOM     10  C   UNL     1     -17.999  -9.313  -4.359  0.00  0.00    +0.151 C 
BRANCH  10  11
ATOM     11  C   UNL     1     -18.157  -8.926  -5.803  0.00  0.00    -0.028 A 
ATOM     12  C   UNL     1     -17.033  -8.622  -6.586  0.00  0.00    +0.005 A 
ATOM     13  C   UNL     1     -19.427  -8.866  -6.397  0.00  0.00    +0.005 A 
ATOM     14  C   UNL     1     -17.176  -8.292  -7.935  0.00  0.00    +0.000 A 
ATOM     15  C   UNL     1     -19.566  -8.535  -7.745  0.00  0.00    +0.000 A 
ATOM     16  C   UNL     1     -18.440  -8.251  -8.514  0.00  0.00    +0.000 A 
ENDBRANCH  10  11
ENDBRANCH   1  10
TORSDOF 2
ENDMDL
MODEL 6
REMARK VINA RESULT:    -4.379      2.477      3.399
REMARK INTER + INTRA:          -5.014
REMARK INTER:                  -4.949
REMARK INTRA:                  -0.065
REMARK UNBOUND:                -0.124
REMARK  Name = 1550473
REMARK  2 active torsions:
REMARK  status: ('A' for Active; 'I' for Inactive)
REMARK    1  A    between atoms: N_1  and  C_4
REMARK    2  A    between atoms: C_4  and  C_5
REMARK                            x       y       z     vdW  Elec       q    Type
REMARK                         _______ _______ _______ _____ _____    ______ ____
ROOT
ATOM      1  N   UNL     1     -11.537  -5.977  11.134  0.00  0.00    -0.354 N 
ATOM      2  N   UNL     1     -10.384  -3.968  11.144  0.00  0.00    -0.372 N 
ATOM      3  N   UNL     1     -11.922  -4.356   9.486  0.00  0.00    -0.372 N 
ATOM      4  C   UNL     1     -11.290  -4.780  10.585  0.00  0.00    +0.166 C 
ATOM      5  H   UNL     1     -11.002  -6.252  11.950  0.00  0.00    +0.163 HD
ATOM      6  H   UNL     1     -10.179  -3.058  10.754  0.00  0.00    +0.159 HD
ATOM      7  H   UNL     1      -9.884  -4.227  11.986  0.00  0.00    +0.159 HD
ATOM      8  H   UNL     1     -12.613  -4.924   9.013  0.00  0.00    +0.159 HD
ATOM      9  H   UNL     1     -11.722  -3.453   9.074  0.00  0.00    +0.159 HD
ENDROOT
BRANCH   1  10
ATOM     10  C   UNL     1     -12.542  -6.914  10.635  0.00  0.00    +0.151 C 
BRANCH  10  11
ATOM     11  C   UNL     1     -11.874  -7.922   9.741  0.00  0.00    -0.028 A 
ATOM     12  C   UNL     1     -12.639  -8.769   8.927  0.00  0.00    +0.005 A 
ATOM     13  C   UNL     1     -10.475  -8.030   9.700  0.00  0.00    +0.005 A 
ATOM     14  C   UNL     1     -12.018  -9.685   8.074  0.00  0.00    +0.000 A 
ATOM     15  C   UNL     1      -9.859  -8.947   8.848  0.00  0.00    +0.000 A 
ATOM     16  C   UNL     1     -10.630  -9.772   8.034  0.00  0.00    +0.000 A 
ENDBRANCH  10  11
ENDBRANCH   1  10
TORSDOF 2
ENDMDL
MODEL 7
REMARK VINA RESULT:    -4.310     35.751     37.116
REMARK INTER + INTRA:          -4.937
REMARK INTER:                  -4.815
REMARK INTRA:                  -0.122
REMARK UNBOUND:                -0.124
REMARK  Name = 1550473
REMARK  2 active torsions:
REMARK  status: ('A' for Active; 'I' for Inactive)
REMARK    1  A    between atoms: N_1  and  C_4
REMARK    2  A    between atoms: C_4  and  C_5
REMARK                            x       y       z     vdW  Elec       q    Type
REMARK                         _______ _______ _______ _____ _____    ______ ____
ROOT
ATOM      1  N   UNL     1       5.796  -2.354 -21.335  0.00  0.00    -0.354 N 
ATOM      2  N   UNL     1       4.870  -4.471 -21.181  0.00  0.00    -0.372 N 
ATOM      3  N   UNL     1       5.724  -3.777 -23.195  0.00  0.00    -0.372 N 
ATOM      4  C   UNL     1       5.470  -3.520 -21.907  0.00  0.00    +0.166 C 
ATOM      5  H   UNL     1       5.549  -2.209 -20.362  0.00  0.00    +0.163 HD
ATOM      6  H   UNL     1       4.616  -5.363 -21.584  0.00  0.00    +0.159 HD
ATOM      7  H   UNL     1       4.666  -4.341 -20.197  0.00  0.00    +0.159 HD
ATOM      8  H   UNL     1       6.169  -3.099 -23.798  0.00  0.00    +0.159 HD
ATOM      9  H   UNL     1       5.466  -4.659 -23.620  0.00  0.00    +0.159 HD
ENDROOT
BRANCH   1  10
ATOM     10  C   UNL     1       6.499  -1.273 -22.023  0.00  0.00    +0.151 C 
BRANCH  10  11
ATOM     11  C   UNL     1       6.886  -0.221 -21.021  0.00  0.00    -0.028 A 
ATOM     12  C   UNL     1       7.741   0.830 -21.385  0.00  0.00    +0.005 A 
ATOM     13  C   UNL     1       6.397  -0.267 -19.706  0.00  0.00    +0.005 A 
ATOM     14  C   UNL     1       8.077   1.823 -20.462  0.00  0.00    +0.000 A 
ATOM     15  C   UNL     1       6.735   0.727 -18.788  0.00  0.00    +0.000 A 
ATOM     16  C   UNL     1       7.573   1.773 -19.167  0.00  0.00    +0.000 A 
ENDBRANCH  10  11
ENDBRANCH   1  10
TORSDOF 2
ENDMDL
MODEL 8
REMARK VINA RESULT:    -4.228      2.358      3.254
REMARK INTER + INTRA:          -4.846
REMARK INTER:                  -4.695
REMARK INTRA:                  -0.151
REMARK UNBOUND:                -0.124
REMARK  Name = 1550473
REMARK  2 active torsions:
REMARK  status: ('A' for Active; 'I' for Inactive)
REMARK    1  A    between atoms: N_1  and  C_4
REMARK    2  A    between atoms: C_4  and  C_5
REMARK                            x       y       z     vdW  Elec       q    Type
REMARK                         _______ _______ _______ _____ _____    ______ ____
ROOT
ATOM      1  N   UNL     1     -11.886  -6.069   9.848  0.00  0.00    -0.354 N 
ATOM      2  N   UNL     1      -9.674  -5.433   9.589  0.00  0.00    -0.372 N 
ATOM      3  N   UNL     1     -11.191  -3.887  10.346  0.00  0.00    -0.372 N 
ATOM      4  C   UNL     1     -10.933  -5.131   9.930  0.00  0.00    +0.166 C 
ATOM      5  H   UNL     1     -11.632  -6.985   9.496  0.00  0.00    +0.163 HD
ATOM      6  H   UNL     1      -8.933  -4.748   9.643  0.00  0.00    +0.159 HD
ATOM      7  H   UNL     1      -9.414  -6.363   9.281  0.00  0.00    +0.159 HD
ATOM      8  H   UNL     1     -12.122  -3.594  10.612  0.00  0.00    +0.159 HD
ATOM      9  H   UNL     1     -10.465  -3.183  10.396  0.00  0.00    +0.159 HD
ENDROOT
BRANCH   1  10
ATOM     10  C   UNL     1     -13.277  -5.858  10.246  0.00  0.00    +0.151 C 
BRANCH  10  11
ATOM     11  C   UNL     1     -13.477  -6.398  11.635  0.00  0.00    -0.028 A 
ATOM     12  C   UNL     1     -12.726  -7.492  12.089  0.00  0.00    +0.005 A 
ATOM     13  C   UNL     1     -14.413  -5.817  12.505  0.00  0.00    +0.005 A 
ATOM     14  C   UNL     1     -12.890  -7.975  13.390  0.00  0.00    +0.000 A 
ATOM     15  C   UNL     1     -14.574  -6.303  13.802  0.00  0.00    +0.000 A 
ATOM     16  C   UNL     1     -13.811  -7.380  14.245  0.00  0.00    +0.000 A 
ENDBRANCH  10  11
ENDBRANCH   1  10
TORSDOF 2
ENDMDL
MODEL 9
REMARK VINA RESULT:    -4.137     16.929     17.450
REMARK INTER + INTRA:          -4.744
REMARK INTER:                  -4.587
REMARK INTRA:                  -0.157
REMARK UNBOUND:                -0.124
REMARK  Name = 1550473
REMARK  2 active torsions:
REMARK  status: ('A' for Active; 'I' for Inactive)
REMARK    1  A    between atoms: N_1  and  C_4
REMARK    2  A    between atoms: C_4  and  C_5
REMARK                            x       y       z     vdW  Elec       q    Type
REMARK                         _______ _______ _______ _____ _____    ______ ____
ROOT
ATOM      1  N   UNL     1     -18.934   6.018  -2.231  0.00  0.00    -0.354 N 
ATOM      2  N   UNL     1     -19.499   4.304  -3.682  0.00  0.00    -0.372 N 
ATOM      3  N   UNL     1     -17.576   5.495  -4.068  0.00  0.00    -0.372 N 
ATOM      4  C   UNL     1     -18.664   5.285  -3.319  0.00  0.00    +0.166 C 
ATOM      5  H   UNL     1     -19.790   5.828  -1.723  0.00  0.00    +0.163 HD
ATOM      6  H   UNL     1     -19.320   3.732  -4.496  0.00  0.00    +0.159 HD
ATOM      7  H   UNL     1     -20.331   4.087  -3.146  0.00  0.00    +0.159 HD
ATOM      8  H   UNL     1     -16.909   6.223  -3.851  0.00  0.00    +0.159 HD
ATOM      9  H   UNL     1     -17.386   4.940  -4.893  0.00  0.00    +0.159 HD
ENDROOT
BRANCH   1  10
ATOM     10  C   UNL     1     -18.061   7.073  -1.719  0.00  0.00    +0.151 C 
BRANCH  10  11
ATOM     11  C   UNL     1     -17.525   6.659  -0.377  0.00  0.00    -0.028 A 
ATOM     12  C   UNL     1     -18.316   6.782   0.775  0.00  0.00    +0.005 A 
ATOM     13  C   UNL     1     -16.228   6.138  -0.250  0.00  0.00    +0.005 A 
ATOM     14  C   UNL     1     -17.829   6.370   2.018  0.00  0.00    +0.000 A 
ATOM     15  C   UNL     1     -15.745   5.728   0.992  0.00  0.00    +0.000 A 
ATOM     16  C   UNL     1     -16.547   5.842   2.126  0.00  0.00    +0.000 A 
ENDBRANCH  10  11
ENDBRANCH   1  10
TORSDOF 2
ENDMDL
