MODEL 1
REMARK VINA RESULT:    -5.264      0.000      0.000
REMARK INTER + INTRA:          -6.027
REMARK INTER:                  -5.880
REMARK INTRA:                  -0.147
REMARK UNBOUND:                -0.147
REMARK  Name = 1550473
REMARK  2 active torsions:
REMARK  status: ('A' for Active; 'I' for Inactive)
REMARK    1  A    between atoms: N_1  and  C_4
REMARK    2  A    between atoms: C_4  and  C_5
REMARK                            x       y       z     vdW  Elec       q    Type
REMARK                         _______ _______ _______ _____ _____    ______ ____
ROOT
ATOM      1  N   UNL     1      -7.371   8.558  -3.272  0.00  0.00    -0.354 N 
ATOM      2  N   UNL     1      -6.700   9.037  -1.108  0.00  0.00    -0.372 N 
ATOM      3  N   UNL     1      -8.386   7.515  -1.436  0.00  0.00    -0.372 N 
ATOM      4  C   UNL     1      -7.492   8.365  -1.952  0.00  0.00    +0.166 C 
ATOM      5  H   UNL     1      -6.695   9.239  -3.599  0.00  0.00    +0.163 HD
ATOM      6  H   UNL     1      -6.766   8.909  -0.107  0.00  0.00    +0.159 HD
ATOM      7  H   UNL     1      -5.994   9.682  -1.439  0.00  0.00    +0.159 HD
ATOM      8  H   UNL     1      -9.017   6.982  -2.019  0.00  0.00    +0.159 HD
ATOM      9  H   UNL     1      -8.476   7.383  -0.436  0.00  0.00    +0.159 HD
ENDROOT
BRANCH   1  10
ATOM     10  C   UNL     1      -8.148   7.837  -4.279  0.00  0.00    +0.151 C 
BRANCH  10  11
ATOM     11  C   UNL     1      -7.206   7.097  -5.188  0.00  0.00    -0.028 A 
ATOM     12  C   UNL     1      -6.323   6.138  -4.671  0.00  0.00    +0.005 A 
ATOM     13  C   UNL     1      -7.197   7.345  -6.570  0.00  0.00    +0.005 A 
ATOM     14  C   UNL     1      -5.470   5.429  -5.519  0.00  0.00    +0.000 A 
ATOM     15  C   UNL     1      -6.343   6.635  -7.413  0.00  0.00    +0.000 A 
ATOM     16  C   UNL     1      -5.481   5.675  -6.888  0.00  0.00    +0.000 A 
ENDBRANCH  10  11
ENDBRANCH   1  10
TORSDOF 2
ENDMDL
MODEL 2
REMARK VINA RESULT:    -4.729      1.278      2.035
REMARK INTER + INTRA:          -5.429
REMARK INTER:                  -5.298
REMARK INTRA:                  -0.131
REMARK UNBOUND:                -0.147
REMARK  Name = 1550473
REMARK  2 active torsions:
REMARK  status: ('A' for Active; 'I' for Inactive)
REMARK    1  A    between atoms: N_1  and  C_4
REMARK    2  A    between atoms: C_4  and  C_5
REMARK                            x       y       z     vdW  Elec       q    Type
REMARK                         _______ _______ _______ _____ _____    ______ ____
ROOT
ATOM      1  N   UNL     1      -7.842   8.521  -2.200  0.00  0.00    -0.354 N 
ATOM      2  N   UNL     1      -8.833  10.300  -1.096  0.00  0.00    -0.372 N 
ATOM      3  N   UNL     1      -9.598   8.175  -0.687  0.00  0.00    -0.372 N 
ATOM      4  C   UNL     1      -8.753   8.985  -1.334  0.00  0.00    +0.166 C 
ATOM      5  H   UNL     1      -7.250   9.189  -2.680  0.00  0.00    +0.163 HD
ATOM      6  H   UNL     1      -9.508  10.679  -0.445  0.00  0.00    +0.159 HD
ATOM      7  H   UNL     1      -8.210  10.961  -1.543  0.00  0.00    +0.159 HD
ATOM      8  H   UNL     1      -9.593   7.174  -0.827  0.00  0.00    +0.159 HD
ATOM      9  H   UNL     1     -10.288   8.537  -0.041  0.00  0.00    +0.159 HD
ENDROOT
BRANCH   1  10
ATOM     10  C   UNL     1      -7.636   7.103  -2.489  0.00  0.00    +0.151 C 
BRANCH  10  11
ATOM     11  C   UNL     1      -7.218   6.950  -3.926  0.00  0.00    -0.028 A 
ATOM     12  C   UNL     1      -7.676   7.850  -4.900  0.00  0.00    +0.005 A 
ATOM     13  C   UNL     1      -6.361   5.911  -4.318  0.00  0.00    +0.005 A 
ATOM     14  C   UNL     1      -7.264   7.726  -6.229  0.00  0.00    +0.000 A 
ATOM     15  C   UNL     1      -5.953   5.791  -5.647  0.00  0.00    +0.000 A 
ATOM     16  C   UNL     1      -6.403   6.700  -6.601  0.00  0.00    +0.000 A 
ENDBRANCH  10  11
ENDBRANCH   1  10
TORSDOF 2
ENDMDL
MODEL 3
REMARK VINA RESULT:    -4.589     10.222     12.514
REMARK INTER + INTRA:          -5.273
REMARK INTER:                  -5.125
REMARK INTRA:                  -0.148
REMARK UNBOUND:                -0.147
REMARK  Name = 1550473
REMARK  2 active torsions:
REMARK  status: ('A' for Active; 'I' for Inactive)
REMARK    1  A    between atoms: N_1  and  C_4
REMARK    2  A    between atoms: C_4  and  C_5
REMARK                            x       y       z     vdW  Elec       q    Type
REMARK                         _______ _______ _______ _____ _____    ______ ____
ROOT
ATOM      1  N   UNL     1     -13.763   5.523   2.935  0.00  0.00    -0.354 N 
ATOM      2  N   UNL     1     -12.477   5.315   1.021  0.00  0.00    -0.372 N 
ATOM      3  N   UNL     1     -14.758   5.447   0.815  0.00  0.00    -0.372 N 
ATOM      4  C   UNL     1     -13.677   5.430   1.602  0.00  0.00    +0.166 C 
ATOM      5  H   UNL     1     -12.908   5.474   3.477  0.00  0.00    +0.163 HD
ATOM      6  H   UNL     1     -12.381   5.246   0.016  0.00  0.00    +0.159 HD
ATOM      7  H   UNL     1     -11.621   5.312   1.562  0.00  0.00    +0.159 HD
ATOM      8  H   UNL     1     -15.694   5.525   1.192  0.00  0.00    +0.159 HD
ATOM      9  H   UNL     1     -14.683   5.367  -0.191  0.00  0.00    +0.159 HD
ENDROOT
BRANCH   1  10
ATOM     10  C   UNL     1     -15.018   5.706   3.663  0.00  0.00    +0.151 C 
BRANCH  10  11
ATOM     11  C   UNL     1     -15.239   4.523   4.565  0.00  0.00    -0.028 A 
ATOM     12  C   UNL     1     -14.514   4.392   5.759  0.00  0.00    +0.005 A 
ATOM     13  C   UNL     1     -16.175   3.531   4.234  0.00  0.00    +0.005 A 
ATOM     14  C   UNL     1     -14.740   3.309   6.611  0.00  0.00    +0.000 A 
ATOM     15  C   UNL     1     -16.398   2.451   5.088  0.00  0.00    +0.000 A 
ATOM     16  C   UNL     1     -15.682   2.342   6.278  0.00  0.00    +0.000 A 
ENDBRANCH  10  11
ENDBRANCH   1  10
TORSDOF 2
ENDMDL
MODEL 4
REMARK VINA RESULT:    -4.559     25.079     25.915
REMARK INTER + INTRA:          -5.239
REMARK INTER:                  -5.102
REMARK INTRA:                  -0.138
REMARK UNBOUND:                -0.147
REMARK  Name = 1550473
REMARK  2 active torsions:
REMARK  status: ('A' for Active; 'I' for Inactive)
REMARK    1  A    between atoms: N_1  and  C_4
REMARK    2  A    between atoms: C_4  and  C_5
REMARK                            x       y       z     vdW  Elec       q    Type
REMARK                         _______ _______ _______ _____ _____    ______ ____
ROOT
ATOM      1  N   UNL     1      16.202  -1.498   6.555  0.00  0.00    -0.354 N 
ATOM      2  N   UNL     1      15.527  -1.458   8.771  0.00  0.00    -0.372 N 
ATOM      3  N   UNL     1      15.380   0.468   7.532  0.00  0.00    -0.372 N 
ATOM      4  C   UNL     1      15.707  -0.827   7.604  0.00  0.00    +0.166 C 
ATOM      5  H   UNL     1      16.458  -2.470   6.683  0.00  0.00    +0.163 HD
ATOM      6  H   UNL     1      15.153  -0.978   9.578  0.00  0.00    +0.159 HD
ATOM      7  H   UNL     1      15.741  -2.441   8.883  0.00  0.00    +0.159 HD
ATOM      8  H   UNL     1      15.497   1.003   6.682  0.00  0.00    +0.159 HD
ATOM      9  H   UNL     1      15.015   0.968   8.333  0.00  0.00    +0.159 HD
ENDROOT
BRANCH   1  10
ATOM     10  C   UNL     1      16.385  -0.917   5.226  0.00  0.00    +0.151 C 
BRANCH  10  11
ATOM     11  C   UNL     1      15.698  -1.788   4.211  0.00  0.00    -0.028 A 
ATOM     12  C   UNL     1      14.849  -2.826   4.621  0.00  0.00    +0.005 A 
ATOM     13  C   UNL     1      15.886  -1.575   2.836  0.00  0.00    +0.005 A 
ATOM     14  C   UNL     1      14.187  -3.616   3.678  0.00  0.00    +0.000 A 
ATOM     15  C   UNL     1      15.224  -2.367   1.898  0.00  0.00    +0.000 A 
ATOM     16  C   UNL     1      14.372  -3.385   2.319  0.00  0.00    +0.000 A 
ENDBRANCH  10  11
ENDBRANCH   1  10
TORSDOF 2
ENDMDL
MODEL 5
REMARK VINA RESULT:    -4.381     14.076     15.716
REMARK INTER + INTRA:          -5.041
REMARK INTER:                  -4.902
REMARK INTRA:                  -0.138
REMARK UNBOUND:                -0.147
REMARK  Name = 1550473
REMARK  2 active torsions:
REMARK  status: ('A' for Active; 'I' for Inactive)
REMARK    1  A    between atoms: N_1  and  C_4
REMARK    2  A    between atoms: C_4  and  C_5
REMARK                            x       y       z     vdW  Elec       q    Type
REMARK                         _______ _______ _______ _____ _____    ______ ____
ROOT
ATOM      1  N   UNL     1     -15.429   0.402   7.991  0.00  0.00    -0.354 N 
ATOM      2  N   UNL     1     -14.848  -0.448  10.065  0.00  0.00    -0.372 N 
ATOM      3  N   UNL     1     -17.070  -0.167   9.564  0.00  0.00    -0.372 N 
ATOM      4  C   UNL     1     -15.789  -0.065   9.193  0.00  0.00    +0.166 C 
ATOM      5  H   UNL     1     -14.441   0.482   7.781  0.00  0.00    +0.163 HD
ATOM      6  H   UNL     1     -15.090  -0.808  10.979  0.00  0.00    +0.159 HD
ATOM      7  H   UNL     1     -13.862  -0.410   9.836  0.00  0.00    +0.159 HD
ATOM      8  H   UNL     1     -17.827   0.111   8.955  0.00  0.00    +0.159 HD
ATOM      9  H   UNL     1     -17.331  -0.513  10.479  0.00  0.00    +0.159 HD
ENDROOT
BRANCH   1  10
ATOM     10  C   UNL     1     -16.377   0.794   6.949  0.00  0.00    +0.151 C 
BRANCH  10  11
ATOM     11  C   UNL     1     -15.891   2.057   6.293  0.00  0.00    -0.028 A 
ATOM     12  C   UNL     1     -16.439   2.483   5.075  0.00  0.00    +0.005 A 
ATOM     13  C   UNL     1     -14.886   2.835   6.888  0.00  0.00    +0.005 A 
ATOM     14  C   UNL     1     -16.009   3.672   4.480  0.00  0.00    +0.000 A 
ATOM     15  C   UNL     1     -14.458   4.021   6.291  0.00  0.00    +0.000 A 
ATOM     16  C   UNL     1     -15.022   4.440   5.088  0.00  0.00    +0.000 A 
ENDBRANCH  10  11
ENDBRANCH   1  10
TORSDOF 2
ENDMDL
MODEL 6
REMARK VINA RESULT:    -4.343     25.720     26.632
REMARK INTER + INTRA:          -4.998
REMARK INTER:                  -4.824
REMARK INTRA:                  -0.174
REMARK UNBOUND:                -0.147
REMARK  Name = 1550473
REMARK  2 active torsions:
REMARK  status: ('A' for Active; 'I' for Inactive)
REMARK    1  A    between atoms: N_1  and  C_4
REMARK    2  A    between atoms: C_4  and  C_5
REMARK                            x       y       z     vdW  Elec       q    Type
REMARK                         _______ _______ _______ _____ _____    ______ ____
ROOT
ATOM      1  N   UNL     1       6.266   7.693  19.425  0.00  0.00    -0.354 N 
ATOM      2  N   UNL     1       5.709   9.791  18.616  0.00  0.00    -0.372 N 
ATOM      3  N   UNL     1       4.386   8.000  18.061  0.00  0.00    -0.372 N 
ATOM      4  C   UNL     1       5.455   8.479  18.704  0.00  0.00    +0.166 C 
ATOM      5  H   UNL     1       7.078   8.112  19.864  0.00  0.00    +0.163 HD
ATOM      6  H   UNL     1       5.113  10.409  18.082  0.00  0.00    +0.159 HD
ATOM      7  H   UNL     1       6.495  10.215  19.094  0.00  0.00    +0.159 HD
ATOM      8  H   UNL     1       4.143   7.019  18.083  0.00  0.00    +0.159 HD
ATOM      9  H   UNL     1       3.784   8.602  17.512  0.00  0.00    +0.159 HD
ENDROOT
BRANCH   1  10
ATOM     10  C   UNL     1       6.048   6.262  19.629  0.00  0.00    +0.151 C 
BRANCH  10  11
ATOM     11  C   UNL     1       6.943   5.491  18.698  0.00  0.00    -0.028 A 
ATOM     12  C   UNL     1       8.324   5.737  18.671  0.00  0.00    +0.005 A 
ATOM     13  C   UNL     1       6.417   4.510  17.844  0.00  0.00    +0.005 A 
ATOM     14  C   UNL     1       9.159   5.000  17.828  0.00  0.00    +0.000 A 
ATOM     15  C   UNL     1       7.255   3.777  17.003  0.00  0.00    +0.000 A 
ATOM     16  C   UNL     1       8.626   4.021  16.998  0.00  0.00    +0.000 A 
ENDBRANCH  10  11
ENDBRANCH   1  10
TORSDOF 2
ENDMDL
MODEL 7
REMARK VINA RESULT:    -4.326     15.465     16.450
REMARK INTER + INTRA:          -4.980
REMARK INTER:                  -4.857
REMARK INTRA:                  -0.122
REMARK UNBOUND:                -0.147
REMARK  Name = 1550473
REMARK  2 active torsions:
REMARK  status: ('A' for Active; 'I' for Inactive)
REMARK    1  A    between atoms: N_1  and  C_4
REMARK    2  A    between atoms: C_4  and  C_5
REMARK                            x       y       z     vdW  Elec       q    Type
REMARK                         _______ _______ _______ _____ _____    ______ ____
ROOT
ATOM      1  N   UNL     1     -10.025  -7.454  -0.746  0.00  0.00    -0.354 N 
ATOM      2  N   UNL     1      -7.921  -6.680  -1.329  0.00  0.00    -0.372 N 
ATOM      3  N   UNL     1      -8.095  -8.336   0.250  0.00  0.00    -0.372 N 
ATOM      4  C   UNL     1      -8.694  -7.497  -0.602  0.00  0.00    +0.166 C 
ATOM      5  H   UNL     1     -10.418  -6.775  -1.387  0.00  0.00    +0.163 HD
ATOM      6  H   UNL     1      -6.914  -6.692  -1.245  0.00  0.00    +0.159 HD
ATOM      7  H   UNL     1      -8.315  -6.034  -2.002  0.00  0.00    +0.159 HD
ATOM      8  H   UNL     1      -8.622  -8.974   0.832  0.00  0.00    +0.159 HD
ATOM      9  H   UNL     1      -7.089  -8.355   0.357  0.00  0.00    +0.159 HD
ENDROOT
BRANCH   1  10
ATOM     10  C   UNL     1     -10.952  -8.338  -0.042  0.00  0.00    +0.151 C 
BRANCH  10  11
ATOM     11  C   UNL     1     -12.238  -7.600   0.211  0.00  0.00    -0.028 A 
ATOM     12  C   UNL     1     -12.658  -6.583  -0.659  0.00  0.00    +0.005 A 
ATOM     13  C   UNL     1     -13.044  -7.918   1.315  0.00  0.00    +0.005 A 
ATOM     14  C   UNL     1     -13.867  -5.918  -0.441  0.00  0.00    +0.000 A 
ATOM     15  C   UNL     1     -14.250  -7.251   1.529  0.00  0.00    +0.000 A 
ATOM     16  C   UNL     1     -14.662  -6.253   0.649  0.00  0.00    +0.000 A 
ENDBRANCH  10  11
ENDBRANCH   1  10
TORSDOF 2
ENDMDL
MODEL 8
REMARK VINA RESULT:    -4.200     11.642     13.908
REMARK INTER + INTRA:          -4.839
REMARK INTER:                  -4.699
REMARK INTRA:                  -0.140
REMARK UNBOUND:                -0.147
REMARK  Name = 1550473
REMARK  2 active torsions:
REMARK  status: ('A' for Active; 'I' for Inactive)
REMARK    1  A    between atoms: N_1  and  C_4
REMARK    2  A    between atoms: C_4  and  C_5
REMARK                            x       y       z     vdW  Elec       q    Type
REMARK                         _______ _______ _______ _____ _____    ______ ____
ROOT
ATOM      1  N   UNL     1     -15.497   4.981   4.183  0.00  0.00    -0.354 N 
ATOM      2  N   UNL     1     -15.821   5.663   1.993  0.00  0.00    -0.372 N 
ATOM      3  N   UNL     1     -13.681   5.552   2.816  0.00  0.00    -0.372 N 
ATOM      4  C   UNL     1     -14.995   5.394   3.012  0.00  0.00    +0.166 C 
ATOM      5  H   UNL     1     -16.504   4.911   4.277  0.00  0.00    +0.163 HD
ATOM      6  H   UNL     1     -15.471   5.973   1.097  0.00  0.00    +0.159 HD
ATOM      7  H   UNL     1     -16.823   5.548   2.076  0.00  0.00    +0.159 HD
ATOM      8  H   UNL     1     -13.005   5.372   3.546  0.00  0.00    +0.159 HD
ATOM      9  H   UNL     1     -13.312   5.872   1.929  0.00  0.00    +0.159 HD
ENDROOT
BRANCH   1  10
ATOM     10  C   UNL     1     -14.681   4.611   5.338  0.00  0.00    +0.151 C 
BRANCH  10  11
ATOM     11  C   UNL     1     -15.207   3.329   5.922  0.00  0.00    -0.028 A 
ATOM     12  C   UNL     1     -16.189   2.590   5.246  0.00  0.00    +0.005 A 
ATOM     13  C   UNL     1     -14.724   2.845   7.147  0.00  0.00    +0.005 A 
ATOM     14  C   UNL     1     -16.657   1.384   5.773  0.00  0.00    +0.000 A 
ATOM     15  C   UNL     1     -15.195   1.641   7.670  0.00  0.00    +0.000 A 
ATOM     16  C   UNL     1     -16.159   0.910   6.982  0.00  0.00    +0.000 A 
ENDBRANCH  10  11
ENDBRANCH   1  10
TORSDOF 2
ENDMDL
MODEL 9
REMARK VINA RESULT:    -4.186     23.748     25.093
REMARK INTER + INTRA:          -4.823
REMARK INTER:                  -4.680
REMARK INTRA:                  -0.143
REMARK UNBOUND:                -0.147
REMARK  Name = 1550473
REMARK  2 active torsions:
REMARK  status: ('A' for Active; 'I' for Inactive)
REMARK    1  A    between atoms: N_1  and  C_4
REMARK    2  A    between atoms: C_4  and  C_5
REMARK                            x       y       z     vdW  Elec       q    Type
REMARK                         _______ _______ _______ _____ _____    ______ ____
ROOT
ATOM      1  N   UNL     1      14.272  -4.657  -0.769  0.00  0.00    -0.354 N 
ATOM      2  N   UNL     1      13.023  -4.173  -2.658  0.00  0.00    -0.372 N 
ATOM      3  N   UNL     1      12.604  -6.121  -1.521  0.00  0.00    -0.372 N 
ATOM      4  C   UNL     1      13.307  -4.990  -1.636  0.00  0.00    +0.166 C 
ATOM      5  H   UNL     1      14.789  -3.800  -0.929  0.00  0.00    +0.163 HD
ATOM      6  H   UNL     1      12.298  -4.396  -3.327  0.00  0.00    +0.159 HD
ATOM      7  H   UNL     1      13.510  -3.295  -2.790  0.00  0.00    +0.159 HD
ATOM      8  H   UNL     1      12.774  -6.783  -0.775  0.00  0.00    +0.159 HD
ATOM      9  H   UNL     1      11.882  -6.368  -2.186  0.00  0.00    +0.159 HD
ENDROOT
BRANCH   1  10
ATOM     10  C   UNL     1      14.623  -5.450   0.408  0.00  0.00    +0.151 C 
BRANCH  10  11
ATOM     11  C   UNL     1      14.637  -4.556   1.617  0.00  0.00    -0.028 A 
ATOM     12  C   UNL     1      14.603  -3.161   1.471  0.00  0.00    +0.005 A 
ATOM     13  C   UNL     1      14.680  -5.096   2.911  0.00  0.00    +0.005 A 
ATOM     14  C   UNL     1      14.586  -2.330   2.594  0.00  0.00    +0.000 A 
ATOM     15  C   UNL     1      14.664  -4.264   4.030  0.00  0.00    +0.000 A 
ATOM     16  C   UNL     1      14.615  -2.881   3.871  0.00  0.00    +0.000 A 
ENDBRANCH  10  11
ENDBRANCH   1  10
TORSDOF 2
ENDMDL
