MODEL 1
REMARK VINA RESULT:    -6.012      0.000      0.000
REMARK INTER + INTRA:          -6.879
REMARK INTER:                  -6.714
REMARK INTRA:                  -0.165
REMARK UNBOUND:                -0.165
REMARK  Name = 1550473
REMARK  2 active torsions:
REMARK  status: ('A' for Active; 'I' for Inactive)
REMARK    1  A    between atoms: N_1  and  C_4
REMARK    2  A    between atoms: C_4  and  C_5
REMARK                            x       y       z     vdW  Elec       q    Type
REMARK                         _______ _______ _______ _____ _____    ______ ____
ROOT
ATOM      1  N   UNL     1      14.456  -7.375   5.820  0.00  0.00    -0.354 N 
ATOM      2  N   UNL     1      14.877  -9.477   6.696  0.00  0.00    -0.372 N 
ATOM      3  N   UNL     1      14.073  -9.309   4.554  0.00  0.00    -0.372 N 
ATOM      4  C   UNL     1      14.465  -8.708   5.682  0.00  0.00    +0.166 C 
ATOM      5  H   UNL     1      14.737  -6.982   6.711  0.00  0.00    +0.163 HD
ATOM      6  H   UNL     1      14.898 -10.485   6.620  0.00  0.00    +0.159 HD
ATOM      7  H   UNL     1      15.201  -9.080   7.569  0.00  0.00    +0.159 HD
ATOM      8  H   UNL     1      13.745  -8.786   3.754  0.00  0.00    +0.159 HD
ATOM      9  H   UNL     1      14.075 -10.318   4.463  0.00  0.00    +0.159 HD
ENDROOT
BRANCH   1  10
ATOM     10  C   UNL     1      14.077  -6.445   4.758  0.00  0.00    +0.151 C 
BRANCH  10  11
ATOM     11  C   UNL     1      12.615  -6.118   4.891  0.00  0.00    -0.028 A 
ATOM     12  C   UNL     1      11.742  -6.305   3.810  0.00  0.00    +0.005 A 
ATOM     13  C   UNL     1      12.096  -5.625   6.098  0.00  0.00    +0.005 A 
ATOM     14  C   UNL     1      10.379  -6.029   3.942  0.00  0.00    +0.000 A 
ATOM     15  C   UNL     1      10.735  -5.350   6.226  0.00  0.00    +0.000 A 
ATOM     16  C   UNL     1       9.876  -5.555   5.149  0.00  0.00    +0.000 A 
ENDBRANCH  10  11
ENDBRANCH   1  10
TORSDOF 2
ENDMDL
MODEL 2
REMARK VINA RESULT:    -6.007      1.298      2.135
REMARK INTER + INTRA:          -6.875
REMARK INTER:                  -6.770
REMARK INTRA:                  -0.105
REMARK UNBOUND:                -0.165
REMARK  Name = 1550473
REMARK  2 active torsions:
REMARK  status: ('A' for Active; 'I' for Inactive)
REMARK    1  A    between atoms: N_1  and  C_4
REMARK    2  A    between atoms: C_4  and  C_5
REMARK                            x       y       z     vdW  Elec       q    Type
REMARK                         _______ _______ _______ _____ _____    ______ ____
ROOT
ATOM      1  N   UNL     1      14.569  -5.715   6.323  0.00  0.00    -0.354 N 
ATOM      2  N   UNL     1      15.456  -6.612   8.265  0.00  0.00    -0.372 N 
ATOM      3  N   UNL     1      14.982  -8.014   6.511  0.00  0.00    -0.372 N 
ATOM      4  C   UNL     1      14.996  -6.777   7.019  0.00  0.00    +0.166 C 
ATOM      5  H   UNL     1      14.578  -4.808   6.776  0.00  0.00    +0.163 HD
ATOM      6  H   UNL     1      15.788  -7.395   8.814  0.00  0.00    +0.159 HD
ATOM      7  H   UNL     1      15.506  -5.698   8.699  0.00  0.00    +0.159 HD
ATOM      8  H   UNL     1      14.642  -8.206   5.579  0.00  0.00    +0.159 HD
ATOM      9  H   UNL     1      15.300  -8.811   7.049  0.00  0.00    +0.159 HD
ENDROOT
BRANCH   1  10
ATOM     10  C   UNL     1      14.100  -5.778   4.940  0.00  0.00    +0.151 C 
BRANCH  10  11
ATOM     11  C   UNL     1      12.596  -5.770   4.931  0.00  0.00    -0.028 A 
ATOM     12  C   UNL     1      11.879  -5.402   6.079  0.00  0.00    +0.005 A 
ATOM     13  C   UNL     1      11.883  -6.125   3.776  0.00  0.00    +0.005 A 
ATOM     14  C   UNL     1      10.483  -5.366   6.062  0.00  0.00    +0.000 A 
ATOM     15  C   UNL     1      10.488  -6.088   3.763  0.00  0.00    +0.000 A 
ATOM     16  C   UNL     1       9.789  -5.706   4.906  0.00  0.00    +0.000 A 
ENDBRANCH  10  11
ENDBRANCH   1  10
TORSDOF 2
ENDMDL
MODEL 3
REMARK VINA RESULT:    -5.915     19.729     20.976
REMARK INTER + INTRA:          -6.772
REMARK INTER:                  -6.755
REMARK INTRA:                  -0.017
REMARK UNBOUND:                -0.165
REMARK  Name = 1550473
REMARK  2 active torsions:
REMARK  status: ('A' for Active; 'I' for Inactive)
REMARK    1  A    between atoms: N_1  and  C_4
REMARK    2  A    between atoms: C_4  and  C_5
REMARK                            x       y       z     vdW  Elec       q    Type
REMARK                         _______ _______ _______ _____ _____    ______ ____
ROOT
ATOM      1  N   UNL     1      -9.207  -6.354   7.216  0.00  0.00    -0.354 N 
ATOM      2  N   UNL     1      -8.258  -5.505   9.151  0.00  0.00    -0.372 N 
ATOM      3  N   UNL     1      -8.049  -4.316   7.199  0.00  0.00    -0.372 N 
ATOM      4  C   UNL     1      -8.510  -5.395   7.841  0.00  0.00    +0.166 C 
ATOM      5  H   UNL     1      -9.502  -7.161   7.753  0.00  0.00    +0.163 HD
ATOM      6  H   UNL     1      -7.737  -4.796   9.650  0.00  0.00    +0.159 HD
ATOM      7  H   UNL     1      -8.593  -6.291   9.694  0.00  0.00    +0.159 HD
ATOM      8  H   UNL     1      -8.201  -4.176   6.209  0.00  0.00    +0.159 HD
ATOM      9  H   UNL     1      -7.516  -3.601   7.679  0.00  0.00    +0.159 HD
ENDROOT
BRANCH   1  10
ATOM     10  C   UNL     1      -9.581  -6.304   5.804  0.00  0.00    +0.151 C 
BRANCH  10  11
ATOM     11  C   UNL     1      -8.385  -6.660   4.966  0.00  0.00    -0.028 A 
ATOM     12  C   UNL     1      -7.965  -5.815   3.928  0.00  0.00    +0.005 A 
ATOM     13  C   UNL     1      -7.663  -7.839   5.208  0.00  0.00    +0.005 A 
ATOM     14  C   UNL     1      -6.836  -6.131   3.168  0.00  0.00    +0.000 A 
ATOM     15  C   UNL     1      -6.536  -8.151   4.447  0.00  0.00    +0.000 A 
ATOM     16  C   UNL     1      -6.122  -7.296   3.429  0.00  0.00    +0.000 A 
ENDBRANCH  10  11
ENDBRANCH   1  10
TORSDOF 2
ENDMDL
MODEL 4
REMARK VINA RESULT:    -5.713     23.129     24.759
REMARK INTER + INTRA:          -6.546
REMARK INTER:                  -6.442
REMARK INTRA:                  -0.104
REMARK UNBOUND:                -0.165
REMARK  Name = 1550473
REMARK  2 active torsions:
REMARK  status: ('A' for Active; 'I' for Inactive)
REMARK    1  A    between atoms: N_1  and  C_4
REMARK    2  A    between atoms: C_4  and  C_5
REMARK                            x       y       z     vdW  Elec       q    Type
REMARK                         _______ _______ _______ _____ _____    ______ ____
ROOT
ATOM      1  N   UNL     1      -7.372  -2.832  -5.601  0.00  0.00    -0.354 N 
ATOM      2  N   UNL     1      -5.554  -3.836  -4.576  0.00  0.00    -0.372 N 
ATOM      3  N   UNL     1      -6.367  -1.870  -3.715  0.00  0.00    -0.372 N 
ATOM      4  C   UNL     1      -6.443  -2.837  -4.636  0.00  0.00    +0.166 C 
ATOM      5  H   UNL     1      -7.358  -3.578  -6.287  0.00  0.00    +0.163 HD
ATOM      6  H   UNL     1      -4.844  -3.869  -3.857  0.00  0.00    +0.159 HD
ATOM      7  H   UNL     1      -5.571  -4.605  -5.235  0.00  0.00    +0.159 HD
ATOM      8  H   UNL     1      -7.004  -1.086  -3.709  0.00  0.00    +0.159 HD
ATOM      9  H   UNL     1      -5.655  -1.880  -2.995  0.00  0.00    +0.159 HD
ENDROOT
BRANCH   1  10
ATOM     10  C   UNL     1      -8.419  -1.819  -5.723  0.00  0.00    +0.151 C 
BRANCH  10  11
ATOM     11  C   UNL     1      -9.005  -1.882  -7.106  0.00  0.00    -0.028 A 
ATOM     12  C   UNL     1      -8.230  -1.540  -8.224  0.00  0.00    +0.005 A 
ATOM     13  C   UNL     1     -10.334  -2.288  -7.306  0.00  0.00    +0.005 A 
ATOM     14  C   UNL     1      -8.765  -1.628  -9.512  0.00  0.00    +0.000 A 
ATOM     15  C   UNL     1     -10.864  -2.373  -8.593  0.00  0.00    +0.000 A 
ATOM     16  C   UNL     1     -10.079  -2.045  -9.696  0.00  0.00    +0.000 A 
ENDBRANCH  10  11
ENDBRANCH   1  10
TORSDOF 2
ENDMDL
MODEL 5
REMARK VINA RESULT:    -5.691     22.392     24.046
REMARK INTER + INTRA:          -6.521
REMARK INTER:                  -6.386
REMARK INTRA:                  -0.135
REMARK UNBOUND:                -0.165
REMARK  Name = 1550473
REMARK  2 active torsions:
REMARK  status: ('A' for Active; 'I' for Inactive)
REMARK    1  A    between atoms: N_1  and  C_4
REMARK    2  A    between atoms: C_4  and  C_5
REMARK                            x       y       z     vdW  Elec       q    Type
REMARK                         _______ _______ _______ _____ _____    ______ ____
ROOT
ATOM      1  N   UNL     1      -7.672  -1.626  -4.767  0.00  0.00    -0.354 N 
ATOM      2  N   UNL     1      -5.424  -2.181  -4.823  0.00  0.00    -0.372 N 
ATOM      3  N   UNL     1      -6.894  -3.610  -3.793  0.00  0.00    -0.372 N 
ATOM      4  C   UNL     1      -6.679  -2.471  -4.459  0.00  0.00    +0.166 C 
ATOM      5  H   UNL     1      -7.438  -0.764  -5.247  0.00  0.00    +0.163 HD
ATOM      6  H   UNL     1      -4.655  -2.802  -4.608  0.00  0.00    +0.159 HD
ATOM      7  H   UNL     1      -5.200  -1.341  -5.343  0.00  0.00    +0.159 HD
ATOM      8  H   UNL     1      -7.817  -3.884  -3.484  0.00  0.00    +0.159 HD
ATOM      9  H   UNL     1      -6.136  -4.238  -3.558  0.00  0.00    +0.159 HD
ENDROOT
BRANCH   1  10
ATOM     10  C   UNL     1      -9.080  -1.873  -4.463  0.00  0.00    +0.151 C 
BRANCH  10  11
ATOM     11  C   UNL     1      -9.608  -0.741  -3.626  0.00  0.00    -0.028 A 
ATOM     12  C   UNL     1      -8.827  -0.188  -2.601  0.00  0.00    +0.005 A 
ATOM     13  C   UNL     1     -10.888  -0.213  -3.856  0.00  0.00    +0.005 A 
ATOM     14  C   UNL     1      -9.305   0.883  -1.843  0.00  0.00    +0.000 A 
ATOM     15  C   UNL     1     -11.363   0.856  -3.096  0.00  0.00    +0.000 A 
ATOM     16  C   UNL     1     -10.570   1.405  -2.092  0.00  0.00    +0.000 A 
ENDBRANCH  10  11
ENDBRANCH   1  10
TORSDOF 2
ENDMDL
MODEL 6
REMARK VINA RESULT:    -5.685     30.047     31.131
REMARK INTER + INTRA:          -6.515
REMARK INTER:                  -6.377
REMARK INTRA:                  -0.138
REMARK UNBOUND:                -0.165
REMARK  Name = 1550473
REMARK  2 active torsions:
REMARK  status: ('A' for Active; 'I' for Inactive)
REMARK    1  A    between atoms: N_1  and  C_4
REMARK    2  A    between atoms: C_4  and  C_5
REMARK                            x       y       z     vdW  Elec       q    Type
REMARK                         _______ _______ _______ _____ _____    ______ ____
ROOT
ATOM      1  N   UNL     1     -11.330   0.173 -14.048  0.00  0.00    -0.354 N 
ATOM      2  N   UNL     1     -12.388   1.010 -12.165  0.00  0.00    -0.372 N 
ATOM      3  N   UNL     1     -10.895   2.345 -13.285  0.00  0.00    -0.372 N 
ATOM      4  C   UNL     1     -11.529   1.173 -13.179  0.00  0.00    +0.166 C 
ATOM      5  H   UNL     1     -11.819  -0.702 -13.895  0.00  0.00    +0.163 HD
ATOM      6  H   UNL     1     -12.561   1.748 -11.496  0.00  0.00    +0.159 HD
ATOM      7  H   UNL     1     -12.909   0.151 -12.041  0.00  0.00    +0.159 HD
ATOM      8  H   UNL     1     -10.230   2.530 -14.024  0.00  0.00    +0.159 HD
ATOM      9  H   UNL     1     -11.046   3.092 -12.618  0.00  0.00    +0.159 HD
ENDROOT
BRANCH   1  10
ATOM     10  C   UNL     1     -10.457   0.267 -15.216  0.00  0.00    +0.151 C 
BRANCH  10  11
ATOM     11  C   UNL     1      -9.668  -1.007 -15.344  0.00  0.00    -0.028 A 
ATOM     12  C   UNL     1      -9.377  -1.781 -14.211  0.00  0.00    +0.005 A 
ATOM     13  C   UNL     1      -9.214  -1.450 -16.596  0.00  0.00    +0.005 A 
ATOM     14  C   UNL     1      -8.670  -2.980 -14.333  0.00  0.00    +0.000 A 
ATOM     15  C   UNL     1      -8.508  -2.647 -16.713  0.00  0.00    +0.000 A 
ATOM     16  C   UNL     1      -8.239  -3.413 -15.582  0.00  0.00    +0.000 A 
ENDBRANCH  10  11
ENDBRANCH   1  10
TORSDOF 2
ENDMDL
MODEL 7
REMARK VINA RESULT:    -5.550     27.768     29.143
REMARK INTER + INTRA:          -6.364
REMARK INTER:                  -6.241
REMARK INTRA:                  -0.123
REMARK UNBOUND:                -0.165
REMARK  Name = 1550473
REMARK  2 active torsions:
REMARK  status: ('A' for Active; 'I' for Inactive)
REMARK    1  A    between atoms: N_1  and  C_4
REMARK    2  A    between atoms: C_4  and  C_5
REMARK                            x       y       z     vdW  Elec       q    Type
REMARK                         _______ _______ _______ _____ _____    ______ ____
ROOT
ATOM      1  N   UNL     1     -10.499  -0.809 -12.956  0.00  0.00    -0.354 N 
ATOM      2  N   UNL     1     -11.600   0.444 -14.562  0.00  0.00    -0.372 N 
ATOM      3  N   UNL     1      -9.343   0.741 -14.280  0.00  0.00    -0.372 N 
ATOM      4  C   UNL     1     -10.471   0.119 -13.922  0.00  0.00    +0.166 C 
ATOM      5  H   UNL     1     -11.391  -1.222 -12.711  0.00  0.00    +0.163 HD
ATOM      6  H   UNL     1     -11.609   1.137 -15.298  0.00  0.00    +0.159 HD
ATOM      7  H   UNL     1     -12.483  -0.004 -14.347  0.00  0.00    +0.159 HD
ATOM      8  H   UNL     1      -8.458   0.545 -13.831  0.00  0.00    +0.159 HD
ATOM      9  H   UNL     1      -9.334   1.447 -15.006  0.00  0.00    +0.159 HD
ENDROOT
BRANCH   1  10
ATOM     10  C   UNL     1      -9.315  -1.274 -12.234  0.00  0.00    +0.151 C 
BRANCH  10  11
ATOM     11  C   UNL     1      -9.740  -1.846 -10.910  0.00  0.00    -0.028 A 
ATOM     12  C   UNL     1      -9.048  -2.928 -10.347  0.00  0.00    +0.005 A 
ATOM     13  C   UNL     1     -10.831  -1.307 -10.211  0.00  0.00    +0.005 A 
ATOM     14  C   UNL     1      -9.424  -3.440  -9.103  0.00  0.00    +0.000 A 
ATOM     15  C   UNL     1     -11.204  -1.822  -8.970  0.00  0.00    +0.000 A 
ATOM     16  C   UNL     1     -10.499  -2.887  -8.415  0.00  0.00    +0.000 A 
ENDBRANCH  10  11
ENDBRANCH   1  10
TORSDOF 2
ENDMDL
MODEL 8
REMARK VINA RESULT:    -5.517      1.664      2.303
REMARK INTER + INTRA:          -6.327
REMARK INTER:                  -6.152
REMARK INTRA:                  -0.175
REMARK UNBOUND:                -0.165
REMARK  Name = 1550473
REMARK  2 active torsions:
REMARK  status: ('A' for Active; 'I' for Inactive)
REMARK    1  A    between atoms: N_1  and  C_4
REMARK    2  A    between atoms: C_4  and  C_5
REMARK                            x       y       z     vdW  Elec       q    Type
REMARK                         _______ _______ _______ _____ _____    ______ ____
ROOT
ATOM      1  N   UNL     1      14.196  -7.540   4.157  0.00  0.00    -0.354 N 
ATOM      2  N   UNL     1      14.471  -8.493   2.064  0.00  0.00    -0.372 N 
ATOM      3  N   UNL     1      13.917  -9.844   3.834  0.00  0.00    -0.372 N 
ATOM      4  C   UNL     1      14.192  -8.622   3.367  0.00  0.00    +0.166 C 
ATOM      5  H   UNL     1      14.443  -6.646   3.748  0.00  0.00    +0.163 HD
ATOM      6  H   UNL     1      14.473  -9.291   1.443  0.00  0.00    +0.159 HD
ATOM      7  H   UNL     1      14.672  -7.592   1.649  0.00  0.00    +0.159 HD
ATOM      8  H   UNL     1      13.704 -10.010   4.809  0.00  0.00    +0.159 HD
ATOM      9  H   UNL     1      13.925 -10.657   3.230  0.00  0.00    +0.159 HD
ENDROOT
BRANCH   1  10
ATOM     10  C   UNL     1      13.854  -7.564   5.578  0.00  0.00    +0.151 C 
BRANCH  10  11
ATOM     11  C   UNL     1      12.447  -7.062   5.753  0.00  0.00    -0.028 A 
ATOM     12  C   UNL     1      12.198  -5.697   5.958  0.00  0.00    +0.005 A 
ATOM     13  C   UNL     1      11.358  -7.946   5.709  0.00  0.00    +0.005 A 
ATOM     14  C   UNL     1      10.890  -5.226   6.090  0.00  0.00    +0.000 A 
ATOM     15  C   UNL     1      10.053  -7.472   5.843  0.00  0.00    +0.000 A 
ATOM     16  C   UNL     1       9.819  -6.112   6.031  0.00  0.00    +0.000 A 
ENDBRANCH  10  11
ENDBRANCH   1  10
TORSDOF 2
ENDMDL
MODEL 9
REMARK VINA RESULT:    -5.436     23.353     24.981
REMARK INTER + INTRA:          -6.236
REMARK INTER:                  -6.130
REMARK INTRA:                  -0.106
REMARK UNBOUND:                -0.165
REMARK  Name = 1550473
REMARK  2 active torsions:
REMARK  status: ('A' for Active; 'I' for Inactive)
REMARK    1  A    between atoms: N_1  and  C_4
REMARK    2  A    between atoms: C_4  and  C_5
REMARK                            x       y       z     vdW  Elec       q    Type
REMARK                         _______ _______ _______ _____ _____    ______ ____
ROOT
ATOM      1  N   UNL     1      -8.128  -2.515  -5.211  0.00  0.00    -0.354 N 
ATOM      2  N   UNL     1      -7.055  -1.367  -3.510  0.00  0.00    -0.372 N 
ATOM      3  N   UNL     1      -5.993  -3.152  -4.484  0.00  0.00    -0.372 N 
ATOM      4  C   UNL     1      -7.064  -2.354  -4.413  0.00  0.00    +0.166 C 
ATOM      5  H   UNL     1      -8.920  -1.895  -5.088  0.00  0.00    +0.163 HD
ATOM      6  H   UNL     1      -6.265  -1.219  -2.896  0.00  0.00    +0.159 HD
ATOM      7  H   UNL     1      -7.830  -0.720  -3.419  0.00  0.00    +0.159 HD
ATOM      8  H   UNL     1      -5.940  -3.919  -5.140  0.00  0.00    +0.159 HD
ATOM      9  H   UNL     1      -5.197  -3.027  -3.870  0.00  0.00    +0.159 HD
ENDROOT
BRANCH   1  10
ATOM     10  C   UNL     1      -8.215  -3.525  -6.264  0.00  0.00    +0.151 C 
BRANCH  10  11
ATOM     11  C   UNL     1      -8.929  -2.938  -7.451  0.00  0.00    -0.028 A 
ATOM     12  C   UNL     1     -10.330  -2.950  -7.516  0.00  0.00    +0.005 A 
ATOM     13  C   UNL     1      -8.210  -2.364  -8.510  0.00  0.00    +0.005 A 
ATOM     14  C   UNL     1     -10.994  -2.378  -8.603  0.00  0.00    +0.000 A 
ATOM     15  C   UNL     1      -8.877  -1.794  -9.595  0.00  0.00    +0.000 A 
ATOM     16  C   UNL     1     -10.269  -1.799  -9.640  0.00  0.00    +0.000 A 
ENDBRANCH  10  11
ENDBRANCH   1  10
TORSDOF 2
ENDMDL
