MODEL 1
REMARK VINA RESULT:    -5.954      0.000      0.000
REMARK INTER + INTRA:          -6.757
REMARK INTER:                  -6.650
REMARK INTRA:                  -0.107
REMARK UNBOUND:                -0.107
REMARK  Name = 1550473
REMARK  2 active torsions:
REMARK  status: ('A' for Active; 'I' for Inactive)
REMARK    1  A    between atoms: N_1  and  C_4
REMARK    2  A    between atoms: C_4  and  C_5
REMARK                            x       y       z     vdW  Elec       q    Type
REMARK                         _______ _______ _______ _____ _____    ______ ____
ROOT
ATOM      1  N   UNL     1       8.550   4.079  -2.683  0.00  0.00    -0.354 N 
ATOM      2  N   UNL     1       8.285   2.183  -1.380  0.00  0.00    -0.372 N 
ATOM      3  N   UNL     1      10.020   2.265  -2.879  0.00  0.00    -0.372 N 
ATOM      4  C   UNL     1       8.955   2.854  -2.324  0.00  0.00    +0.166 C 
ATOM      5  H   UNL     1       7.717   4.458  -2.246  0.00  0.00    +0.163 HD
ATOM      6  H   UNL     1       8.569   1.258  -1.086  0.00  0.00    +0.159 HD
ATOM      7  H   UNL     1       7.480   2.582  -0.912  0.00  0.00    +0.159 HD
ATOM      8  H   UNL     1      10.566   2.716  -3.602  0.00  0.00    +0.159 HD
ATOM      9  H   UNL     1      10.314   1.335  -2.607  0.00  0.00    +0.159 HD
ENDROOT
BRANCH   1  10
ATOM     10  C   UNL     1       9.241   4.916  -3.662  0.00  0.00    +0.151 C 
BRANCH  10  11
ATOM     11  C   UNL     1      10.378   5.629  -2.983  0.00  0.00    -0.028 A 
ATOM     12  C   UNL     1      10.175   6.298  -1.768  0.00  0.00    +0.005 A 
ATOM     13  C   UNL     1      11.663   5.633  -3.548  0.00  0.00    +0.005 A 
ATOM     14  C   UNL     1      11.237   6.935  -1.122  0.00  0.00    +0.000 A 
ATOM     15  C   UNL     1      12.721   6.271  -2.900  0.00  0.00    +0.000 A 
ATOM     16  C   UNL     1      12.508   6.920  -1.686  0.00  0.00    +0.000 A 
ENDBRANCH  10  11
ENDBRANCH   1  10
TORSDOF 2
ENDMDL
MODEL 2
REMARK VINA RESULT:    -5.792      1.797      2.353
REMARK INTER + INTRA:          -6.576
REMARK INTER:                  -6.449
REMARK INTRA:                  -0.127
REMARK UNBOUND:                -0.107
REMARK  Name = 1550473
REMARK  2 active torsions:
REMARK  status: ('A' for Active; 'I' for Inactive)
REMARK    1  A    between atoms: N_1  and  C_4
REMARK    2  A    between atoms: C_4  and  C_5
REMARK                            x       y       z     vdW  Elec       q    Type
REMARK                         _______ _______ _______ _____ _____    ______ ____
ROOT
ATOM      1  N   UNL     1       8.385   3.983  -4.253  0.00  0.00    -0.354 N 
ATOM      2  N   UNL     1       6.514   2.621  -4.158  0.00  0.00    -0.372 N 
ATOM      3  N   UNL     1       8.038   2.297  -5.843  0.00  0.00    -0.372 N 
ATOM      4  C   UNL     1       7.659   2.975  -4.754  0.00  0.00    +0.166 C 
ATOM      5  H   UNL     1       8.029   4.477  -3.443  0.00  0.00    +0.163 HD
ATOM      6  H   UNL     1       5.947   1.862  -4.511  0.00  0.00    +0.159 HD
ATOM      7  H   UNL     1       6.183   3.086  -3.322  0.00  0.00    +0.159 HD
ATOM      8  H   UNL     1       8.888   2.518  -6.343  0.00  0.00    +0.159 HD
ATOM      9  H   UNL     1       7.477   1.542  -6.219  0.00  0.00    +0.159 HD
ENDROOT
BRANCH   1  10
ATOM     10  C   UNL     1       9.673   4.412  -4.795  0.00  0.00    +0.151 C 
BRANCH  10  11
ATOM     11  C   UNL     1      10.429   5.160  -3.732  0.00  0.00    -0.028 A 
ATOM     12  C   UNL     1      11.689   5.711  -4.009  0.00  0.00    +0.005 A 
ATOM     13  C   UNL     1       9.889   5.326  -2.448  0.00  0.00    +0.005 A 
ATOM     14  C   UNL     1      12.379   6.432  -3.031  0.00  0.00    +0.000 A 
ATOM     15  C   UNL     1      10.581   6.046  -1.474  0.00  0.00    +0.000 A 
ATOM     16  C   UNL     1      11.824   6.601  -1.767  0.00  0.00    +0.000 A 
ENDBRANCH  10  11
ENDBRANCH   1  10
TORSDOF 2
ENDMDL
MODEL 3
REMARK VINA RESULT:    -5.502      2.645      4.761
REMARK INTER + INTRA:          -6.253
REMARK INTER:                  -6.103
REMARK INTRA:                  -0.150
REMARK UNBOUND:                -0.107
REMARK  Name = 1550473
REMARK  2 active torsions:
REMARK  status: ('A' for Active; 'I' for Inactive)
REMARK    1  A    between atoms: N_1  and  C_4
REMARK    2  A    between atoms: C_4  and  C_5
REMARK                            x       y       z     vdW  Elec       q    Type
REMARK                         _______ _______ _______ _____ _____    ______ ____
ROOT
ATOM      1  N   UNL     1      11.506   4.618  -2.361  0.00  0.00    -0.354 N 
ATOM      2  N   UNL     1      13.249   6.142  -2.304  0.00  0.00    -0.372 N 
ATOM      3  N   UNL     1      11.274   6.676  -1.265  0.00  0.00    -0.372 N 
ATOM      4  C   UNL     1      11.996   5.804  -1.976  0.00  0.00    +0.166 C 
ATOM      5  H   UNL     1      12.093   4.014  -2.924  0.00  0.00    +0.163 HD
ATOM      6  H   UNL     1      13.647   7.028  -2.024  0.00  0.00    +0.159 HD
ATOM      7  H   UNL     1      13.850   5.517  -2.827  0.00  0.00    +0.159 HD
ATOM      8  H   UNL     1      10.320   6.484  -0.991  0.00  0.00    +0.159 HD
ATOM      9  H   UNL     1      11.651   7.573  -0.986  0.00  0.00    +0.159 HD
ENDROOT
BRANCH   1  10
ATOM     10  C   UNL     1      10.173   4.131  -2.010  0.00  0.00    +0.151 C 
BRANCH  10  11
ATOM     11  C   UNL     1       9.437   3.764  -3.269  0.00  0.00    -0.028 A 
ATOM     12  C   UNL     1       8.959   2.459  -3.459  0.00  0.00    +0.005 A 
ATOM     13  C   UNL     1       9.209   4.718  -4.273  0.00  0.00    +0.005 A 
ATOM     14  C   UNL     1       8.249   2.125  -4.615  0.00  0.00    +0.000 A 
ATOM     15  C   UNL     1       8.500   4.380  -5.426  0.00  0.00    +0.000 A 
ATOM     16  C   UNL     1       8.018   3.084  -5.595  0.00  0.00    +0.000 A 
ENDBRANCH  10  11
ENDBRANCH   1  10
TORSDOF 2
ENDMDL
MODEL 4
REMARK VINA RESULT:    -5.420      2.561      3.411
REMARK INTER + INTRA:          -6.161
REMARK INTER:                  -5.981
REMARK INTRA:                  -0.180
REMARK UNBOUND:                -0.107
REMARK  Name = 1550473
REMARK  2 active torsions:
REMARK  status: ('A' for Active; 'I' for Inactive)
REMARK    1  A    between atoms: N_1  and  C_4
REMARK    2  A    between atoms: C_4  and  C_5
REMARK                            x       y       z     vdW  Elec       q    Type
REMARK                         _______ _______ _______ _____ _____    ______ ____
ROOT
ATOM      1  N   UNL     1       8.422   2.751  -5.245  0.00  0.00    -0.354 N 
ATOM      2  N   UNL     1       8.946   2.429  -7.478  0.00  0.00    -0.372 N 
ATOM      3  N   UNL     1       7.757   4.297  -6.876  0.00  0.00    -0.372 N 
ATOM      4  C   UNL     1       8.370   3.163  -6.519  0.00  0.00    +0.166 C 
ATOM      5  H   UNL     1       8.875   1.867  -5.044  0.00  0.00    +0.163 HD
ATOM      6  H   UNL     1       8.926   2.717  -8.448  0.00  0.00    +0.159 HD
ATOM      7  H   UNL     1       9.438   1.569  -7.268  0.00  0.00    +0.159 HD
ATOM      8  H   UNL     1       7.298   4.893  -6.201  0.00  0.00    +0.159 HD
ATOM      9  H   UNL     1       7.717   4.596  -7.843  0.00  0.00    +0.159 HD
ENDROOT
BRANCH   1  10
ATOM     10  C   UNL     1       7.873   3.503  -4.119  0.00  0.00    +0.151 C 
BRANCH  10  11
ATOM     11  C   UNL     1       8.981   4.276  -3.458  0.00  0.00    -0.028 A 
ATOM     12  C   UNL     1       9.151   5.643  -3.721  0.00  0.00    +0.005 A 
ATOM     13  C   UNL     1       9.861   3.648  -2.563  0.00  0.00    +0.005 A 
ATOM     14  C   UNL     1      10.161   6.368  -3.084  0.00  0.00    +0.000 A 
ATOM     15  C   UNL     1      10.869   4.375  -1.930  0.00  0.00    +0.000 A 
ATOM     16  C   UNL     1      11.017   5.735  -2.189  0.00  0.00    +0.000 A 
ENDBRANCH  10  11
ENDBRANCH   1  10
TORSDOF 2
ENDMDL
MODEL 5
REMARK VINA RESULT:    -5.363      3.178      5.404
REMARK INTER + INTRA:          -6.097
REMARK INTER:                  -5.972
REMARK INTRA:                  -0.125
REMARK UNBOUND:                -0.107
REMARK  Name = 1550473
REMARK  2 active torsions:
REMARK  status: ('A' for Active; 'I' for Inactive)
REMARK    1  A    between atoms: N_1  and  C_4
REMARK    2  A    between atoms: C_4  and  C_5
REMARK                            x       y       z     vdW  Elec       q    Type
REMARK                         _______ _______ _______ _____ _____    ______ ____
ROOT
ATOM      1  N   UNL     1       9.996   4.541  -3.907  0.00  0.00    -0.354 N 
ATOM      2  N   UNL     1      11.908   5.633  -3.187  0.00  0.00    -0.372 N 
ATOM      3  N   UNL     1      11.234   3.736  -2.087  0.00  0.00    -0.372 N 
ATOM      4  C   UNL     1      11.033   4.628  -3.063  0.00  0.00    +0.166 C 
ATOM      5  H   UNL     1       9.883   5.266  -4.606  0.00  0.00    +0.163 HD
ATOM      6  H   UNL     1      12.702   5.723  -2.568  0.00  0.00    +0.159 HD
ATOM      7  H   UNL     1      11.818   6.331  -3.916  0.00  0.00    +0.159 HD
ATOM      8  H   UNL     1      10.607   2.957  -1.937  0.00  0.00    +0.159 HD
ATOM      9  H   UNL     1      12.016   3.815  -1.450  0.00  0.00    +0.159 HD
ENDROOT
BRANCH   1  10
ATOM     10  C   UNL     1       9.017   3.456  -3.891  0.00  0.00    +0.151 C 
BRANCH  10  11
ATOM     11  C   UNL     1       8.205   3.509  -5.155  0.00  0.00    -0.028 A 
ATOM     12  C   UNL     1       8.531   4.416  -6.174  0.00  0.00    +0.005 A 
ATOM     13  C   UNL     1       7.111   2.650  -5.343  0.00  0.00    +0.005 A 
ATOM     14  C   UNL     1       7.795   4.444  -7.361  0.00  0.00    +0.000 A 
ATOM     15  C   UNL     1       6.378   2.682  -6.529  0.00  0.00    +0.000 A 
ATOM     16  C   UNL     1       6.722   3.578  -7.539  0.00  0.00    +0.000 A 
ENDBRANCH  10  11
ENDBRANCH   1  10
TORSDOF 2
ENDMDL
MODEL 6
REMARK VINA RESULT:    -5.264     17.187     18.066
REMARK INTER + INTRA:          -5.986
REMARK INTER:                  -5.876
REMARK INTRA:                  -0.110
REMARK UNBOUND:                -0.107
REMARK  Name = 1550473
REMARK  2 active torsions:
REMARK  status: ('A' for Active; 'I' for Inactive)
REMARK    1  A    between atoms: N_1  and  C_4
REMARK    2  A    between atoms: C_4  and  C_5
REMARK                            x       y       z     vdW  Elec       q    Type
REMARK                         _______ _______ _______ _____ _____    ______ ____
ROOT
ATOM      1  N   UNL     1      -2.886  11.719   8.315  0.00  0.00    -0.354 N 
ATOM      2  N   UNL     1      -4.639  10.905   7.038  0.00  0.00    -0.372 N 
ATOM      3  N   UNL     1      -4.839  10.904   9.323  0.00  0.00    -0.372 N 
ATOM      4  C   UNL     1      -4.111  11.181   8.236  0.00  0.00    +0.166 C 
ATOM      5  H   UNL     1      -2.373  11.876   7.456  0.00  0.00    +0.163 HD
ATOM      6  H   UNL     1      -5.562  10.503   6.947  0.00  0.00    +0.159 HD
ATOM      7  H   UNL     1      -4.142  11.107   6.178  0.00  0.00    +0.159 HD
ATOM      8  H   UNL     1      -4.496  11.083  10.258  0.00  0.00    +0.159 HD
ATOM      9  H   UNL     1      -5.760  10.490   9.253  0.00  0.00    +0.159 HD
ENDROOT
BRANCH   1  10
ATOM     10  C   UNL     1      -2.243  12.106   9.570  0.00  0.00    +0.151 C 
BRANCH  10  11
ATOM     11  C   UNL     1      -0.885  12.679   9.268  0.00  0.00    -0.028 A 
ATOM     12  C   UNL     1      -0.710  13.571   8.200  0.00  0.00    +0.005 A 
ATOM     13  C   UNL     1       0.228  12.339  10.051  0.00  0.00    +0.005 A 
ATOM     14  C   UNL     1       0.544  14.127   7.939  0.00  0.00    +0.000 A 
ATOM     15  C   UNL     1       1.479  12.896   9.786  0.00  0.00    +0.000 A 
ATOM     16  C   UNL     1       1.636  13.792   8.732  0.00  0.00    +0.000 A 
ENDBRANCH  10  11
ENDBRANCH   1  10
TORSDOF 2
ENDMDL
MODEL 7
REMARK VINA RESULT:    -5.224      4.255      5.576
REMARK INTER + INTRA:          -5.942
REMARK INTER:                  -5.822
REMARK INTRA:                  -0.119
REMARK UNBOUND:                -0.107
REMARK  Name = 1550473
REMARK  2 active torsions:
REMARK  status: ('A' for Active; 'I' for Inactive)
REMARK    1  A    between atoms: N_1  and  C_4
REMARK    2  A    between atoms: C_4  and  C_5
REMARK                            x       y       z     vdW  Elec       q    Type
REMARK                         _______ _______ _______ _____ _____    ______ ____
ROOT
ATOM      1  N   UNL     1       8.739   1.882  -7.634  0.00  0.00    -0.354 N 
ATOM      2  N   UNL     1       9.101   0.032  -8.979  0.00  0.00    -0.372 N 
ATOM      3  N   UNL     1       7.420   1.493  -9.531  0.00  0.00    -0.372 N 
ATOM      4  C   UNL     1       8.415   1.149  -8.707  0.00  0.00    +0.166 C 
ATOM      5  H   UNL     1       9.485   1.552  -7.032  0.00  0.00    +0.163 HD
ATOM      6  H   UNL     1       8.882  -0.540  -9.784  0.00  0.00    +0.159 HD
ATOM      7  H   UNL     1       9.876  -0.271  -8.402  0.00  0.00    +0.159 HD
ATOM      8  H   UNL     1       6.860   2.321  -9.378  0.00  0.00    +0.159 HD
ATOM      9  H   UNL     1       7.177   0.927 -10.334  0.00  0.00    +0.159 HD
ENDROOT
BRANCH   1  10
ATOM     10  C   UNL     1       8.091   3.143  -7.279  0.00  0.00    +0.151 C 
BRANCH  10  11
ATOM     11  C   UNL     1       8.289   3.402  -5.811  0.00  0.00    -0.028 A 
ATOM     12  C   UNL     1       8.130   2.367  -4.878  0.00  0.00    +0.005 A 
ATOM     13  C   UNL     1       8.642   4.678  -5.347  0.00  0.00    +0.005 A 
ATOM     14  C   UNL     1       8.343   2.599  -3.517  0.00  0.00    +0.000 A 
ATOM     15  C   UNL     1       8.853   4.907  -3.987  0.00  0.00    +0.000 A 
ATOM     16  C   UNL     1       8.706   3.866  -3.073  0.00  0.00    +0.000 A 
ENDBRANCH  10  11
ENDBRANCH   1  10
TORSDOF 2
ENDMDL
MODEL 8
REMARK VINA RESULT:    -5.123      3.820      5.917
REMARK INTER + INTRA:          -5.829
REMARK INTER:                  -5.689
REMARK INTRA:                  -0.140
REMARK UNBOUND:                -0.107
REMARK  Name = 1550473
REMARK  2 active torsions:
REMARK  status: ('A' for Active; 'I' for Inactive)
REMARK    1  A    between atoms: N_1  and  C_4
REMARK    2  A    between atoms: C_4  and  C_5
REMARK                            x       y       z     vdW  Elec       q    Type
REMARK                         _______ _______ _______ _____ _____    ______ ____
ROOT
ATOM      1  N   UNL     1       8.935   3.140  -4.065  0.00  0.00    -0.354 N 
ATOM      2  N   UNL     1       8.657   2.063  -2.033  0.00  0.00    -0.372 N 
ATOM      3  N   UNL     1       7.037   3.525  -2.745  0.00  0.00    -0.372 N 
ATOM      4  C   UNL     1       8.209   2.918  -2.961  0.00  0.00    +0.166 C 
ATOM      5  H   UNL     1       9.829   2.671  -4.156  0.00  0.00    +0.163 HD
ATOM      6  H   UNL     1       8.130   1.873  -1.192  0.00  0.00    +0.159 HD
ATOM      7  H   UNL     1       9.530   1.562  -2.148  0.00  0.00    +0.159 HD
ATOM      8  H   UNL     1       6.647   4.185  -3.403  0.00  0.00    +0.159 HD
ATOM      9  H   UNL     1       6.501   3.356  -1.903  0.00  0.00    +0.159 HD
ENDROOT
BRANCH   1  10
ATOM     10  C   UNL     1       8.511   4.010  -5.161  0.00  0.00    +0.151 C 
BRANCH  10  11
ATOM     11  C   UNL     1       7.970   3.164  -6.279  0.00  0.00    -0.028 A 
ATOM     12  C   UNL     1       7.072   3.705  -7.211  0.00  0.00    +0.005 A 
ATOM     13  C   UNL     1       8.355   1.821  -6.417  0.00  0.00    +0.005 A 
ATOM     14  C   UNL     1       6.592   2.928  -8.268  0.00  0.00    +0.000 A 
ATOM     15  C   UNL     1       7.873   1.048  -7.473  0.00  0.00    +0.000 A 
ATOM     16  C   UNL     1       6.993   1.603  -8.400  0.00  0.00    +0.000 A 
ENDBRANCH  10  11
ENDBRANCH   1  10
TORSDOF 2
ENDMDL
MODEL 9
REMARK VINA RESULT:    -4.965      4.590      5.758
REMARK INTER + INTRA:          -5.652
REMARK INTER:                  -5.524
REMARK INTRA:                  -0.128
REMARK UNBOUND:                -0.107
REMARK  Name = 1550473
REMARK  2 active torsions:
REMARK  status: ('A' for Active; 'I' for Inactive)
REMARK    1  A    between atoms: N_1  and  C_4
REMARK    2  A    between atoms: C_4  and  C_5
REMARK                            x       y       z     vdW  Elec       q    Type
REMARK                         _______ _______ _______ _____ _____    ______ ____
ROOT
ATOM      1  N   UNL     1       6.409   1.774  -7.145  0.00  0.00    -0.354 N 
ATOM      2  N   UNL     1       5.797  -0.044  -8.443  0.00  0.00    -0.372 N 
ATOM      3  N   UNL     1       6.247   1.956  -9.476  0.00  0.00    -0.372 N 
ATOM      4  C   UNL     1       6.155   1.243  -8.348  0.00  0.00    +0.166 C 
ATOM      5  H   UNL     1       6.293   1.189  -6.326  0.00  0.00    +0.163 HD
ATOM      6  H   UNL     1       5.603  -0.473  -9.338  0.00  0.00    +0.159 HD
ATOM      7  H   UNL     1       5.726  -0.639  -7.627  0.00  0.00    +0.159 HD
ATOM      8  H   UNL     1       6.506   2.933  -9.472  0.00  0.00    +0.159 HD
ATOM      9  H   UNL     1       6.045   1.547 -10.379  0.00  0.00    +0.159 HD
ENDROOT
BRANCH   1  10
ATOM     10  C   UNL     1       6.858   3.150  -6.937  0.00  0.00    +0.151 C 
BRANCH  10  11
ATOM     11  C   UNL     1       7.791   3.189  -5.758  0.00  0.00    -0.028 A 
ATOM     12  C   UNL     1       8.618   4.301  -5.541  0.00  0.00    +0.005 A 
ATOM     13  C   UNL     1       7.847   2.121  -4.850  0.00  0.00    +0.005 A 
ATOM     14  C   UNL     1       9.463   4.351  -4.430  0.00  0.00    +0.000 A 
ATOM     15  C   UNL     1       8.692   2.174  -3.741  0.00  0.00    +0.000 A 
ATOM     16  C   UNL     1       9.498   3.290  -3.530  0.00  0.00    +0.000 A 
ENDBRANCH  10  11
ENDBRANCH   1  10
TORSDOF 2
ENDMDL
