MODEL 1
REMARK VINA RESULT:    -5.139      0.000      0.000
REMARK INTER + INTRA:          -5.874
REMARK INTER:                  -5.740
REMARK INTRA:                  -0.134
REMARK UNBOUND:                -0.134
REMARK  Name = 1550473
REMARK  2 active torsions:
REMARK  status: ('A' for Active; 'I' for Inactive)
REMARK    1  A    between atoms: N_1  and  C_4
REMARK    2  A    between atoms: C_4  and  C_5
REMARK                            x       y       z     vdW  Elec       q    Type
REMARK                         _______ _______ _______ _____ _____    ______ ____
ROOT
ATOM      1  N   UNL     1     -12.142 -13.821 -30.346  0.00  0.00    -0.354 N 
ATOM      2  N   UNL     1     -11.773 -14.736 -28.251  0.00  0.00    -0.372 N 
ATOM      3  N   UNL     1      -9.978 -14.363 -29.631  0.00  0.00    -0.372 N 
ATOM      4  C   UNL     1     -11.297 -14.301 -29.424  0.00  0.00    +0.166 C 
ATOM      5  H   UNL     1     -13.135 -13.829 -30.141  0.00  0.00    +0.163 HD
ATOM      6  H   UNL     1     -11.159 -15.100 -27.535  0.00  0.00    +0.159 HD
ATOM      7  H   UNL     1     -12.760 -14.701 -28.030  0.00  0.00    +0.159 HD
ATOM      8  H   UNL     1      -9.556 -14.055 -30.497  0.00  0.00    +0.159 HD
ATOM      9  H   UNL     1      -9.348 -14.735 -28.930  0.00  0.00    +0.159 HD
ENDROOT
BRANCH   1  10
ATOM     10  C   UNL     1     -11.722 -13.272 -31.634  0.00  0.00    +0.151 C 
BRANCH  10  11
ATOM     11  C   UNL     1     -12.549 -12.055 -31.943  0.00  0.00    -0.028 A 
ATOM     12  C   UNL     1     -13.708 -11.776 -31.206  0.00  0.00    +0.005 A 
ATOM     13  C   UNL     1     -12.174 -11.173 -32.969  0.00  0.00    +0.005 A 
ATOM     14  C   UNL     1     -14.460 -10.629 -31.473  0.00  0.00    +0.000 A 
ATOM     15  C   UNL     1     -12.928 -10.030 -33.233  0.00  0.00    +0.000 A 
ATOM     16  C   UNL     1     -14.070  -9.757 -32.483  0.00  0.00    +0.000 A 
ENDBRANCH  10  11
ENDBRANCH   1  10
TORSDOF 2
ENDMDL
MODEL 2
REMARK VINA RESULT:    -5.066     11.421     12.192
REMARK INTER + INTRA:          -5.793
REMARK INTER:                  -5.657
REMARK INTRA:                  -0.136
REMARK UNBOUND:                -0.134
REMARK  Name = 1550473
REMARK  2 active torsions:
REMARK  status: ('A' for Active; 'I' for Inactive)
REMARK    1  A    between atoms: N_1  and  C_4
REMARK    2  A    between atoms: C_4  and  C_5
REMARK                            x       y       z     vdW  Elec       q    Type
REMARK                         _______ _______ _______ _____ _____    ______ ____
ROOT
ATOM      1  N   UNL     1     -11.126  -2.698 -24.805  0.00  0.00    -0.354 N 
ATOM      2  N   UNL     1      -9.162  -1.546 -24.380  0.00  0.00    -0.372 N 
ATOM      3  N   UNL     1     -11.167  -0.481 -24.046  0.00  0.00    -0.372 N 
ATOM      4  C   UNL     1     -10.500  -1.581 -24.413  0.00  0.00    +0.166 C 
ATOM      5  H   UNL     1     -10.562  -3.488 -25.099  0.00  0.00    +0.163 HD
ATOM      6  H   UNL     1      -8.662  -0.718 -24.086  0.00  0.00    +0.159 HD
ATOM      7  H   UNL     1      -8.602  -2.352 -24.631  0.00  0.00    +0.159 HD
ATOM      8  H   UNL     1     -12.178  -0.441 -24.054  0.00  0.00    +0.159 HD
ATOM      9  H   UNL     1     -10.684   0.361 -23.759  0.00  0.00    +0.159 HD
ENDROOT
BRANCH   1  10
ATOM     10  C   UNL     1     -12.579  -2.858 -24.824  0.00  0.00    +0.151 C 
BRANCH  10  11
ATOM     11  C   UNL     1     -12.957  -4.028 -23.959  0.00  0.00    -0.028 A 
ATOM     12  C   UNL     1     -14.054  -3.945 -23.089  0.00  0.00    +0.005 A 
ATOM     13  C   UNL     1     -12.224  -5.224 -24.007  0.00  0.00    +0.005 A 
ATOM     14  C   UNL     1     -14.424  -5.042 -22.307  0.00  0.00    +0.000 A 
ATOM     15  C   UNL     1     -12.596  -6.316 -23.224  0.00  0.00    +0.000 A 
ATOM     16  C   UNL     1     -13.697  -6.226 -22.376  0.00  0.00    +0.000 A 
ENDBRANCH  10  11
ENDBRANCH   1  10
TORSDOF 2
ENDMDL
MODEL 3
REMARK VINA RESULT:    -4.959      1.956      2.961
REMARK INTER + INTRA:          -5.673
REMARK INTER:                  -5.526
REMARK INTRA:                  -0.147
REMARK UNBOUND:                -0.134
REMARK  Name = 1550473
REMARK  2 active torsions:
REMARK  status: ('A' for Active; 'I' for Inactive)
REMARK    1  A    between atoms: N_1  and  C_4
REMARK    2  A    between atoms: C_4  and  C_5
REMARK                            x       y       z     vdW  Elec       q    Type
REMARK                         _______ _______ _______ _____ _____    ______ ____
ROOT
ATOM      1  N   UNL     1     -11.231 -14.209 -32.521  0.00  0.00    -0.354 N 
ATOM      2  N   UNL     1     -11.046 -15.902 -34.091  0.00  0.00    -0.372 N 
ATOM      3  N   UNL     1     -12.502 -16.169 -32.338  0.00  0.00    -0.372 N 
ATOM      4  C   UNL     1     -11.596 -15.417 -32.971  0.00  0.00    +0.166 C 
ATOM      5  H   UNL     1     -10.517 -13.701 -33.031  0.00  0.00    +0.163 HD
ATOM      6  H   UNL     1     -11.304 -16.808 -34.457  0.00  0.00    +0.159 HD
ATOM      7  H   UNL     1     -10.366 -15.372 -34.624  0.00  0.00    +0.159 HD
ATOM      8  H   UNL     1     -12.949 -15.863 -31.484  0.00  0.00    +0.159 HD
ATOM      9  H   UNL     1     -12.764 -17.084 -32.682  0.00  0.00    +0.159 HD
ENDROOT
BRANCH   1  10
ATOM     10  C   UNL     1     -11.808 -13.567 -31.342  0.00  0.00    +0.151 C 
BRANCH  10  11
ATOM     11  C   UNL     1     -12.511 -12.306 -31.763  0.00  0.00    -0.028 A 
ATOM     12  C   UNL     1     -12.004 -11.525 -32.812  0.00  0.00    +0.005 A 
ATOM     13  C   UNL     1     -13.687 -11.890 -31.121  0.00  0.00    +0.005 A 
ATOM     14  C   UNL     1     -12.673 -10.370 -33.224  0.00  0.00    +0.000 A 
ATOM     15  C   UNL     1     -14.352 -10.735 -31.535  0.00  0.00    +0.000 A 
ATOM     16  C   UNL     1     -13.846  -9.977 -32.588  0.00  0.00    +0.000 A 
ENDBRANCH  10  11
ENDBRANCH   1  10
TORSDOF 2
ENDMDL
MODEL 4
REMARK VINA RESULT:    -4.787     10.252     11.138
REMARK INTER + INTRA:          -5.480
REMARK INTER:                  -5.333
REMARK INTRA:                  -0.147
REMARK UNBOUND:                -0.134
REMARK  Name = 1550473
REMARK  2 active torsions:
REMARK  status: ('A' for Active; 'I' for Inactive)
REMARK    1  A    between atoms: N_1  and  C_4
REMARK    2  A    between atoms: C_4  and  C_5
REMARK                            x       y       z     vdW  Elec       q    Type
REMARK                         _______ _______ _______ _____ _____    ______ ____
ROOT
ATOM      1  N   UNL     1     -12.019  -4.502 -24.789  0.00  0.00    -0.354 N 
ATOM      2  N   UNL     1     -11.807  -3.500 -26.866  0.00  0.00    -0.372 N 
ATOM      3  N   UNL     1     -12.008  -5.783 -26.752  0.00  0.00    -0.372 N 
ATOM      4  C   UNL     1     -11.946  -4.604 -26.123  0.00  0.00    +0.166 C 
ATOM      5  H   UNL     1     -11.935  -3.583 -24.372  0.00  0.00    +0.163 HD
ATOM      6  H   UNL     1     -11.753  -3.545 -27.875  0.00  0.00    +0.159 HD
ATOM      7  H   UNL     1     -11.770  -2.578 -26.449  0.00  0.00    +0.159 HD
ATOM      8  H   UNL     1     -12.107  -6.654 -26.248  0.00  0.00    +0.159 HD
ATOM      9  H   UNL     1     -11.944  -5.849 -27.760  0.00  0.00    +0.159 HD
ENDROOT
BRANCH   1  10
ATOM     10  C   UNL     1     -12.224  -5.638 -23.893  0.00  0.00    +0.151 C 
BRANCH  10  11
ATOM     11  C   UNL     1     -13.485  -5.419 -23.102  0.00  0.00    -0.028 A 
ATOM     12  C   UNL     1     -14.000  -4.126 -22.928  0.00  0.00    +0.005 A 
ATOM     13  C   UNL     1     -14.172  -6.500 -22.529  0.00  0.00    +0.005 A 
ATOM     14  C   UNL     1     -15.186  -3.924 -22.219  0.00  0.00    +0.000 A 
ATOM     15  C   UNL     1     -15.356  -6.294 -21.821  0.00  0.00    +0.000 A 
ATOM     16  C   UNL     1     -15.864  -5.007 -21.669  0.00  0.00    +0.000 A 
ENDBRANCH  10  11
ENDBRANCH   1  10
TORSDOF 2
ENDMDL
MODEL 5
REMARK VINA RESULT:    -4.715      1.573      2.348
REMARK INTER + INTRA:          -5.401
REMARK INTER:                  -5.328
REMARK INTRA:                  -0.073
REMARK UNBOUND:                -0.134
REMARK  Name = 1550473
REMARK  2 active torsions:
REMARK  status: ('A' for Active; 'I' for Inactive)
REMARK    1  A    between atoms: N_1  and  C_4
REMARK    2  A    between atoms: C_4  and  C_5
REMARK                            x       y       z     vdW  Elec       q    Type
REMARK                         _______ _______ _______ _____ _____    ______ ____
ROOT
ATOM      1  N   UNL     1     -11.878 -12.593 -31.856  0.00  0.00    -0.354 N 
ATOM      2  N   UNL     1     -11.828 -14.759 -31.038  0.00  0.00    -0.372 N 
ATOM      3  N   UNL     1     -12.745 -14.375 -33.107  0.00  0.00    -0.372 N 
ATOM      4  C   UNL     1     -12.152 -13.895 -32.008  0.00  0.00    +0.166 C 
ATOM      5  H   UNL     1     -11.454 -12.288 -30.987  0.00  0.00    +0.163 HD
ATOM      6  H   UNL     1     -12.020 -15.748 -31.126  0.00  0.00    +0.159 HD
ATOM      7  H   UNL     1     -11.364 -14.458 -30.190  0.00  0.00    +0.159 HD
ATOM      8  H   UNL     1     -13.020 -13.775 -33.872  0.00  0.00    +0.159 HD
ATOM      9  H   UNL     1     -12.955 -15.360 -33.208  0.00  0.00    +0.159 HD
ENDROOT
BRANCH   1  10
ATOM     10  C   UNL     1     -12.140 -11.578 -32.875  0.00  0.00    +0.151 C 
BRANCH  10  11
ATOM     11  C   UNL     1     -13.262 -10.692 -32.407  0.00  0.00    -0.028 A 
ATOM     12  C   UNL     1     -14.246 -11.187 -31.539  0.00  0.00    +0.005 A 
ATOM     13  C   UNL     1     -13.344  -9.354 -32.825  0.00  0.00    +0.005 A 
ATOM     14  C   UNL     1     -15.271 -10.356 -31.080  0.00  0.00    +0.000 A 
ATOM     15  C   UNL     1     -14.369  -8.528 -32.366  0.00  0.00    +0.000 A 
ATOM     16  C   UNL     1     -15.331  -9.028 -31.492  0.00  0.00    +0.000 A 
ENDBRANCH  10  11
ENDBRANCH   1  10
TORSDOF 2
ENDMDL
MODEL 6
REMARK VINA RESULT:    -4.678      2.055      3.141
REMARK INTER + INTRA:          -5.359
REMARK INTER:                  -5.186
REMARK INTRA:                  -0.173
REMARK UNBOUND:                -0.134
REMARK  Name = 1550473
REMARK  2 active torsions:
REMARK  status: ('A' for Active; 'I' for Inactive)
REMARK    1  A    between atoms: N_1  and  C_4
REMARK    2  A    between atoms: C_4  and  C_5
REMARK                            x       y       z     vdW  Elec       q    Type
REMARK                         _______ _______ _______ _____ _____    ______ ____
ROOT
ATOM      1  N   UNL     1     -12.076 -12.066 -32.607  0.00  0.00    -0.354 N 
ATOM      2  N   UNL     1     -12.316 -13.444 -30.760  0.00  0.00    -0.372 N 
ATOM      3  N   UNL     1     -13.111 -14.160 -32.790  0.00  0.00    -0.372 N 
ATOM      4  C   UNL     1     -12.501 -13.216 -32.066  0.00  0.00    +0.166 C 
ATOM      5  H   UNL     1     -11.648 -11.378 -31.998  0.00  0.00    +0.163 HD
ATOM      6  H   UNL     1     -12.623 -14.303 -30.325  0.00  0.00    +0.159 HD
ATOM      7  H   UNL     1     -11.846 -12.774 -30.164  0.00  0.00    +0.159 HD
ATOM      8  H   UNL     1     -13.287 -14.047 -33.779  0.00  0.00    +0.159 HD
ATOM      9  H   UNL     1     -13.436 -15.022 -32.370  0.00  0.00    +0.159 HD
ENDROOT
BRANCH   1  10
ATOM     10  C   UNL     1     -12.181 -11.743 -34.028  0.00  0.00    +0.151 C 
BRANCH  10  11
ATOM     11  C   UNL     1     -13.304 -10.763 -34.228  0.00  0.00    -0.028 A 
ATOM     12  C   UNL     1     -13.299  -9.528 -33.563  0.00  0.00    +0.005 A 
ATOM     13  C   UNL     1     -14.375 -11.062 -35.085  0.00  0.00    +0.005 A 
ATOM     14  C   UNL     1     -14.328  -8.606 -33.771  0.00  0.00    +0.000 A 
ATOM     15  C   UNL     1     -15.400 -10.139 -35.290  0.00  0.00    +0.000 A 
ATOM     16  C   UNL     1     -15.375  -8.910 -34.634  0.00  0.00    +0.000 A 
ENDBRANCH  10  11
ENDBRANCH   1  10
TORSDOF 2
ENDMDL
MODEL 7
REMARK VINA RESULT:    -4.628      2.306      5.019
REMARK INTER + INTRA:          -5.303
REMARK INTER:                  -5.210
REMARK INTRA:                  -0.093
REMARK UNBOUND:                -0.134
REMARK  Name = 1550473
REMARK  2 active torsions:
REMARK  status: ('A' for Active; 'I' for Inactive)
REMARK    1  A    between atoms: N_1  and  C_4
REMARK    2  A    between atoms: C_4  and  C_5
REMARK                            x       y       z     vdW  Elec       q    Type
REMARK                         _______ _______ _______ _____ _____    ______ ____
ROOT
ATOM      1  N   UNL     1     -12.642 -12.600 -31.469  0.00  0.00    -0.354 N 
ATOM      2  N   UNL     1     -14.414 -11.235 -32.072  0.00  0.00    -0.372 N 
ATOM      3  N   UNL     1     -14.159 -13.255 -33.131  0.00  0.00    -0.372 N 
ATOM      4  C   UNL     1     -13.727 -12.375 -32.222  0.00  0.00    +0.166 C 
ATOM      5  H   UNL     1     -12.349 -11.880 -30.820  0.00  0.00    +0.163 HD
ATOM      6  H   UNL     1     -15.238 -11.039 -32.624  0.00  0.00    +0.159 HD
ATOM      7  H   UNL     1     -14.145 -10.537 -31.390  0.00  0.00    +0.159 HD
ATOM      8  H   UNL     1     -13.682 -14.131 -33.297  0.00  0.00    +0.159 HD
ATOM      9  H   UNL     1     -14.976 -13.072 -33.701  0.00  0.00    +0.159 HD
ENDROOT
BRANCH   1  10
ATOM     10  C   UNL     1     -11.856 -13.832 -31.517  0.00  0.00    +0.151 C 
BRANCH  10  11
ATOM     11  C   UNL     1     -10.970 -13.896 -30.303  0.00  0.00    -0.028 A 
ATOM     12  C   UNL     1     -11.443 -14.451 -29.105  0.00  0.00    +0.005 A 
ATOM     13  C   UNL     1      -9.655 -13.408 -30.346  0.00  0.00    +0.005 A 
ATOM     14  C   UNL     1     -10.611 -14.539 -27.986  0.00  0.00    +0.000 A 
ATOM     15  C   UNL     1      -8.828 -13.496 -29.226  0.00  0.00    +0.000 A 
ATOM     16  C   UNL     1      -9.305 -14.064 -28.048  0.00  0.00    +0.000 A 
ENDBRANCH  10  11
ENDBRANCH   1  10
TORSDOF 2
ENDMDL
MODEL 8
REMARK VINA RESULT:    -4.560     46.600     47.399
REMARK INTER + INTRA:          -5.228
REMARK INTER:                  -5.118
REMARK INTRA:                  -0.110
REMARK UNBOUND:                -0.134
REMARK  Name = 1550473
REMARK  2 active torsions:
REMARK  status: ('A' for Active; 'I' for Inactive)
REMARK    1  A    between atoms: N_1  and  C_4
REMARK    2  A    between atoms: C_4  and  C_5
REMARK                            x       y       z     vdW  Elec       q    Type
REMARK                         _______ _______ _______ _____ _____    ______ ____
ROOT
ATOM      1  N   UNL     1       0.044  11.851   6.192  0.00  0.00    -0.354 N 
ATOM      2  N   UNL     1       0.426  11.246   3.989  0.00  0.00    -0.372 N 
ATOM      3  N   UNL     1       1.324  13.207   4.772  0.00  0.00    -0.372 N 
ATOM      4  C   UNL     1       0.597  12.108   4.999  0.00  0.00    +0.166 C 
ATOM      5  H   UNL     1      -0.521  11.016   6.291  0.00  0.00    +0.163 HD
ATOM      6  H   UNL     1       0.834  11.411   3.079  0.00  0.00    +0.159 HD
ATOM      7  H   UNL     1      -0.101  10.388   4.104  0.00  0.00    +0.159 HD
ATOM      8  H   UNL     1       1.485  13.900   5.491  0.00  0.00    +0.159 HD
ATOM      9  H   UNL     1       1.730  13.395   3.864  0.00  0.00    +0.159 HD
ENDROOT
BRANCH   1  10
ATOM     10  C   UNL     1       0.214  12.698   7.371  0.00  0.00    +0.151 C 
BRANCH  10  11
ATOM     11  C   UNL     1      -1.009  12.583   8.239  0.00  0.00    -0.028 A 
ATOM     12  C   UNL     1      -0.939  11.946   9.487  0.00  0.00    +0.005 A 
ATOM     13  C   UNL     1      -2.239  13.115   7.822  0.00  0.00    +0.005 A 
ATOM     14  C   UNL     1      -2.067  11.866  10.306  0.00  0.00    +0.000 A 
ATOM     15  C   UNL     1      -3.363  13.032   8.643  0.00  0.00    +0.000 A 
ATOM     16  C   UNL     1      -3.277  12.409   9.886  0.00  0.00    +0.000 A 
ENDBRANCH  10  11
ENDBRANCH   1  10
TORSDOF 2
ENDMDL
MODEL 9
REMARK VINA RESULT:    -4.489     10.747     11.612
REMARK INTER + INTRA:          -5.148
REMARK INTER:                  -5.007
REMARK INTRA:                  -0.141
REMARK UNBOUND:                -0.134
REMARK  Name = 1550473
REMARK  2 active torsions:
REMARK  status: ('A' for Active; 'I' for Inactive)
REMARK    1  A    between atoms: N_1  and  C_4
REMARK    2  A    between atoms: C_4  and  C_5
REMARK                            x       y       z     vdW  Elec       q    Type
REMARK                         _______ _______ _______ _____ _____    ______ ____
ROOT
ATOM      1  N   UNL     1     -12.590  -3.883 -25.193  0.00  0.00    -0.354 N 
ATOM      2  N   UNL     1     -12.314  -1.865 -26.296  0.00  0.00    -0.372 N 
ATOM      3  N   UNL     1     -10.800  -2.461 -24.678  0.00  0.00    -0.372 N 
ATOM      4  C   UNL     1     -11.901  -2.749 -25.380  0.00  0.00    +0.166 C 
ATOM      5  H   UNL     1     -13.434  -4.028 -25.735  0.00  0.00    +0.163 HD
ATOM      6  H   UNL     1     -11.813  -1.002 -26.461  0.00  0.00    +0.159 HD
ATOM      7  H   UNL     1     -13.132  -2.034 -26.869  0.00  0.00    +0.159 HD
ATOM      8  H   UNL     1     -10.439  -3.084 -23.968  0.00  0.00    +0.159 HD
ATOM      9  H   UNL     1     -10.291  -1.597 -24.821  0.00  0.00    +0.159 HD
ENDROOT
BRANCH   1  10
ATOM     10  C   UNL     1     -12.195  -4.935 -24.259  0.00  0.00    +0.151 C 
BRANCH  10  11
ATOM     11  C   UNL     1     -13.383  -5.320 -23.421  0.00  0.00    -0.028 A 
ATOM     12  C   UNL     1     -13.751  -6.666 -23.283  0.00  0.00    +0.005 A 
ATOM     13  C   UNL     1     -14.141  -4.343 -22.756  0.00  0.00    +0.005 A 
ATOM     14  C   UNL     1     -14.836  -7.027 -22.481  0.00  0.00    +0.000 A 
ATOM     15  C   UNL     1     -15.224  -4.707 -21.957  0.00  0.00    +0.000 A 
ATOM     16  C   UNL     1     -15.570  -6.049 -21.817  0.00  0.00    +0.000 A 
ENDBRANCH  10  11
ENDBRANCH   1  10
TORSDOF 2
ENDMDL
