MODEL 1
REMARK VINA RESULT:    -5.416      0.000      0.000
REMARK INTER + INTRA:          -6.206
REMARK INTER:                  -6.049
REMARK INTRA:                  -0.157
REMARK UNBOUND:                -0.157
REMARK  Name = 1550473
REMARK  2 active torsions:
REMARK  status: ('A' for Active; 'I' for Inactive)
REMARK    1  A    between atoms: N_1  and  C_4
REMARK    2  A    between atoms: C_4  and  C_5
REMARK                            x       y       z     vdW  Elec       q    Type
REMARK                         _______ _______ _______ _____ _____    ______ ____
ROOT
ATOM      1  N   UNL     1      -2.416  12.744  -3.546  0.00  0.00    -0.354 N 
ATOM      2  N   UNL     1      -2.039  13.758  -1.498  0.00  0.00    -0.372 N 
ATOM      3  N   UNL     1      -2.857  15.023  -3.228  0.00  0.00    -0.372 N 
ATOM      4  C   UNL     1      -2.440  13.837  -2.772  0.00  0.00    +0.166 C 
ATOM      5  H   UNL     1      -2.061  11.881  -3.149  0.00  0.00    +0.163 HD
ATOM      6  H   UNL     1      -2.050  14.565  -0.889  0.00  0.00    +0.159 HD
ATOM      7  H   UNL     1      -1.728  12.884  -1.091  0.00  0.00    +0.159 HD
ATOM      8  H   UNL     1      -3.167  15.151  -4.182  0.00  0.00    +0.159 HD
ATOM      9  H   UNL     1      -2.864  15.846  -2.638  0.00  0.00    +0.159 HD
ENDROOT
BRANCH   1  10
ATOM     10  C   UNL     1      -2.882  12.711  -4.931  0.00  0.00    +0.151 C 
BRANCH  10  11
ATOM     11  C   UNL     1      -4.080  11.808  -5.025  0.00  0.00    -0.028 A 
ATOM     12  C   UNL     1      -3.918  10.423  -5.176  0.00  0.00    +0.005 A 
ATOM     13  C   UNL     1      -5.381  12.330  -4.958  0.00  0.00    +0.005 A 
ATOM     14  C   UNL     1      -5.030   9.580  -5.234  0.00  0.00    +0.000 A 
ATOM     15  C   UNL     1      -6.489  11.485  -5.016  0.00  0.00    +0.000 A 
ATOM     16  C   UNL     1      -6.314  10.110  -5.152  0.00  0.00    +0.000 A 
ENDBRANCH  10  11
ENDBRANCH   1  10
TORSDOF 2
ENDMDL
MODEL 2
REMARK VINA RESULT:    -5.179      1.266      2.456
REMARK INTER + INTRA:          -5.942
REMARK INTER:                  -5.805
REMARK INTRA:                  -0.138
REMARK UNBOUND:                -0.157
REMARK  Name = 1550473
REMARK  2 active torsions:
REMARK  status: ('A' for Active; 'I' for Inactive)
REMARK    1  A    between atoms: N_1  and  C_4
REMARK    2  A    between atoms: C_4  and  C_5
REMARK                            x       y       z     vdW  Elec       q    Type
REMARK                         _______ _______ _______ _____ _____    ______ ____
ROOT
ATOM      1  N   UNL     1      -3.388  12.317  -5.436  0.00  0.00    -0.354 N 
ATOM      2  N   UNL     1      -2.826  14.503  -4.914  0.00  0.00    -0.372 N 
ATOM      3  N   UNL     1      -2.312  12.839  -3.420  0.00  0.00    -0.372 N 
ATOM      4  C   UNL     1      -2.845  13.204  -4.591  0.00  0.00    +0.166 C 
ATOM      5  H   UNL     1      -3.802  12.662  -6.294  0.00  0.00    +0.163 HD
ATOM      6  H   UNL     1      -2.420  15.195  -4.299  0.00  0.00    +0.159 HD
ATOM      7  H   UNL     1      -3.200  14.839  -5.794  0.00  0.00    +0.159 HD
ATOM      8  H   UNL     1      -2.299  11.875  -3.115  0.00  0.00    +0.159 HD
ATOM      9  H   UNL     1      -1.911  13.518  -2.785  0.00  0.00    +0.159 HD
ENDROOT
BRANCH   1  10
ATOM     10  C   UNL     1      -3.410  10.874  -5.203  0.00  0.00    +0.151 C 
BRANCH  10  11
ATOM     11  C   UNL     1      -4.823  10.377  -5.341  0.00  0.00    -0.028 A 
ATOM     12  C   UNL     1      -5.899  11.276  -5.326  0.00  0.00    +0.005 A 
ATOM     13  C   UNL     1      -5.091   9.008  -5.492  0.00  0.00    +0.005 A 
ATOM     14  C   UNL     1      -7.209  10.817  -5.484  0.00  0.00    +0.000 A 
ATOM     15  C   UNL     1      -6.400   8.554  -5.649  0.00  0.00    +0.000 A 
ATOM     16  C   UNL     1      -7.459   9.459  -5.647  0.00  0.00    +0.000 A 
ENDBRANCH  10  11
ENDBRANCH   1  10
TORSDOF 2
ENDMDL
MODEL 3
REMARK VINA RESULT:    -4.861      1.202      2.055
REMARK INTER + INTRA:          -5.586
REMARK INTER:                  -5.479
REMARK INTRA:                  -0.107
REMARK UNBOUND:                -0.157
REMARK  Name = 1550473
REMARK  2 active torsions:
REMARK  status: ('A' for Active; 'I' for Inactive)
REMARK    1  A    between atoms: N_1  and  C_4
REMARK    2  A    between atoms: C_4  and  C_5
REMARK                            x       y       z     vdW  Elec       q    Type
REMARK                         _______ _______ _______ _____ _____    ______ ____
ROOT
ATOM      1  N   UNL     1      -4.401  13.900  -3.798  0.00  0.00    -0.354 N 
ATOM      2  N   UNL     1      -2.420  14.778  -2.982  0.00  0.00    -0.372 N 
ATOM      3  N   UNL     1      -2.768  14.746  -5.250  0.00  0.00    -0.372 N 
ATOM      4  C   UNL     1      -3.209  14.469  -4.018  0.00  0.00    +0.166 C 
ATOM      5  H   UNL     1      -4.665  13.688  -2.843  0.00  0.00    +0.163 HD
ATOM      6  H   UNL     1      -1.516  15.211  -3.116  0.00  0.00    +0.159 HD
ATOM      7  H   UNL     1      -2.705  14.607  -2.025  0.00  0.00    +0.159 HD
ATOM      8  H   UNL     1      -3.313  14.532  -6.074  0.00  0.00    +0.159 HD
ATOM      9  H   UNL     1      -1.861  15.169  -5.405  0.00  0.00    +0.159 HD
ENDROOT
BRANCH   1  10
ATOM     10  C   UNL     1      -5.358  13.573  -4.854  0.00  0.00    +0.151 C 
BRANCH  10  11
ATOM     11  C   UNL     1      -5.408  12.080  -5.027  0.00  0.00    -0.028 A 
ATOM     12  C   UNL     1      -6.624  11.391  -4.920  0.00  0.00    +0.005 A 
ATOM     13  C   UNL     1      -4.242  11.350  -5.305  0.00  0.00    +0.005 A 
ATOM     14  C   UNL     1      -6.675  10.008  -5.111  0.00  0.00    +0.000 A 
ATOM     15  C   UNL     1      -4.297   9.969  -5.494  0.00  0.00    +0.000 A 
ATOM     16  C   UNL     1      -5.514   9.299  -5.399  0.00  0.00    +0.000 A 
ENDBRANCH  10  11
ENDBRANCH   1  10
TORSDOF 2
ENDMDL
MODEL 4
REMARK VINA RESULT:    -4.770      2.843      4.006
REMARK INTER + INTRA:          -5.485
REMARK INTER:                  -5.304
REMARK INTRA:                  -0.181
REMARK UNBOUND:                -0.157
REMARK  Name = 1550473
REMARK  2 active torsions:
REMARK  status: ('A' for Active; 'I' for Inactive)
REMARK    1  A    between atoms: N_1  and  C_4
REMARK    2  A    between atoms: C_4  and  C_5
REMARK                            x       y       z     vdW  Elec       q    Type
REMARK                         _______ _______ _______ _____ _____    ______ ____
ROOT
ATOM      1  N   UNL     1      -3.677  11.843  -6.464  0.00  0.00    -0.354 N 
ATOM      2  N   UNL     1      -2.636  12.189  -8.504  0.00  0.00    -0.372 N 
ATOM      3  N   UNL     1      -2.007  10.387  -7.229  0.00  0.00    -0.372 N 
ATOM      4  C   UNL     1      -2.778  11.469  -7.385  0.00  0.00    +0.166 C 
ATOM      5  H   UNL     1      -4.209  12.690  -6.628  0.00  0.00    +0.163 HD
ATOM      6  H   UNL     1      -1.968  11.929  -9.218  0.00  0.00    +0.159 HD
ATOM      7  H   UNL     1      -3.202  13.009  -8.686  0.00  0.00    +0.159 HD
ATOM      8  H   UNL     1      -2.062   9.805  -6.405  0.00  0.00    +0.159 HD
ATOM      9  H   UNL     1      -1.325  10.118  -7.927  0.00  0.00    +0.159 HD
ENDROOT
BRANCH   1  10
ATOM     10  C   UNL     1      -3.948  11.098  -5.236  0.00  0.00    +0.151 C 
BRANCH  10  11
ATOM     11  C   UNL     1      -5.228  10.327  -5.402  0.00  0.00    -0.028 A 
ATOM     12  C   UNL     1      -6.462  10.993  -5.429  0.00  0.00    +0.005 A 
ATOM     13  C   UNL     1      -5.214   8.930  -5.538  0.00  0.00    +0.005 A 
ATOM     14  C   UNL     1      -7.649  10.281  -5.613  0.00  0.00    +0.000 A 
ATOM     15  C   UNL     1      -6.402   8.222  -5.721  0.00  0.00    +0.000 A 
ATOM     16  C   UNL     1      -7.619   8.898  -5.761  0.00  0.00    +0.000 A 
ENDBRANCH  10  11
ENDBRANCH   1  10
TORSDOF 2
ENDMDL
MODEL 5
REMARK VINA RESULT:    -4.581      2.105      2.570
REMARK INTER + INTRA:          -5.274
REMARK INTER:                  -5.163
REMARK INTRA:                  -0.111
REMARK UNBOUND:                -0.157
REMARK  Name = 1550473
REMARK  2 active torsions:
REMARK  status: ('A' for Active; 'I' for Inactive)
REMARK    1  A    between atoms: N_1  and  C_4
REMARK    2  A    between atoms: C_4  and  C_5
REMARK                            x       y       z     vdW  Elec       q    Type
REMARK                         _______ _______ _______ _____ _____    ______ ____
ROOT
ATOM      1  N   UNL     1      -2.603  12.692  -6.053  0.00  0.00    -0.354 N 
ATOM      2  N   UNL     1      -1.046  13.473  -7.580  0.00  0.00    -0.372 N 
ATOM      3  N   UNL     1      -2.325  14.989  -6.427  0.00  0.00    -0.372 N 
ATOM      4  C   UNL     1      -2.003  13.716  -6.676  0.00  0.00    +0.166 C 
ATOM      5  H   UNL     1      -2.334  11.749  -6.309  0.00  0.00    +0.163 HD
ATOM      6  H   UNL     1      -0.574  14.225  -8.064  0.00  0.00    +0.159 HD
ATOM      7  H   UNL     1      -0.747  12.531  -7.800  0.00  0.00    +0.159 HD
ATOM      8  H   UNL     1      -3.043  15.239  -5.760  0.00  0.00    +0.159 HD
ATOM      9  H   UNL     1      -1.872  15.755  -6.909  0.00  0.00    +0.159 HD
ENDROOT
BRANCH   1  10
ATOM     10  C   UNL     1      -3.618  12.850  -5.014  0.00  0.00    +0.151 C 
BRANCH  10  11
ATOM     11  C   UNL     1      -4.610  11.724  -5.121  0.00  0.00    -0.028 A 
ATOM     12  C   UNL     1      -4.171  10.397  -5.233  0.00  0.00    +0.005 A 
ATOM     13  C   UNL     1      -5.990  11.979  -5.106  0.00  0.00    +0.005 A 
ATOM     14  C   UNL     1      -5.092   9.349  -5.303  0.00  0.00    +0.000 A 
ATOM     15  C   UNL     1      -6.906  10.929  -5.177  0.00  0.00    +0.000 A 
ATOM     16  C   UNL     1      -6.457   9.615  -5.273  0.00  0.00    +0.000 A 
ENDBRANCH  10  11
ENDBRANCH   1  10
TORSDOF 2
ENDMDL
MODEL 6
REMARK VINA RESULT:    -4.522      2.262      3.317
REMARK INTER + INTRA:          -5.208
REMARK INTER:                  -5.093
REMARK INTRA:                  -0.114
REMARK UNBOUND:                -0.157
REMARK  Name = 1550473
REMARK  2 active torsions:
REMARK  status: ('A' for Active; 'I' for Inactive)
REMARK    1  A    between atoms: N_1  and  C_4
REMARK    2  A    between atoms: C_4  and  C_5
REMARK                            x       y       z     vdW  Elec       q    Type
REMARK                         _______ _______ _______ _____ _____    ______ ____
ROOT
ATOM      1  N   UNL     1      -2.435  14.310  -3.931  0.00  0.00    -0.354 N 
ATOM      2  N   UNL     1      -1.515  15.385  -2.097  0.00  0.00    -0.372 N 
ATOM      3  N   UNL     1      -3.230  13.897  -1.765  0.00  0.00    -0.372 N 
ATOM      4  C   UNL     1      -2.401  14.522  -2.608  0.00  0.00    +0.166 C 
ATOM      5  H   UNL     1      -1.800  14.838  -4.519  0.00  0.00    +0.163 HD
ATOM      6  H   UNL     1      -1.463  15.563  -1.103  0.00  0.00    +0.159 HD
ATOM      7  H   UNL     1      -0.851  15.877  -2.683  0.00  0.00    +0.159 HD
ATOM      8  H   UNL     1      -3.926  13.239  -2.088  0.00  0.00    +0.159 HD
ATOM      9  H   UNL     1      -3.202  14.071  -0.768  0.00  0.00    +0.159 HD
ENDROOT
BRANCH   1  10
ATOM     10  C   UNL     1      -3.325  13.352  -4.582  0.00  0.00    +0.151 C 
BRANCH  10  11
ATOM     11  C   UNL     1      -2.626  12.765  -5.777  0.00  0.00    -0.028 A 
ATOM     12  C   UNL     1      -2.746  11.399  -6.073  0.00  0.00    +0.005 A 
ATOM     13  C   UNL     1      -1.845  13.571  -6.621  0.00  0.00    +0.005 A 
ATOM     14  C   UNL     1      -2.121  10.860  -7.200  0.00  0.00    +0.000 A 
ATOM     15  C   UNL     1      -1.222  13.028  -7.744  0.00  0.00    +0.000 A 
ATOM     16  C   UNL     1      -1.362  11.673  -8.035  0.00  0.00    +0.000 A 
ENDBRANCH  10  11
ENDBRANCH   1  10
TORSDOF 2
ENDMDL
MODEL 7
REMARK VINA RESULT:    -4.479     13.109     15.323
REMARK INTER + INTRA:          -5.160
REMARK INTER:                  -5.034
REMARK INTRA:                  -0.126
REMARK UNBOUND:                -0.157
REMARK  Name = 1550473
REMARK  2 active torsions:
REMARK  status: ('A' for Active; 'I' for Inactive)
REMARK    1  A    between atoms: N_1  and  C_4
REMARK    2  A    between atoms: C_4  and  C_5
REMARK                            x       y       z     vdW  Elec       q    Type
REMARK                         _______ _______ _______ _____ _____    ______ ____
ROOT
ATOM      1  N   UNL     1       8.848  15.427  -2.363  0.00  0.00    -0.354 N 
ATOM      2  N   UNL     1       6.576  15.142  -2.710  0.00  0.00    -0.372 N 
ATOM      3  N   UNL     1       7.635  16.919  -3.704  0.00  0.00    -0.372 N 
ATOM      4  C   UNL     1       7.702  15.834  -2.925  0.00  0.00    +0.166 C 
ATOM      5  H   UNL     1       8.826  14.614  -1.759  0.00  0.00    +0.163 HD
ATOM      6  H   UNL     1       5.697  15.423  -3.124  0.00  0.00    +0.159 HD
ATOM      7  H   UNL     1       6.566  14.304  -2.143  0.00  0.00    +0.159 HD
ATOM      8  H   UNL     1       8.448  17.488  -3.900  0.00  0.00    +0.159 HD
ATOM      9  H   UNL     1       6.762  17.223  -4.116  0.00  0.00    +0.159 HD
ENDROOT
BRANCH   1  10
ATOM     10  C   UNL     1      10.139  16.079  -2.577  0.00  0.00    +0.151 C 
BRANCH  10  11
ATOM     11  C   UNL     1      11.236  15.065  -2.401  0.00  0.00    -0.028 A 
ATOM     12  C   UNL     1      11.028  13.723  -2.753  0.00  0.00    +0.005 A 
ATOM     13  C   UNL     1      12.487  15.440  -1.888  0.00  0.00    +0.005 A 
ATOM     14  C   UNL     1      12.056  12.787  -2.618  0.00  0.00    +0.000 A 
ATOM     15  C   UNL     1      13.510  14.502  -1.754  0.00  0.00    +0.000 A 
ATOM     16  C   UNL     1      13.295  13.176  -2.121  0.00  0.00    +0.000 A 
ENDBRANCH  10  11
ENDBRANCH   1  10
TORSDOF 2
ENDMDL
MODEL 8
REMARK VINA RESULT:    -4.461     11.903     13.159
REMARK INTER + INTRA:          -5.140
REMARK INTER:                  -4.990
REMARK INTRA:                  -0.150
REMARK UNBOUND:                -0.157
REMARK  Name = 1550473
REMARK  2 active torsions:
REMARK  status: ('A' for Active; 'I' for Inactive)
REMARK    1  A    between atoms: N_1  and  C_4
REMARK    2  A    between atoms: C_4  and  C_5
REMARK                            x       y       z     vdW  Elec       q    Type
REMARK                         _______ _______ _______ _____ _____    ______ ____
ROOT
ATOM      1  N   UNL     1      -3.155   3.857 -13.487  0.00  0.00    -0.354 N 
ATOM      2  N   UNL     1      -3.534   3.930 -11.203  0.00  0.00    -0.372 N 
ATOM      3  N   UNL     1      -2.599   5.756 -12.231  0.00  0.00    -0.372 N 
ATOM      4  C   UNL     1      -3.092   4.516 -12.322  0.00  0.00    +0.166 C 
ATOM      5  H   UNL     1      -3.512   2.908 -13.484  0.00  0.00    +0.163 HD
ATOM      6  H   UNL     1      -3.503   4.404 -10.310  0.00  0.00    +0.159 HD
ATOM      7  H   UNL     1      -3.933   2.999 -11.211  0.00  0.00    +0.159 HD
ATOM      8  H   UNL     1      -2.243   6.251 -13.037  0.00  0.00    +0.159 HD
ATOM      9  H   UNL     1      -2.548   6.242 -11.344  0.00  0.00    +0.159 HD
ENDROOT
BRANCH   1  10
ATOM     10  C   UNL     1      -2.750   4.425 -14.771  0.00  0.00    +0.151 C 
BRANCH  10  11
ATOM     11  C   UNL     1      -3.959   4.551 -15.656  0.00  0.00    -0.028 A 
ATOM     12  C   UNL     1      -4.058   3.802 -16.837  0.00  0.00    +0.005 A 
ATOM     13  C   UNL     1      -5.012   5.414 -15.315  0.00  0.00    +0.005 A 
ATOM     14  C   UNL     1      -5.194   3.896 -17.644  0.00  0.00    +0.000 A 
ATOM     15  C   UNL     1      -6.145   5.506 -16.124  0.00  0.00    +0.000 A 
ATOM     16  C   UNL     1      -6.237   4.745 -17.287  0.00  0.00    +0.000 A 
ENDBRANCH  10  11
ENDBRANCH   1  10
TORSDOF 2
ENDMDL
MODEL 9
REMARK VINA RESULT:    -4.429     22.610     24.053
REMARK INTER + INTRA:          -5.104
REMARK INTER:                  -4.984
REMARK INTRA:                  -0.120
REMARK UNBOUND:                -0.157
REMARK  Name = 1550473
REMARK  2 active torsions:
REMARK  status: ('A' for Active; 'I' for Inactive)
REMARK    1  A    between atoms: N_1  and  C_4
REMARK    2  A    between atoms: C_4  and  C_5
REMARK                            x       y       z     vdW  Elec       q    Type
REMARK                         _______ _______ _______ _____ _____    ______ ____
ROOT
ATOM      1  N   UNL     1     -14.724  -6.366   3.144  0.00  0.00    -0.354 N 
ATOM      2  N   UNL     1     -15.602  -4.264   2.727  0.00  0.00    -0.372 N 
ATOM      3  N   UNL     1     -14.383  -4.597   4.643  0.00  0.00    -0.372 N 
ATOM      4  C   UNL     1     -14.896  -5.089   3.510  0.00  0.00    +0.166 C 
ATOM      5  H   UNL     1     -15.164  -6.685   2.289  0.00  0.00    +0.163 HD
ATOM      6  H   UNL     1     -15.746  -3.294   2.976  0.00  0.00    +0.159 HD
ATOM      7  H   UNL     1     -16.002  -4.574   1.850  0.00  0.00    +0.159 HD
ATOM      8  H   UNL     1     -13.846  -5.169   5.280  0.00  0.00    +0.159 HD
ATOM      9  H   UNL     1     -14.527  -3.632   4.914  0.00  0.00    +0.159 HD
ENDROOT
BRANCH   1  10
ATOM     10  C   UNL     1     -13.927  -7.332   3.899  0.00  0.00    +0.151 C 
BRANCH  10  11
ATOM     11  C   UNL     1     -14.194  -8.712   3.364  0.00  0.00    -0.028 A 
ATOM     12  C   UNL     1     -13.912  -9.844   4.144  0.00  0.00    +0.005 A 
ATOM     13  C   UNL     1     -14.733  -8.895   2.082  0.00  0.00    +0.005 A 
ATOM     14  C   UNL     1     -14.187 -11.125   3.660  0.00  0.00    +0.000 A 
ATOM     15  C   UNL     1     -15.006 -10.176   1.602  0.00  0.00    +0.000 A 
ATOM     16  C   UNL     1     -14.735 -11.291   2.392  0.00  0.00    +0.000 A 
ENDBRANCH  10  11
ENDBRANCH   1  10
TORSDOF 2
ENDMDL
