MODEL 1
REMARK VINA RESULT:    -3.895      0.000      0.000
REMARK INTER + INTRA:          -4.473
REMARK INTER:                  -4.351
REMARK INTRA:                  -0.123
REMARK UNBOUND:                -0.123
REMARK  Name = 1550473
REMARK  2 active torsions:
REMARK  status: ('A' for Active; 'I' for Inactive)
REMARK    1  A    between atoms: N_1  and  C_4
REMARK    2  A    between atoms: C_4  and  C_5
REMARK                            x       y       z     vdW  Elec       q    Type
REMARK                         _______ _______ _______ _____ _____    ______ ____
ROOT
ATOM      1  N   UNL     1       8.881  10.903   8.675  0.00  0.00    -0.354 N 
ATOM      2  N   UNL     1       9.420  11.592  10.820  0.00  0.00    -0.372 N 
ATOM      3  N   UNL     1      10.981  10.431   9.603  0.00  0.00    -0.372 N 
ATOM      4  C   UNL     1       9.760  10.969   9.685  0.00  0.00    +0.166 C 
ATOM      5  H   UNL     1       7.961  11.304   8.811  0.00  0.00    +0.163 HD
ATOM      6  H   UNL     1      10.063  11.662  11.597  0.00  0.00    +0.159 HD
ATOM      7  H   UNL     1       8.515  12.033  10.935  0.00  0.00    +0.159 HD
ATOM      8  H   UNL     1      11.297   9.942   8.777  0.00  0.00    +0.159 HD
ATOM      9  H   UNL     1      11.634  10.480  10.375  0.00  0.00    +0.159 HD
ENDROOT
BRANCH   1  10
ATOM     10  C   UNL     1       9.171  10.294   7.378  0.00  0.00    +0.151 C 
BRANCH  10  11
ATOM     11  C   UNL     1       7.914  10.273   6.554  0.00  0.00    -0.028 A 
ATOM     12  C   UNL     1       6.665  10.492   7.154  0.00  0.00    +0.005 A 
ATOM     13  C   UNL     1       7.965  10.039   5.171  0.00  0.00    +0.005 A 
ATOM     14  C   UNL     1       5.500  10.502   6.383  0.00  0.00    +0.000 A 
ATOM     15  C   UNL     1       6.799  10.049   4.405  0.00  0.00    +0.000 A 
ATOM     16  C   UNL     1       5.567  10.283   5.011  0.00  0.00    +0.000 A 
ENDBRANCH  10  11
ENDBRANCH   1  10
TORSDOF 2
ENDMDL
MODEL 2
REMARK VINA RESULT:    -3.705      3.497      5.409
REMARK INTER + INTRA:          -4.261
REMARK INTER:                  -4.128
REMARK INTRA:                  -0.133
REMARK UNBOUND:                -0.123
REMARK  Name = 1550473
REMARK  2 active torsions:
REMARK  status: ('A' for Active; 'I' for Inactive)
REMARK    1  A    between atoms: N_1  and  C_4
REMARK    2  A    between atoms: C_4  and  C_5
REMARK                            x       y       z     vdW  Elec       q    Type
REMARK                         _______ _______ _______ _____ _____    ______ ____
ROOT
ATOM      1  N   UNL     1       7.838   9.867   3.855  0.00  0.00    -0.354 N 
ATOM      2  N   UNL     1       8.677   8.847   1.952  0.00  0.00    -0.372 N 
ATOM      3  N   UNL     1       6.568   8.295   2.669  0.00  0.00    -0.372 N 
ATOM      4  C   UNL     1       7.686   9.008   2.838  0.00  0.00    +0.166 C 
ATOM      5  H   UNL     1       8.722  10.356   3.944  0.00  0.00    +0.163 HD
ATOM      6  H   UNL     1       8.590   8.209   1.172  0.00  0.00    +0.159 HD
ATOM      7  H   UNL     1       9.541   9.371   2.018  0.00  0.00    +0.159 HD
ATOM      8  H   UNL     1       5.786   8.365   3.306  0.00  0.00    +0.159 HD
ATOM      9  H   UNL     1       6.467   7.642   1.901  0.00  0.00    +0.159 HD
ENDROOT
BRANCH   1  10
ATOM     10  C   UNL     1       6.800  10.155   4.843  0.00  0.00    +0.151 C 
BRANCH  10  11
ATOM     11  C   UNL     1       7.451  10.458   6.165  0.00  0.00    -0.028 A 
ATOM     12  C   UNL     1       8.785  10.095   6.401  0.00  0.00    +0.005 A 
ATOM     13  C   UNL     1       6.741  11.112   7.183  0.00  0.00    +0.005 A 
ATOM     14  C   UNL     1       9.399  10.402   7.617  0.00  0.00    +0.000 A 
ATOM     15  C   UNL     1       7.357  11.417   8.396  0.00  0.00    +0.000 A 
ATOM     16  C   UNL     1       8.687  11.064   8.612  0.00  0.00    +0.000 A 
ENDBRANCH  10  11
ENDBRANCH   1  10
TORSDOF 2
ENDMDL
MODEL 3
REMARK VINA RESULT:    -3.627      4.383      5.787
REMARK INTER + INTRA:          -4.174
REMARK INTER:                  -4.017
REMARK INTRA:                  -0.157
REMARK UNBOUND:                -0.123
REMARK  Name = 1550473
REMARK  2 active torsions:
REMARK  status: ('A' for Active; 'I' for Inactive)
REMARK    1  A    between atoms: N_1  and  C_4
REMARK    2  A    between atoms: C_4  and  C_5
REMARK                            x       y       z     vdW  Elec       q    Type
REMARK                         _______ _______ _______ _____ _____    ______ ____
ROOT
ATOM      1  N   UNL     1       6.779   9.588   2.405  0.00  0.00    -0.354 N 
ATOM      2  N   UNL     1       5.659   7.937   1.227  0.00  0.00    -0.372 N 
ATOM      3  N   UNL     1       7.759   7.492   2.035  0.00  0.00    -0.372 N 
ATOM      4  C   UNL     1       6.742   8.348   1.897  0.00  0.00    +0.166 C 
ATOM      5  H   UNL     1       5.987  10.199   2.239  0.00  0.00    +0.163 HD
ATOM      6  H   UNL     1       5.601   7.007   0.835  0.00  0.00    +0.159 HD
ATOM      7  H   UNL     1       4.851   8.535   1.103  0.00  0.00    +0.159 HD
ATOM      8  H   UNL     1       8.608   7.742   2.525  0.00  0.00    +0.159 HD
ATOM      9  H   UNL     1       7.725   6.560   1.640  0.00  0.00    +0.159 HD
ENDROOT
BRANCH   1  10
ATOM     10  C   UNL     1       7.889  10.114   3.197  0.00  0.00    +0.151 C 
BRANCH  10  11
ATOM     11  C   UNL     1       7.461  10.216   4.635  0.00  0.00    -0.028 A 
ATOM     12  C   UNL     1       8.407  10.122   5.667  0.00  0.00    +0.005 A 
ATOM     13  C   UNL     1       6.113  10.411   4.972  0.00  0.00    +0.005 A 
ATOM     14  C   UNL     1       8.014  10.246   7.002  0.00  0.00    +0.000 A 
ATOM     15  C   UNL     1       5.725  10.533   6.306  0.00  0.00    +0.000 A 
ATOM     16  C   UNL     1       6.676  10.453   7.321  0.00  0.00    +0.000 A 
ENDBRANCH  10  11
ENDBRANCH   1  10
TORSDOF 2
ENDMDL
MODEL 4
REMARK VINA RESULT:    -3.623      4.249      5.824
REMARK INTER + INTRA:          -4.169
REMARK INTER:                  -4.074
REMARK INTRA:                  -0.095
REMARK UNBOUND:                -0.123
REMARK  Name = 1550473
REMARK  2 active torsions:
REMARK  status: ('A' for Active; 'I' for Inactive)
REMARK    1  A    between atoms: N_1  and  C_4
REMARK    2  A    between atoms: C_4  and  C_5
REMARK                            x       y       z     vdW  Elec       q    Type
REMARK                         _______ _______ _______ _____ _____    ______ ____
ROOT
ATOM      1  N   UNL     1       5.926   9.694   3.876  0.00  0.00    -0.354 N 
ATOM      2  N   UNL     1       5.042  10.678   5.777  0.00  0.00    -0.372 N 
ATOM      3  N   UNL     1       7.307  10.331   5.659  0.00  0.00    -0.372 N 
ATOM      4  C   UNL     1       6.100  10.228   5.092  0.00  0.00    +0.166 C 
ATOM      5  H   UNL     1       4.983   9.616   3.515  0.00  0.00    +0.163 HD
ATOM      6  H   UNL     1       5.143  11.088   6.695  0.00  0.00    +0.159 HD
ATOM      7  H   UNL     1       4.105  10.641   5.394  0.00  0.00    +0.159 HD
ATOM      8  H   UNL     1       8.145  10.005   5.197  0.00  0.00    +0.159 HD
ATOM      9  H   UNL     1       7.427  10.729   6.582  0.00  0.00    +0.159 HD
ENDROOT
BRANCH   1  10
ATOM     10  C   UNL     1       7.019   9.224   3.025  0.00  0.00    +0.151 C 
BRANCH  10  11
ATOM     11  C   UNL     1       6.456   8.337   1.949  0.00  0.00    -0.028 A 
ATOM     12  C   UNL     1       5.669   8.877   0.921  0.00  0.00    +0.005 A 
ATOM     13  C   UNL     1       6.711   6.957   1.947  0.00  0.00    +0.005 A 
ATOM     14  C   UNL     1       5.171   8.059  -0.096  0.00  0.00    +0.000 A 
ATOM     15  C   UNL     1       6.211   6.144   0.930  0.00  0.00    +0.000 A 
ATOM     16  C   UNL     1       5.444   6.695  -0.092  0.00  0.00    +0.000 A 
ENDBRANCH  10  11
ENDBRANCH   1  10
TORSDOF 2
ENDMDL
MODEL 5
REMARK VINA RESULT:    -3.589     57.185     59.918
REMARK INTER + INTRA:          -4.131
REMARK INTER:                  -3.947
REMARK INTRA:                  -0.185
REMARK UNBOUND:                -0.123
REMARK  Name = 1550473
REMARK  2 active torsions:
REMARK  status: ('A' for Active; 'I' for Inactive)
REMARK    1  A    between atoms: N_1  and  C_4
REMARK    2  A    between atoms: C_4  and  C_5
REMARK                            x       y       z     vdW  Elec       q    Type
REMARK                         _______ _______ _______ _____ _____    ______ ____
ROOT
ATOM      1  N   UNL     1       9.523  37.909  58.749  0.00  0.00    -0.354 N 
ATOM      2  N   UNL     1      10.496  37.455  56.696  0.00  0.00    -0.372 N 
ATOM      3  N   UNL     1       8.678  38.854  56.777  0.00  0.00    -0.372 N 
ATOM      4  C   UNL     1       9.557  38.077  57.420  0.00  0.00    +0.166 C 
ATOM      5  H   UNL     1      10.198  37.284  59.172  0.00  0.00    +0.163 HD
ATOM      6  H   UNL     1      10.549  37.566  55.693  0.00  0.00    +0.159 HD
ATOM      7  H   UNL     1      11.198  36.867  57.128  0.00  0.00    +0.159 HD
ATOM      8  H   UNL     1       7.942  39.346  57.264  0.00  0.00    +0.159 HD
ATOM      9  H   UNL     1       8.708  38.967  55.771  0.00  0.00    +0.159 HD
ENDROOT
BRANCH   1  10
ATOM     10  C   UNL     1       8.575  38.583  59.634  0.00  0.00    +0.151 C 
BRANCH  10  11
ATOM     11  C   UNL     1       9.247  39.775  60.257  0.00  0.00    -0.028 A 
ATOM     12  C   UNL     1      10.206  39.604  61.267  0.00  0.00    +0.005 A 
ATOM     13  C   UNL     1       8.934  41.078  59.840  0.00  0.00    +0.005 A 
ATOM     14  C   UNL     1      10.853  40.709  61.825  0.00  0.00    +0.000 A 
ATOM     15  C   UNL     1       9.581  42.179  60.401  0.00  0.00    +0.000 A 
ATOM     16  C   UNL     1      10.542  41.994  61.392  0.00  0.00    +0.000 A 
ENDBRANCH  10  11
ENDBRANCH   1  10
TORSDOF 2
ENDMDL
MODEL 6
REMARK VINA RESULT:    -3.399      4.963      6.601
REMARK INTER + INTRA:          -3.919
REMARK INTER:                  -3.787
REMARK INTRA:                  -0.132
REMARK UNBOUND:                -0.123
REMARK  Name = 1550473
REMARK  2 active torsions:
REMARK  status: ('A' for Active; 'I' for Inactive)
REMARK    1  A    between atoms: N_1  and  C_4
REMARK    2  A    between atoms: C_4  and  C_5
REMARK                            x       y       z     vdW  Elec       q    Type
REMARK                         _______ _______ _______ _____ _____    ______ ____
ROOT
ATOM      1  N   UNL     1      11.079  13.350  14.155  0.00  0.00    -0.354 N 
ATOM      2  N   UNL     1      11.409  14.741  15.977  0.00  0.00    -0.372 N 
ATOM      3  N   UNL     1      12.780  14.962  14.151  0.00  0.00    -0.372 N 
ATOM      4  C   UNL     1      11.756  14.343  14.747  0.00  0.00    +0.166 C 
ATOM      5  H   UNL     1      10.333  12.901  14.672  0.00  0.00    +0.163 HD
ATOM      6  H   UNL     1      11.899  15.490  16.448  0.00  0.00    +0.159 HD
ATOM      7  H   UNL     1      10.632  14.321  16.474  0.00  0.00    +0.159 HD
ATOM      8  H   UNL     1      13.095  14.705  13.225  0.00  0.00    +0.159 HD
ATOM      9  H   UNL     1      13.290  15.706  14.610  0.00  0.00    +0.159 HD
ENDROOT
BRANCH   1  10
ATOM     10  C   UNL     1      11.343  12.877  12.797  0.00  0.00    +0.151 C 
BRANCH  10  11
ATOM     11  C   UNL     1      10.056  12.396  12.186  0.00  0.00    -0.028 A 
ATOM     12  C   UNL     1      10.060  11.721  10.956  0.00  0.00    +0.005 A 
ATOM     13  C   UNL     1       8.829  12.606  12.835  0.00  0.00    +0.005 A 
ATOM     14  C   UNL     1       8.868  11.248  10.403  0.00  0.00    +0.000 A 
ATOM     15  C   UNL     1       7.641  12.133  12.278  0.00  0.00    +0.000 A 
ATOM     16  C   UNL     1       7.661  11.451  11.064  0.00  0.00    +0.000 A 
ENDBRANCH  10  11
ENDBRANCH   1  10
TORSDOF 2
ENDMDL
MODEL 7
REMARK VINA RESULT:    -3.205     60.149     62.087
REMARK INTER + INTRA:          -3.702
REMARK INTER:                  -3.562
REMARK INTRA:                  -0.140
REMARK UNBOUND:                -0.123
REMARK  Name = 1550473
REMARK  2 active torsions:
REMARK  status: ('A' for Active; 'I' for Inactive)
REMARK    1  A    between atoms: N_1  and  C_4
REMARK    2  A    between atoms: C_4  and  C_5
REMARK                            x       y       z     vdW  Elec       q    Type
REMARK                         _______ _______ _______ _____ _____    ______ ____
ROOT
ATOM      1  N   UNL     1      17.798  43.793  60.804  0.00  0.00    -0.354 N 
ATOM      2  N   UNL     1      17.489  43.609  63.092  0.00  0.00    -0.372 N 
ATOM      3  N   UNL     1      16.333  45.224  61.943  0.00  0.00    -0.372 N 
ATOM      4  C   UNL     1      17.207  44.213  61.930  0.00  0.00    +0.166 C 
ATOM      5  H   UNL     1      18.475  43.041  60.866  0.00  0.00    +0.163 HD
ATOM      6  H   UNL     1      17.056  43.901  63.958  0.00  0.00    +0.159 HD
ATOM      7  H   UNL     1      18.131  42.828  63.144  0.00  0.00    +0.159 HD
ATOM      8  H   UNL     1      16.082  45.725  61.101  0.00  0.00    +0.159 HD
ATOM      9  H   UNL     1      15.898  45.539  62.801  0.00  0.00    +0.159 HD
ENDROOT
BRANCH   1  10
ATOM     10  C   UNL     1      17.520  44.347  59.480  0.00  0.00    +0.151 C 
BRANCH  10  11
ATOM     11  C   UNL     1      17.132  43.229  58.552  0.00  0.00    -0.028 A 
ATOM     12  C   UNL     1      16.309  43.477  57.443  0.00  0.00    +0.005 A 
ATOM     13  C   UNL     1      17.587  41.920  58.772  0.00  0.00    +0.005 A 
ATOM     14  C   UNL     1      15.973  42.445  56.564  0.00  0.00    +0.000 A 
ATOM     15  C   UNL     1      17.248  40.892  57.893  0.00  0.00    +0.000 A 
ATOM     16  C   UNL     1      16.443  41.156  56.787  0.00  0.00    +0.000 A 
ENDBRANCH  10  11
ENDBRANCH   1  10
TORSDOF 2
ENDMDL
MODEL 8
REMARK VINA RESULT:    -3.166     61.893     63.794
REMARK INTER + INTRA:          -3.659
REMARK INTER:                  -3.534
REMARK INTRA:                  -0.125
REMARK UNBOUND:                -0.123
REMARK  Name = 1550473
REMARK  2 active torsions:
REMARK  status: ('A' for Active; 'I' for Inactive)
REMARK    1  A    between atoms: N_1  and  C_4
REMARK    2  A    between atoms: C_4  and  C_5
REMARK                            x       y       z     vdW  Elec       q    Type
REMARK                         _______ _______ _______ _____ _____    ______ ____
ROOT
ATOM      1  N   UNL     1      17.922  43.524  62.829  0.00  0.00    -0.354 N 
ATOM      2  N   UNL     1      17.997  44.872  64.711  0.00  0.00    -0.372 N 
ATOM      3  N   UNL     1      19.502  43.150  64.520  0.00  0.00    -0.372 N 
ATOM      4  C   UNL     1      18.475  43.838  64.008  0.00  0.00    +0.166 C 
ATOM      5  H   UNL     1      17.127  44.065  62.511  0.00  0.00    +0.163 HD
ATOM      6  H   UNL     1      18.396  45.135  65.602  0.00  0.00    +0.159 HD
ATOM      7  H   UNL     1      17.232  45.440  64.369  0.00  0.00    +0.159 HD
ATOM      8  H   UNL     1      19.905  42.355  64.042  0.00  0.00    +0.159 HD
ATOM      9  H   UNL     1      19.907  43.391  65.415  0.00  0.00    +0.159 HD
ENDROOT
BRANCH   1  10
ATOM     10  C   UNL     1      18.402  42.450  61.961  0.00  0.00    +0.151 C 
BRANCH  10  11
ATOM     11  C   UNL     1      17.884  42.676  60.568  0.00  0.00    -0.028 A 
ATOM     12  C   UNL     1      17.460  43.951  60.164  0.00  0.00    +0.005 A 
ATOM     13  C   UNL     1      17.821  41.622  59.644  0.00  0.00    +0.005 A 
ATOM     14  C   UNL     1      17.007  44.168  58.861  0.00  0.00    +0.000 A 
ATOM     15  C   UNL     1      17.367  41.843  58.344  0.00  0.00    +0.000 A 
ATOM     16  C   UNL     1      16.962  43.116  57.952  0.00  0.00    +0.000 A 
ENDBRANCH  10  11
ENDBRANCH   1  10
TORSDOF 2
ENDMDL
MODEL 9
REMARK VINA RESULT:    -3.100     22.712     23.999
REMARK INTER + INTRA:          -3.585
REMARK INTER:                  -3.428
REMARK INTRA:                  -0.157
REMARK UNBOUND:                -0.123
REMARK  Name = 1550473
REMARK  2 active torsions:
REMARK  status: ('A' for Active; 'I' for Inactive)
REMARK    1  A    between atoms: N_1  and  C_4
REMARK    2  A    between atoms: C_4  and  C_5
REMARK                            x       y       z     vdW  Elec       q    Type
REMARK                         _______ _______ _______ _____ _____    ______ ____
ROOT
ATOM      1  N   UNL     1      -3.638   7.143 -14.583  0.00  0.00    -0.354 N 
ATOM      2  N   UNL     1      -2.770   5.411 -15.852  0.00  0.00    -0.372 N 
ATOM      3  N   UNL     1      -1.323   6.836 -14.783  0.00  0.00    -0.372 N 
ATOM      4  C   UNL     1      -2.580   6.476 -15.064  0.00  0.00    +0.166 C 
ATOM      5  H   UNL     1      -4.564   6.838 -14.857  0.00  0.00    +0.163 HD
ATOM      6  H   UNL     1      -1.991   4.886 -16.227  0.00  0.00    +0.159 HD
ATOM      7  H   UNL     1      -3.698   5.081 -16.088  0.00  0.00    +0.159 HD
ATOM      8  H   UNL     1      -1.112   7.634 -14.199  0.00  0.00    +0.159 HD
ATOM      9  H   UNL     1      -0.530   6.330 -15.158  0.00  0.00    +0.159 HD
ENDROOT
BRANCH   1  10
ATOM     10  C   UNL     1      -3.541   8.283 -13.673  0.00  0.00    +0.151 C 
BRANCH  10  11
ATOM     11  C   UNL     1      -4.160   7.912 -12.353  0.00  0.00    -0.028 A 
ATOM     12  C   UNL     1      -3.538   6.976 -11.514  0.00  0.00    +0.005 A 
ATOM     13  C   UNL     1      -5.365   8.497 -11.935  0.00  0.00    +0.005 A 
ATOM     14  C   UNL     1      -4.097   6.653 -10.275  0.00  0.00    +0.000 A 
ATOM     15  C   UNL     1      -5.920   8.171 -10.697  0.00  0.00    +0.000 A 
ATOM     16  C   UNL     1      -5.285   7.251  -9.867  0.00  0.00    +0.000 A 
ENDBRANCH  10  11
ENDBRANCH   1  10
TORSDOF 2
ENDMDL
