MODEL 1
REMARK VINA RESULT:    -5.793      0.000      0.000
REMARK INTER + INTRA:          -6.600
REMARK INTER:                  -6.470
REMARK INTRA:                  -0.130
REMARK UNBOUND:                -0.130
REMARK  Name = 1550473
REMARK  2 active torsions:
REMARK  status: ('A' for Active; 'I' for Inactive)
REMARK    1  A    between atoms: N_1  and  C_4
REMARK    2  A    between atoms: C_4  and  C_5
REMARK                            x       y       z     vdW  Elec       q    Type
REMARK                         _______ _______ _______ _____ _____    ______ ____
ROOT
ATOM      1  N   UNL     1     -14.338   0.442  -1.823  0.00  0.00    -0.354 N 
ATOM      2  N   UNL     1     -15.025   2.625  -2.183  0.00  0.00    -0.372 N 
ATOM      3  N   UNL     1     -13.908   1.523  -3.858  0.00  0.00    -0.372 N 
ATOM      4  C   UNL     1     -14.418   1.515  -2.621  0.00  0.00    +0.166 C 
ATOM      5  H   UNL     1     -14.717   0.511  -0.886  0.00  0.00    +0.163 HD
ATOM      6  H   UNL     1     -15.103   3.449  -2.764  0.00  0.00    +0.159 HD
ATOM      7  H   UNL     1     -15.444   2.675  -1.262  0.00  0.00    +0.159 HD
ATOM      8  H   UNL     1     -13.432   0.720  -4.246  0.00  0.00    +0.159 HD
ATOM      9  H   UNL     1     -13.966   2.342  -4.450  0.00  0.00    +0.159 HD
ENDROOT
BRANCH   1  10
ATOM     10  C   UNL     1     -13.745  -0.832  -2.224  0.00  0.00    +0.151 C 
BRANCH  10  11
ATOM     11  C   UNL     1     -14.756  -1.928  -2.025  0.00  0.00    -0.028 A 
ATOM     12  C   UNL     1     -16.113  -1.621  -1.850  0.00  0.00    +0.005 A 
ATOM     13  C   UNL     1     -14.363  -3.275  -2.017  0.00  0.00    +0.005 A 
ATOM     14  C   UNL     1     -17.057  -2.640  -1.696  0.00  0.00    +0.000 A 
ATOM     15  C   UNL     1     -15.308  -4.289  -1.862  0.00  0.00    +0.000 A 
ATOM     16  C   UNL     1     -16.655  -3.971  -1.704  0.00  0.00    +0.000 A 
ENDBRANCH  10  11
ENDBRANCH   1  10
TORSDOF 2
ENDMDL
MODEL 2
REMARK VINA RESULT:    -5.511     24.663     26.558
REMARK INTER + INTRA:          -6.286
REMARK INTER:                  -6.155
REMARK INTRA:                  -0.131
REMARK UNBOUND:                -0.130
REMARK  Name = 1550473
REMARK  2 active torsions:
REMARK  status: ('A' for Active; 'I' for Inactive)
REMARK    1  A    between atoms: N_1  and  C_4
REMARK    2  A    between atoms: C_4  and  C_5
REMARK                            x       y       z     vdW  Elec       q    Type
REMARK                         _______ _______ _______ _____ _____    ______ ____
ROOT
ATOM      1  N   UNL     1       7.911   7.647  -2.903  0.00  0.00    -0.354 N 
ATOM      2  N   UNL     1       6.725   6.764  -1.120  0.00  0.00    -0.372 N 
ATOM      3  N   UNL     1       5.790   8.469  -2.338  0.00  0.00    -0.372 N 
ATOM      4  C   UNL     1       6.815   7.635  -2.133  0.00  0.00    +0.166 C 
ATOM      5  H   UNL     1       8.665   7.010  -2.677  0.00  0.00    +0.163 HD
ATOM      6  H   UNL     1       5.909   6.729  -0.524  0.00  0.00    +0.159 HD
ATOM      7  H   UNL     1       7.462   6.097  -0.925  0.00  0.00    +0.159 HD
ATOM      8  H   UNL     1       5.798   9.154  -3.082  0.00  0.00    +0.159 HD
ATOM      9  H   UNL     1       4.970   8.457  -1.745  0.00  0.00    +0.159 HD
ENDROOT
BRANCH   1  10
ATOM     10  C   UNL     1       8.085   8.519  -4.064  0.00  0.00    +0.151 C 
BRANCH  10  11
ATOM     11  C   UNL     1       9.499   9.030  -4.087  0.00  0.00    -0.028 A 
ATOM     12  C   UNL     1      10.261   8.962  -5.262  0.00  0.00    +0.005 A 
ATOM     13  C   UNL     1      10.080   9.589  -2.938  0.00  0.00    +0.005 A 
ATOM     14  C   UNL     1      11.565   9.463  -5.292  0.00  0.00    +0.000 A 
ATOM     15  C   UNL     1      11.382  10.088  -2.972  0.00  0.00    +0.000 A 
ATOM     16  C   UNL     1      12.123  10.027  -4.150  0.00  0.00    +0.000 A 
ENDBRANCH  10  11
ENDBRANCH   1  10
TORSDOF 2
ENDMDL
MODEL 3
REMARK VINA RESULT:    -5.209     21.234     22.630
REMARK INTER + INTRA:          -5.947
REMARK INTER:                  -5.821
REMARK INTRA:                  -0.127
REMARK UNBOUND:                -0.130
REMARK  Name = 1550473
REMARK  2 active torsions:
REMARK  status: ('A' for Active; 'I' for Inactive)
REMARK    1  A    between atoms: N_1  and  C_4
REMARK    2  A    between atoms: C_4  and  C_5
REMARK                            x       y       z     vdW  Elec       q    Type
REMARK                         _______ _______ _______ _____ _____    ______ ____
ROOT
ATOM      1  N   UNL     1      -6.083 -14.899  11.888  0.00  0.00    -0.354 N 
ATOM      2  N   UNL     1      -7.925 -13.500  11.996  0.00  0.00    -0.372 N 
ATOM      3  N   UNL     1      -7.136 -14.445  13.932  0.00  0.00    -0.372 N 
ATOM      4  C   UNL     1      -7.036 -14.291  12.607  0.00  0.00    +0.166 C 
ATOM      5  H   UNL     1      -6.079 -14.765  10.883  0.00  0.00    +0.163 HD
ATOM      6  H   UNL     1      -8.654 -13.025  12.513  0.00  0.00    +0.159 HD
ATOM      7  H   UNL     1      -7.892 -13.331  10.998  0.00  0.00    +0.159 HD
ATOM      8  H   UNL     1      -6.500 -15.034  14.452  0.00  0.00    +0.159 HD
ATOM      9  H   UNL     1      -7.865 -13.988  14.465  0.00  0.00    +0.159 HD
ENDROOT
BRANCH   1  10
ATOM     10  C   UNL     1      -5.034 -15.738  12.464  0.00  0.00    +0.151 C 
BRANCH  10  11
ATOM     11  C   UNL     1      -3.799 -15.635  11.612  0.00  0.00    -0.028 A 
ATOM     12  C   UNL     1      -3.468 -14.427  10.982  0.00  0.00    +0.005 A 
ATOM     13  C   UNL     1      -2.953 -16.741  11.436  0.00  0.00    +0.005 A 
ATOM     14  C   UNL     1      -2.305 -14.323  10.214  0.00  0.00    +0.000 A 
ATOM     15  C   UNL     1      -1.794 -16.633  10.668  0.00  0.00    +0.000 A 
ATOM     16  C   UNL     1      -1.469 -15.423  10.060  0.00  0.00    +0.000 A 
ENDBRANCH  10  11
ENDBRANCH   1  10
TORSDOF 2
ENDMDL
MODEL 4
REMARK VINA RESULT:    -5.153     21.707     23.655
REMARK INTER + INTRA:          -5.885
REMARK INTER:                  -5.740
REMARK INTRA:                  -0.145
REMARK UNBOUND:                -0.130
REMARK  Name = 1550473
REMARK  2 active torsions:
REMARK  status: ('A' for Active; 'I' for Inactive)
REMARK    1  A    between atoms: N_1  and  C_4
REMARK    2  A    between atoms: C_4  and  C_5
REMARK                            x       y       z     vdW  Elec       q    Type
REMARK                         _______ _______ _______ _____ _____    ______ ____
ROOT
ATOM      1  N   UNL     1       4.267   9.150  -4.004  0.00  0.00    -0.354 N 
ATOM      2  N   UNL     1       2.313   7.915  -4.149  0.00  0.00    -0.372 N 
ATOM      3  N   UNL     1       3.304   8.655  -6.082  0.00  0.00    -0.372 N 
ATOM      4  C   UNL     1       3.308   8.582  -4.747  0.00  0.00    +0.166 C 
ATOM      5  H   UNL     1       4.196   9.084  -2.995  0.00  0.00    +0.163 HD
ATOM      6  H   UNL     1       1.577   7.473  -4.684  0.00  0.00    +0.159 HD
ATOM      7  H   UNL     1       2.270   7.812  -3.143  0.00  0.00    +0.159 HD
ATOM      8  H   UNL     1       4.023   9.148  -6.594  0.00  0.00    +0.159 HD
ATOM      9  H   UNL     1       2.570   8.229  -6.634  0.00  0.00    +0.159 HD
ENDROOT
BRANCH   1  10
ATOM     10  C   UNL     1       5.422   9.853  -4.558  0.00  0.00    +0.151 C 
BRANCH  10  11
ATOM     11  C   UNL     1       6.679   9.275  -3.967  0.00  0.00    -0.028 A 
ATOM     12  C   UNL     1       6.611   8.365  -2.903  0.00  0.00    +0.005 A 
ATOM     13  C   UNL     1       7.940   9.631  -4.471  0.00  0.00    +0.005 A 
ATOM     14  C   UNL     1       7.777   7.805  -2.373  0.00  0.00    +0.000 A 
ATOM     15  C   UNL     1       9.101   9.071  -3.938  0.00  0.00    +0.000 A 
ATOM     16  C   UNL     1       9.019   8.156  -2.891  0.00  0.00    +0.000 A 
ENDBRANCH  10  11
ENDBRANCH   1  10
TORSDOF 2
ENDMDL
MODEL 5
REMARK VINA RESULT:    -5.151     19.268     20.689
REMARK INTER + INTRA:          -5.884
REMARK INTER:                  -5.766
REMARK INTRA:                  -0.118
REMARK UNBOUND:                -0.130
REMARK  Name = 1550473
REMARK  2 active torsions:
REMARK  status: ('A' for Active; 'I' for Inactive)
REMARK    1  A    between atoms: N_1  and  C_4
REMARK    2  A    between atoms: C_4  and  C_5
REMARK                            x       y       z     vdW  Elec       q    Type
REMARK                         _______ _______ _______ _____ _____    ______ ____
ROOT
ATOM      1  N   UNL     1      -2.672 -16.732  -3.988  0.00  0.00    -0.354 N 
ATOM      2  N   UNL     1      -2.363 -16.788  -1.693  0.00  0.00    -0.372 N 
ATOM      3  N   UNL     1      -3.481 -15.011  -2.618  0.00  0.00    -0.372 N 
ATOM      4  C   UNL     1      -2.842 -16.174  -2.782  0.00  0.00    +0.166 C 
ATOM      5  H   UNL     1      -2.153 -17.600  -4.048  0.00  0.00    +0.163 HD
ATOM      6  H   UNL     1      -2.479 -16.393  -0.770  0.00  0.00    +0.159 HD
ATOM      7  H   UNL     1      -1.884 -17.679  -1.751  0.00  0.00    +0.159 HD
ATOM      8  H   UNL     1      -3.860 -14.494  -3.400  0.00  0.00    +0.159 HD
ATOM      9  H   UNL     1      -3.596 -14.593  -1.703  0.00  0.00    +0.159 HD
ENDROOT
BRANCH   1  10
ATOM     10  C   UNL     1      -3.202 -16.172  -5.230  0.00  0.00    +0.151 C 
BRANCH  10  11
ATOM     11  C   UNL     1      -2.155 -16.282  -6.304  0.00  0.00    -0.028 A 
ATOM     12  C   UNL     1      -1.843 -15.178  -7.110  0.00  0.00    +0.005 A 
ATOM     13  C   UNL     1      -1.466 -17.486  -6.516  0.00  0.00    +0.005 A 
ATOM     14  C   UNL     1      -0.850 -15.271  -8.088  0.00  0.00    +0.000 A 
ATOM     15  C   UNL     1      -0.475 -17.575  -7.494  0.00  0.00    +0.000 A 
ATOM     16  C   UNL     1      -0.166 -16.467  -8.278  0.00  0.00    +0.000 A 
ENDBRANCH  10  11
ENDBRANCH   1  10
TORSDOF 2
ENDMDL
MODEL 6
REMARK VINA RESULT:    -4.952     19.465     20.733
REMARK INTER + INTRA:          -5.661
REMARK INTER:                  -5.547
REMARK INTRA:                  -0.114
REMARK UNBOUND:                -0.130
REMARK  Name = 1550473
REMARK  2 active torsions:
REMARK  status: ('A' for Active; 'I' for Inactive)
REMARK    1  A    between atoms: N_1  and  C_4
REMARK    2  A    between atoms: C_4  and  C_5
REMARK                            x       y       z     vdW  Elec       q    Type
REMARK                         _______ _______ _______ _____ _____    ______ ____
ROOT
ATOM      1  N   UNL     1       3.380   9.622  -4.822  0.00  0.00    -0.354 N 
ATOM      2  N   UNL     1       5.416  10.483  -4.129  0.00  0.00    -0.372 N 
ATOM      3  N   UNL     1       4.415   8.849  -2.866  0.00  0.00    -0.372 N 
ATOM      4  C   UNL     1       4.390   9.644  -3.941  0.00  0.00    +0.166 C 
ATOM      5  H   UNL     1       3.406  10.270  -5.600  0.00  0.00    +0.163 HD
ATOM      6  H   UNL     1       6.194  10.519  -3.484  0.00  0.00    +0.159 HD
ATOM      7  H   UNL     1       5.461  11.098  -4.933  0.00  0.00    +0.159 HD
ATOM      8  H   UNL     1       3.669   8.198  -2.664  0.00  0.00    +0.159 HD
ATOM      9  H   UNL     1       5.179   8.879  -2.202  0.00  0.00    +0.159 HD
ENDROOT
BRANCH   1  10
ATOM     10  C   UNL     1       2.242   8.708  -4.738  0.00  0.00    +0.151 C 
BRANCH  10  11
ATOM     11  C   UNL     1       1.635   8.553  -6.105  0.00  0.00    -0.028 A 
ATOM     12  C   UNL     1       2.434   8.203  -7.203  0.00  0.00    +0.005 A 
ATOM     13  C   UNL     1       0.260   8.750  -6.307  0.00  0.00    +0.005 A 
ATOM     14  C   UNL     1       1.865   8.030  -8.467  0.00  0.00    +0.000 A 
ATOM     15  C   UNL     1      -0.304   8.577  -7.571  0.00  0.00    +0.000 A 
ATOM     16  C   UNL     1       0.498   8.214  -8.650  0.00  0.00    +0.000 A 
ENDBRANCH  10  11
ENDBRANCH   1  10
TORSDOF 2
ENDMDL
MODEL 7
REMARK VINA RESULT:    -4.937      2.140      2.695
REMARK INTER + INTRA:          -5.645
REMARK INTER:                  -5.516
REMARK INTRA:                  -0.129
REMARK UNBOUND:                -0.130
REMARK  Name = 1550473
REMARK  2 active torsions:
REMARK  status: ('A' for Active; 'I' for Inactive)
REMARK    1  A    between atoms: N_1  and  C_4
REMARK    2  A    between atoms: C_4  and  C_5
REMARK                            x       y       z     vdW  Elec       q    Type
REMARK                         _______ _______ _______ _____ _____    ______ ____
ROOT
ATOM      1  N   UNL     1     -15.376   0.192  -2.289  0.00  0.00    -0.354 N 
ATOM      2  N   UNL     1     -14.754   2.244  -3.164  0.00  0.00    -0.372 N 
ATOM      3  N   UNL     1     -13.404   0.426  -3.533  0.00  0.00    -0.372 N 
ATOM      4  C   UNL     1     -14.513   0.939  -2.990  0.00  0.00    +0.166 C 
ATOM      5  H   UNL     1     -16.183   0.647  -1.877  0.00  0.00    +0.163 HD
ATOM      6  H   UNL     1     -14.123   2.832  -3.691  0.00  0.00    +0.159 HD
ATOM      7  H   UNL     1     -15.585   2.687  -2.790  0.00  0.00    +0.159 HD
ATOM      8  H   UNL     1     -13.162  -0.551  -3.433  0.00  0.00    +0.159 HD
ATOM      9  H   UNL     1     -12.754   1.001  -4.054  0.00  0.00    +0.159 HD
ENDROOT
BRANCH   1  10
ATOM     10  C   UNL     1     -15.234  -1.249  -2.087  0.00  0.00    +0.151 C 
BRANCH  10  11
ATOM     11  C   UNL     1     -15.707  -1.600  -0.703  0.00  0.00    -0.028 A 
ATOM     12  C   UNL     1     -15.293  -2.791  -0.090  0.00  0.00    +0.005 A 
ATOM     13  C   UNL     1     -16.565  -0.742   0.003  0.00  0.00    +0.005 A 
ATOM     14  C   UNL     1     -15.707  -3.103   1.207  0.00  0.00    +0.000 A 
ATOM     15  C   UNL     1     -16.977  -1.058   1.297  0.00  0.00    +0.000 A 
ATOM     16  C   UNL     1     -16.546  -2.237   1.900  0.00  0.00    +0.000 A 
ENDBRANCH  10  11
ENDBRANCH   1  10
TORSDOF 2
ENDMDL
MODEL 8
REMARK VINA RESULT:    -4.754     17.596     18.971
REMARK INTER + INTRA:          -5.440
REMARK INTER:                  -5.286
REMARK INTRA:                  -0.154
REMARK UNBOUND:                -0.130
REMARK  Name = 1550473
REMARK  2 active torsions:
REMARK  status: ('A' for Active; 'I' for Inactive)
REMARK    1  A    between atoms: N_1  and  C_4
REMARK    2  A    between atoms: C_4  and  C_5
REMARK                            x       y       z     vdW  Elec       q    Type
REMARK                         _______ _______ _______ _____ _____    ______ ____
ROOT
ATOM      1  N   UNL     1      -6.222 -18.144  -3.911  0.00  0.00    -0.354 N 
ATOM      2  N   UNL     1      -6.201 -18.292  -6.222  0.00  0.00    -0.372 N 
ATOM      3  N   UNL     1      -7.142 -16.445  -5.238  0.00  0.00    -0.372 N 
ATOM      4  C   UNL     1      -6.523 -17.624  -5.108  0.00  0.00    +0.166 C 
ATOM      5  H   UNL     1      -5.780 -19.055  -3.880  0.00  0.00    +0.163 HD
ATOM      6  H   UNL     1      -6.413 -17.923  -7.140  0.00  0.00    +0.159 HD
ATOM      7  H   UNL     1      -5.718 -19.182  -6.189  0.00  0.00    +0.159 HD
ATOM      8  H   UNL     1      -7.417 -15.894  -4.436  0.00  0.00    +0.159 HD
ATOM      9  H   UNL     1      -7.372 -16.065  -6.148  0.00  0.00    +0.159 HD
ENDROOT
BRANCH   1  10
ATOM     10  C   UNL     1      -6.481 -17.472  -2.639  0.00  0.00    +0.151 C 
BRANCH  10  11
ATOM     11  C   UNL     1      -5.249 -16.718  -2.222  0.00  0.00    -0.028 A 
ATOM     12  C   UNL     1      -3.973 -17.250  -2.461  0.00  0.00    +0.005 A 
ATOM     13  C   UNL     1      -5.349 -15.467  -1.594  0.00  0.00    +0.005 A 
ATOM     14  C   UNL     1      -2.828 -16.537  -2.101  0.00  0.00    +0.000 A 
ATOM     15  C   UNL     1      -4.203 -14.758  -1.235  0.00  0.00    +0.000 A 
ATOM     16  C   UNL     1      -2.943 -15.292  -1.491  0.00  0.00    +0.000 A 
ENDBRANCH  10  11
ENDBRANCH   1  10
TORSDOF 2
ENDMDL
MODEL 9
REMARK VINA RESULT:    -4.726     24.958     26.920
REMARK INTER + INTRA:          -5.409
REMARK INTER:                  -5.287
REMARK INTRA:                  -0.122
REMARK UNBOUND:                -0.130
REMARK  Name = 1550473
REMARK  2 active torsions:
REMARK  status: ('A' for Active; 'I' for Inactive)
REMARK    1  A    between atoms: N_1  and  C_4
REMARK    2  A    between atoms: C_4  and  C_5
REMARK                            x       y       z     vdW  Elec       q    Type
REMARK                         _______ _______ _______ _____ _____    ______ ____
ROOT
ATOM      1  N   UNL     1       7.421   9.814  -4.008  0.00  0.00    -0.354 N 
ATOM      2  N   UNL     1       5.267  10.607  -3.699  0.00  0.00    -0.372 N 
ATOM      3  N   UNL     1       5.840   8.574  -2.802  0.00  0.00    -0.372 N 
ATOM      4  C   UNL     1       6.190   9.657  -3.504  0.00  0.00    +0.166 C 
ATOM      5  H   UNL     1       7.615  10.644  -4.556  0.00  0.00    +0.163 HD
ATOM      6  H   UNL     1       4.331  10.518  -3.328  0.00  0.00    +0.159 HD
ATOM      7  H   UNL     1       5.477  11.457  -4.209  0.00  0.00    +0.159 HD
ATOM      8  H   UNL     1       6.488   7.819  -2.624  0.00  0.00    +0.159 HD
ATOM      9  H   UNL     1       4.904   8.462  -2.432  0.00  0.00    +0.159 HD
ENDROOT
BRANCH   1  10
ATOM     10  C   UNL     1       8.514   8.864  -3.806  0.00  0.00    +0.151 C 
BRANCH  10  11
ATOM     11  C   UNL     1       9.811   9.518  -4.196  0.00  0.00    -0.028 A 
ATOM     12  C   UNL     1      11.037   8.949  -3.820  0.00  0.00    +0.005 A 
ATOM     13  C   UNL     1       9.821  10.704  -4.946  0.00  0.00    +0.005 A 
ATOM     14  C   UNL     1      12.242   9.540  -4.208  0.00  0.00    +0.000 A 
ATOM     15  C   UNL     1      11.027  11.291  -5.330  0.00  0.00    +0.000 A 
ATOM     16  C   UNL     1      12.237  10.707  -4.963  0.00  0.00    +0.000 A 
ENDBRANCH  10  11
ENDBRANCH   1  10
TORSDOF 2
ENDMDL
