MODEL 1
REMARK VINA RESULT:    -5.333      0.000      0.000
REMARK INTER + INTRA:          -6.105
REMARK INTER:                  -5.957
REMARK INTRA:                  -0.148
REMARK UNBOUND:                -0.148
REMARK  Name = 1550473
REMARK  2 active torsions:
REMARK  status: ('A' for Active; 'I' for Inactive)
REMARK    1  A    between atoms: N_1  and  C_4
REMARK    2  A    between atoms: C_4  and  C_5
REMARK                            x       y       z     vdW  Elec       q    Type
REMARK                         _______ _______ _______ _____ _____    ______ ____
ROOT
ATOM      1  N   UNL     1      -7.319  -4.347  -9.240  0.00  0.00    -0.354 N 
ATOM      2  N   UNL     1      -5.549  -2.991  -9.864  0.00  0.00    -0.372 N 
ATOM      3  N   UNL     1      -7.104  -2.174  -8.389  0.00  0.00    -0.372 N 
ATOM      4  C   UNL     1      -6.670  -3.178  -9.159  0.00  0.00    +0.166 C 
ATOM      5  H   UNL     1      -6.955  -5.057  -9.865  0.00  0.00    +0.163 HD
ATOM      6  H   UNL     1      -5.035  -2.121  -9.821  0.00  0.00    +0.159 HD
ATOM      7  H   UNL     1      -5.162  -3.719 -10.453  0.00  0.00    +0.159 HD
ATOM      8  H   UNL     1      -7.948  -2.249  -7.836  0.00  0.00    +0.159 HD
ATOM      9  H   UNL     1      -6.611  -1.291  -8.341  0.00  0.00    +0.159 HD
ENDROOT
BRANCH   1  10
ATOM     10  C   UNL     1      -8.520  -4.671  -8.471  0.00  0.00    +0.151 C 
BRANCH  10  11
ATOM     11  C   UNL     1      -9.632  -5.020  -9.421  0.00  0.00    -0.028 A 
ATOM     12  C   UNL     1      -9.350  -5.368 -10.750  0.00  0.00    +0.005 A 
ATOM     13  C   UNL     1     -10.970  -5.009  -8.997  0.00  0.00    +0.005 A 
ATOM     14  C   UNL     1     -10.381  -5.722 -11.625  0.00  0.00    +0.000 A 
ATOM     15  C   UNL     1     -11.996  -5.361  -9.874  0.00  0.00    +0.000 A 
ATOM     16  C   UNL     1     -11.701  -5.720 -11.187  0.00  0.00    +0.000 A 
ENDBRANCH  10  11
ENDBRANCH   1  10
TORSDOF 2
ENDMDL
MODEL 2
REMARK VINA RESULT:    -5.318      1.721      2.852
REMARK INTER + INTRA:          -6.087
REMARK INTER:                  -5.918
REMARK INTRA:                  -0.169
REMARK UNBOUND:                -0.148
REMARK  Name = 1550473
REMARK  2 active torsions:
REMARK  status: ('A' for Active; 'I' for Inactive)
REMARK    1  A    between atoms: N_1  and  C_4
REMARK    2  A    between atoms: C_4  and  C_5
REMARK                            x       y       z     vdW  Elec       q    Type
REMARK                         _______ _______ _______ _____ _____    ______ ____
ROOT
ATOM      1  N   UNL     1      -9.889  -4.967  -7.919  0.00  0.00    -0.354 N 
ATOM      2  N   UNL     1      -8.260  -5.758  -6.475  0.00  0.00    -0.372 N 
ATOM      3  N   UNL     1      -7.615  -4.592  -8.344  0.00  0.00    -0.372 N 
ATOM      4  C   UNL     1      -8.597  -5.099  -7.591  0.00  0.00    +0.166 C 
ATOM      5  H   UNL     1     -10.584  -5.401  -7.322  0.00  0.00    +0.163 HD
ATOM      6  H   UNL     1      -7.293  -5.871  -6.200  0.00  0.00    +0.159 HD
ATOM      7  H   UNL     1      -8.958  -6.151  -5.856  0.00  0.00    +0.159 HD
ATOM      8  H   UNL     1      -7.803  -4.089  -9.201  0.00  0.00    +0.159 HD
ATOM      9  H   UNL     1      -6.641  -4.704  -8.091  0.00  0.00    +0.159 HD
ENDROOT
BRANCH   1  10
ATOM     10  C   UNL     1     -10.365  -4.222  -9.083  0.00  0.00    +0.151 C 
BRANCH  10  11
ATOM     11  C   UNL     1     -10.962  -5.186 -10.071  0.00  0.00    -0.028 A 
ATOM     12  C   UNL     1     -12.330  -5.494 -10.027  0.00  0.00    +0.005 A 
ATOM     13  C   UNL     1     -10.168  -5.788 -11.058  0.00  0.00    +0.005 A 
ATOM     14  C   UNL     1     -12.891  -6.366 -10.964  0.00  0.00    +0.000 A 
ATOM     15  C   UNL     1     -10.732  -6.659 -11.991  0.00  0.00    +0.000 A 
ATOM     16  C   UNL     1     -12.094  -6.945 -11.945  0.00  0.00    +0.000 A 
ENDBRANCH  10  11
ENDBRANCH   1  10
TORSDOF 2
ENDMDL
MODEL 3
REMARK VINA RESULT:    -5.004     32.461     35.099
REMARK INTER + INTRA:          -5.737
REMARK INTER:                  -5.587
REMARK INTRA:                  -0.151
REMARK UNBOUND:                -0.148
REMARK  Name = 1550473
REMARK  2 active torsions:
REMARK  status: ('A' for Active; 'I' for Inactive)
REMARK    1  A    between atoms: N_1  and  C_4
REMARK    2  A    between atoms: C_4  and  C_5
REMARK                            x       y       z     vdW  Elec       q    Type
REMARK                         _______ _______ _______ _____ _____    ______ ____
ROOT
ATOM      1  N   UNL     1      15.315   3.565  11.278  0.00  0.00    -0.354 N 
ATOM      2  N   UNL     1      13.162   3.948  10.515  0.00  0.00    -0.372 N 
ATOM      3  N   UNL     1      14.632   5.707  10.617  0.00  0.00    -0.372 N 
ATOM      4  C   UNL     1      14.385   4.407  10.808  0.00  0.00    +0.166 C 
ATOM      5  H   UNL     1      15.055   2.597  11.430  0.00  0.00    +0.163 HD
ATOM      6  H   UNL     1      12.441   4.559  10.155  0.00  0.00    +0.159 HD
ATOM      7  H   UNL     1      12.919   2.971  10.624  0.00  0.00    +0.159 HD
ATOM      8  H   UNL     1      15.533   6.117  10.824  0.00  0.00    +0.159 HD
ATOM      9  H   UNL     1      13.920   6.336  10.269  0.00  0.00    +0.159 HD
ENDROOT
BRANCH   1  10
ATOM     10  C   UNL     1      16.692   3.952  11.578  0.00  0.00    +0.151 C 
BRANCH  10  11
ATOM     11  C   UNL     1      16.957   3.733  13.042  0.00  0.00    -0.028 A 
ATOM     12  C   UNL     1      17.983   2.873  13.459  0.00  0.00    +0.005 A 
ATOM     13  C   UNL     1      16.189   4.388  14.017  0.00  0.00    +0.005 A 
ATOM     14  C   UNL     1      18.248   2.692  14.819  0.00  0.00    +0.000 A 
ATOM     15  C   UNL     1      16.457   4.205  15.374  0.00  0.00    +0.000 A 
ATOM     16  C   UNL     1      17.488   3.359  15.774  0.00  0.00    +0.000 A 
ENDBRANCH  10  11
ENDBRANCH   1  10
TORSDOF 2
ENDMDL
MODEL 4
REMARK VINA RESULT:    -4.902     32.624     35.248
REMARK INTER + INTRA:          -5.624
REMARK INTER:                  -5.462
REMARK INTRA:                  -0.161
REMARK UNBOUND:                -0.148
REMARK  Name = 1550473
REMARK  2 active torsions:
REMARK  status: ('A' for Active; 'I' for Inactive)
REMARK    1  A    between atoms: N_1  and  C_4
REMARK    2  A    between atoms: C_4  and  C_5
REMARK                            x       y       z     vdW  Elec       q    Type
REMARK                         _______ _______ _______ _____ _____    ______ ____
ROOT
ATOM      1  N   UNL     1      15.671   5.224  11.586  0.00  0.00    -0.354 N 
ATOM      2  N   UNL     1      14.049   5.087   9.939  0.00  0.00    -0.372 N 
ATOM      3  N   UNL     1      13.747   3.922  11.893  0.00  0.00    -0.372 N 
ATOM      4  C   UNL     1      14.498   4.743  11.152  0.00  0.00    +0.166 C 
ATOM      5  H   UNL     1      16.208   5.818  10.965  0.00  0.00    +0.163 HD
ATOM      6  H   UNL     1      13.166   4.742   9.586  0.00  0.00    +0.159 HD
ATOM      7  H   UNL     1      14.566   5.717   9.338  0.00  0.00    +0.159 HD
ATOM      8  H   UNL     1      14.032   3.620  12.815  0.00  0.00    +0.159 HD
ATOM      9  H   UNL     1      12.866   3.558  11.552  0.00  0.00    +0.159 HD
ENDROOT
BRANCH   1  10
ATOM     10  C   UNL     1      16.224   4.954  12.912  0.00  0.00    +0.151 C 
BRANCH  10  11
ATOM     11  C   UNL     1      17.484   4.146  12.764  0.00  0.00    -0.028 A 
ATOM     12  C   UNL     1      17.426   2.810  12.341  0.00  0.00    +0.005 A 
ATOM     13  C   UNL     1      18.738   4.712  13.039  0.00  0.00    +0.005 A 
ATOM     14  C   UNL     1      18.598   2.067  12.174  0.00  0.00    +0.000 A 
ATOM     15  C   UNL     1      19.905   3.967  12.872  0.00  0.00    +0.000 A 
ATOM     16  C   UNL     1      19.835   2.646  12.437  0.00  0.00    +0.000 A 
ENDBRANCH  10  11
ENDBRANCH   1  10
TORSDOF 2
ENDMDL
MODEL 5
REMARK VINA RESULT:    -4.794      3.146      5.077
REMARK INTER + INTRA:          -5.502
REMARK INTER:                  -5.391
REMARK INTRA:                  -0.111
REMARK UNBOUND:                -0.148
REMARK  Name = 1550473
REMARK  2 active torsions:
REMARK  status: ('A' for Active; 'I' for Inactive)
REMARK    1  A    between atoms: N_1  and  C_4
REMARK    2  A    between atoms: C_4  and  C_5
REMARK                            x       y       z     vdW  Elec       q    Type
REMARK                         _______ _______ _______ _____ _____    ______ ____
ROOT
ATOM      1  N   UNL     1     -10.312  -5.690 -11.609  0.00  0.00    -0.354 N 
ATOM      2  N   UNL     1     -11.751  -7.351 -12.340  0.00  0.00    -0.372 N 
ATOM      3  N   UNL     1     -12.485  -5.869 -10.749  0.00  0.00    -0.372 N 
ATOM      4  C   UNL     1     -11.508  -6.291 -11.559  0.00  0.00    +0.166 C 
ATOM      5  H   UNL     1      -9.604  -6.077 -12.222  0.00  0.00    +0.163 HD
ATOM      6  H   UNL     1     -12.645  -7.823 -12.327  0.00  0.00    +0.159 HD
ATOM      7  H   UNL     1     -11.057  -7.707 -12.986  0.00  0.00    +0.159 HD
ATOM      8  H   UNL     1     -12.363  -5.079 -10.130  0.00  0.00    +0.159 HD
ATOM      9  H   UNL     1     -13.382  -6.336 -10.713  0.00  0.00    +0.159 HD
ENDROOT
BRANCH   1  10
ATOM     10  C   UNL     1      -9.964  -4.497 -10.839  0.00  0.00    +0.151 C 
BRANCH  10  11
ATOM     11  C   UNL     1      -8.468  -4.411 -10.716  0.00  0.00    -0.028 A 
ATOM     12  C   UNL     1      -7.644  -4.732 -11.805  0.00  0.00    +0.005 A 
ATOM     13  C   UNL     1      -7.868  -4.003  -9.515  0.00  0.00    +0.005 A 
ATOM     14  C   UNL     1      -6.256  -4.624 -11.701  0.00  0.00    +0.000 A 
ATOM     15  C   UNL     1      -6.481  -3.896  -9.415  0.00  0.00    +0.000 A 
ATOM     16  C   UNL     1      -5.675  -4.205 -10.508  0.00  0.00    +0.000 A 
ENDBRANCH  10  11
ENDBRANCH   1  10
TORSDOF 2
ENDMDL
MODEL 6
REMARK VINA RESULT:    -4.743     27.277     27.866
REMARK INTER + INTRA:          -5.445
REMARK INTER:                  -5.288
REMARK INTRA:                  -0.157
REMARK UNBOUND:                -0.148
REMARK  Name = 1550473
REMARK  2 active torsions:
REMARK  status: ('A' for Active; 'I' for Inactive)
REMARK    1  A    between atoms: N_1  and  C_4
REMARK    2  A    between atoms: C_4  and  C_5
REMARK                            x       y       z     vdW  Elec       q    Type
REMARK                         _______ _______ _______ _____ _____    ______ ____
ROOT
ATOM      1  N   UNL     1      -4.315   1.093  17.632  0.00  0.00    -0.354 N 
ATOM      2  N   UNL     1      -3.617   2.392  15.847  0.00  0.00    -0.372 N 
ATOM      3  N   UNL     1      -2.364   0.565  16.446  0.00  0.00    -0.372 N 
ATOM      4  C   UNL     1      -3.435   1.340  16.654  0.00  0.00    +0.166 C 
ATOM      5  H   UNL     1      -5.090   1.735  17.756  0.00  0.00    +0.163 HD
ATOM      6  H   UNL     1      -2.971   2.602  15.098  0.00  0.00    +0.159 HD
ATOM      7  H   UNL     1      -4.416   3.006  15.945  0.00  0.00    +0.159 HD
ATOM      8  H   UNL     1      -2.167  -0.241  17.023  0.00  0.00    +0.159 HD
ATOM      9  H   UNL     1      -1.700   0.766  15.709  0.00  0.00    +0.159 HD
ENDROOT
BRANCH   1  10
ATOM     10  C   UNL     1      -4.238  -0.058  18.531  0.00  0.00    +0.151 C 
BRANCH  10  11
ATOM     11  C   UNL     1      -5.365  -1.003  18.217  0.00  0.00    -0.028 A 
ATOM     12  C   UNL     1      -5.098  -2.306  17.771  0.00  0.00    +0.005 A 
ATOM     13  C   UNL     1      -6.701  -0.604  18.369  0.00  0.00    +0.005 A 
ATOM     14  C   UNL     1      -6.144  -3.194  17.508  0.00  0.00    +0.000 A 
ATOM     15  C   UNL     1      -7.743  -1.493  18.105  0.00  0.00    +0.000 A 
ATOM     16  C   UNL     1      -7.464  -2.789  17.677  0.00  0.00    +0.000 A 
ENDBRANCH  10  11
ENDBRANCH   1  10
TORSDOF 2
ENDMDL
MODEL 7
REMARK VINA RESULT:    -4.658      1.910      2.777
REMARK INTER + INTRA:          -5.350
REMARK INTER:                  -5.184
REMARK INTRA:                  -0.166
REMARK UNBOUND:                -0.148
REMARK  Name = 1550473
REMARK  2 active torsions:
REMARK  status: ('A' for Active; 'I' for Inactive)
REMARK    1  A    between atoms: N_1  and  C_4
REMARK    2  A    between atoms: C_4  and  C_5
REMARK                            x       y       z     vdW  Elec       q    Type
REMARK                         _______ _______ _______ _____ _____    ______ ____
ROOT
ATOM      1  N   UNL     1      -6.940  -1.840  -9.492  0.00  0.00    -0.354 N 
ATOM      2  N   UNL     1      -5.470  -1.555 -11.259  0.00  0.00    -0.372 N 
ATOM      3  N   UNL     1      -7.527  -0.541 -11.352  0.00  0.00    -0.372 N 
ATOM      4  C   UNL     1      -6.658  -1.312 -10.690  0.00  0.00    +0.166 C 
ATOM      5  H   UNL     1      -6.250  -2.441  -9.056  0.00  0.00    +0.163 HD
ATOM      6  H   UNL     1      -5.228  -1.167 -12.161  0.00  0.00    +0.159 HD
ATOM      7  H   UNL     1      -4.765  -2.118 -10.800  0.00  0.00    +0.159 HD
ATOM      8  H   UNL     1      -8.442  -0.325 -10.980  0.00  0.00    +0.159 HD
ATOM      9  H   UNL     1      -7.307  -0.154 -12.261  0.00  0.00    +0.159 HD
ENDROOT
BRANCH   1  10
ATOM     10  C   UNL     1      -8.183  -1.594  -8.763  0.00  0.00    +0.151 C 
BRANCH  10  11
ATOM     11  C   UNL     1      -9.071  -2.801  -8.884  0.00  0.00    -0.028 A 
ATOM     12  C   UNL     1     -10.449  -2.653  -9.102  0.00  0.00    +0.005 A 
ATOM     13  C   UNL     1      -8.541  -4.097  -8.789  0.00  0.00    +0.005 A 
ATOM     14  C   UNL     1     -11.270  -3.774  -9.245  0.00  0.00    +0.000 A 
ATOM     15  C   UNL     1      -9.364  -5.214  -8.931  0.00  0.00    +0.000 A 
ATOM     16  C   UNL     1     -10.728  -5.052  -9.162  0.00  0.00    +0.000 A 
ENDBRANCH  10  11
ENDBRANCH   1  10
TORSDOF 2
ENDMDL
MODEL 8
REMARK VINA RESULT:    -4.641     12.613     13.527
REMARK INTER + INTRA:          -5.332
REMARK INTER:                  -5.194
REMARK INTRA:                  -0.138
REMARK UNBOUND:                -0.148
REMARK  Name = 1550473
REMARK  2 active torsions:
REMARK  status: ('A' for Active; 'I' for Inactive)
REMARK    1  A    between atoms: N_1  and  C_4
REMARK    2  A    between atoms: C_4  and  C_5
REMARK                            x       y       z     vdW  Elec       q    Type
REMARK                         _______ _______ _______ _____ _____    ______ ____
ROOT
ATOM      1  N   UNL     1     -10.238 -15.685  -4.510  0.00  0.00    -0.354 N 
ATOM      2  N   UNL     1      -8.462 -15.050  -5.854  0.00  0.00    -0.372 N 
ATOM      3  N   UNL     1      -8.270 -16.954  -4.589  0.00  0.00    -0.372 N 
ATOM      4  C   UNL     1      -9.000 -15.903  -4.974  0.00  0.00    +0.166 C 
ATOM      5  H   UNL     1     -10.728 -14.853  -4.818  0.00  0.00    +0.163 HD
ATOM      6  H   UNL     1      -7.531 -15.190  -6.225  0.00  0.00    +0.159 HD
ATOM      7  H   UNL     1      -8.971 -14.244  -6.196  0.00  0.00    +0.159 HD
ATOM      8  H   UNL     1      -8.616 -17.632  -3.923  0.00  0.00    +0.159 HD
ATOM      9  H   UNL     1      -7.332 -17.106  -4.940  0.00  0.00    +0.159 HD
ENDROOT
BRANCH   1  10
ATOM     10  C   UNL     1     -10.936 -16.581  -3.591  0.00  0.00    +0.151 C 
BRANCH  10  11
ATOM     11  C   UNL     1     -11.423 -15.790  -2.408  0.00  0.00    -0.028 A 
ATOM     12  C   UNL     1     -12.747 -15.332  -2.355  0.00  0.00    +0.005 A 
ATOM     13  C   UNL     1     -10.566 -15.501  -1.335  0.00  0.00    +0.005 A 
ATOM     14  C   UNL     1     -13.209 -14.623  -1.243  0.00  0.00    +0.000 A 
ATOM     15  C   UNL     1     -11.030 -14.792  -0.227  0.00  0.00    +0.000 A 
ATOM     16  C   UNL     1     -12.352 -14.355  -0.180  0.00  0.00    +0.000 A 
ENDBRANCH  10  11
ENDBRANCH   1  10
TORSDOF 2
ENDMDL
MODEL 9
REMARK VINA RESULT:    -4.538      3.531      5.453
REMARK INTER + INTRA:          -5.216
REMARK INTER:                  -5.101
REMARK INTRA:                  -0.115
REMARK UNBOUND:                -0.148
REMARK  Name = 1550473
REMARK  2 active torsions:
REMARK  status: ('A' for Active; 'I' for Inactive)
REMARK    1  A    between atoms: N_1  and  C_4
REMARK    2  A    between atoms: C_4  and  C_5
REMARK                            x       y       z     vdW  Elec       q    Type
REMARK                         _______ _______ _______ _____ _____    ______ ____
ROOT
ATOM      1  N   UNL     1     -12.021  -5.126 -11.061  0.00  0.00    -0.354 N 
ATOM      2  N   UNL     1     -14.331  -5.218 -10.912  0.00  0.00    -0.372 N 
ATOM      3  N   UNL     1     -13.257  -6.614 -12.384  0.00  0.00    -0.372 N 
ATOM      4  C   UNL     1     -13.188  -5.654 -11.456  0.00  0.00    +0.166 C 
ATOM      5  H   UNL     1     -12.038  -4.380 -10.375  0.00  0.00    +0.163 HD
ATOM      6  H   UNL     1     -15.226  -5.600 -11.188  0.00  0.00    +0.159 HD
ATOM      7  H   UNL     1     -14.341  -4.505 -10.194  0.00  0.00    +0.159 HD
ATOM      8  H   UNL     1     -12.432  -6.982 -12.837  0.00  0.00    +0.159 HD
ATOM      9  H   UNL     1     -14.145  -7.000 -12.681  0.00  0.00    +0.159 HD
ENDROOT
BRANCH   1  10
ATOM     10  C   UNL     1     -10.717  -5.568 -11.551  0.00  0.00    +0.151 C 
BRANCH  10  11
ATOM     11  C   UNL     1      -9.650  -5.092 -10.604  0.00  0.00    -0.028 A 
ATOM     12  C   UNL     1      -9.815  -5.230  -9.218  0.00  0.00    +0.005 A 
ATOM     13  C   UNL     1      -8.469  -4.507 -11.087  0.00  0.00    +0.005 A 
ATOM     14  C   UNL     1      -8.811  -4.816  -8.339  0.00  0.00    +0.000 A 
ATOM     15  C   UNL     1      -7.469  -4.093 -10.206  0.00  0.00    +0.000 A 
ATOM     16  C   UNL     1      -7.640  -4.250  -8.832  0.00  0.00    +0.000 A 
ENDBRANCH  10  11
ENDBRANCH   1  10
TORSDOF 2
ENDMDL
