MODEL 1
REMARK VINA RESULT:    -4.555      0.000      0.000
REMARK INTER + INTRA:          -5.212
REMARK INTER:                  -5.088
REMARK INTRA:                  -0.124
REMARK UNBOUND:                -0.124
REMARK  Name = 1550473
REMARK  2 active torsions:
REMARK  status: ('A' for Active; 'I' for Inactive)
REMARK    1  A    between atoms: N_1  and  C_4
REMARK    2  A    between atoms: C_4  and  C_5
REMARK                            x       y       z     vdW  Elec       q    Type
REMARK                         _______ _______ _______ _____ _____    ______ ____
ROOT
ATOM      1  N   UNL     1      -2.094  -7.489  -1.307  0.00  0.00    -0.354 N 
ATOM      2  N   UNL     1      -2.107  -5.324  -0.486  0.00  0.00    -0.372 N 
ATOM      3  N   UNL     1      -2.122  -5.648  -2.757  0.00  0.00    -0.372 N 
ATOM      4  C   UNL     1      -2.107  -6.167  -1.525  0.00  0.00    +0.166 C 
ATOM      5  H   UNL     1      -2.053  -7.819  -0.350  0.00  0.00    +0.163 HD
ATOM      6  H   UNL     1      -2.120  -4.321  -0.619  0.00  0.00    +0.159 HD
ATOM      7  H   UNL     1      -2.112  -5.656   0.471  0.00  0.00    +0.159 HD
ATOM      8  H   UNL     1      -2.117  -6.231  -3.584  0.00  0.00    +0.159 HD
ATOM      9  H   UNL     1      -2.124  -4.648  -2.911  0.00  0.00    +0.159 HD
ENDROOT
BRANCH   1  10
ATOM     10  C   UNL     1      -2.147  -8.493  -2.368  0.00  0.00    +0.151 C 
BRANCH  10  11
ATOM     11  C   UNL     1      -1.109  -9.547  -2.100  0.00  0.00    -0.028 A 
ATOM     12  C   UNL     1      -0.920 -10.046  -0.803  0.00  0.00    +0.005 A 
ATOM     13  C   UNL     1      -0.314 -10.055  -3.139  0.00  0.00    +0.005 A 
ATOM     14  C   UNL     1       0.024 -11.047  -0.558  0.00  0.00    +0.000 A 
ATOM     15  C   UNL     1       0.627 -11.053  -2.891  0.00  0.00    +0.000 A 
ATOM     16  C   UNL     1       0.795 -11.551  -1.600  0.00  0.00    +0.000 A 
ENDBRANCH  10  11
ENDBRANCH   1  10
TORSDOF 2
ENDMDL
MODEL 2
REMARK VINA RESULT:    -4.468     17.292     18.791
REMARK INTER + INTRA:          -5.115
REMARK INTER:                  -4.979
REMARK INTRA:                  -0.136
REMARK UNBOUND:                -0.124
REMARK  Name = 1550473
REMARK  2 active torsions:
REMARK  status: ('A' for Active; 'I' for Inactive)
REMARK    1  A    between atoms: N_1  and  C_4
REMARK    2  A    between atoms: C_4  and  C_5
REMARK                            x       y       z     vdW  Elec       q    Type
REMARK                         _______ _______ _______ _____ _____    ______ ____
ROOT
ATOM      1  N   UNL     1     -11.145  -6.875 -15.038  0.00  0.00    -0.354 N 
ATOM      2  N   UNL     1      -9.750  -6.662 -13.201  0.00  0.00    -0.372 N 
ATOM      3  N   UNL     1     -11.983  -6.192 -12.959  0.00  0.00    -0.372 N 
ATOM      4  C   UNL     1     -10.971  -6.577 -13.744  0.00  0.00    +0.166 C 
ATOM      5  H   UNL     1     -10.332  -7.131 -15.586  0.00  0.00    +0.163 HD
ATOM      6  H   UNL     1      -9.589  -6.447 -12.227  0.00  0.00    +0.159 HD
ATOM      7  H   UNL     1      -8.947  -6.963 -13.740  0.00  0.00    +0.159 HD
ATOM      8  H   UNL     1     -12.927  -6.102 -13.309  0.00  0.00    +0.159 HD
ATOM      9  H   UNL     1     -11.839  -5.961 -11.984  0.00  0.00    +0.159 HD
ENDROOT
BRANCH   1  10
ATOM     10  C   UNL     1     -12.442  -6.866 -15.712  0.00  0.00    +0.151 C 
BRANCH  10  11
ATOM     11  C   UNL     1     -12.308  -6.144 -17.025  0.00  0.00    -0.028 A 
ATOM     12  C   UNL     1     -12.645  -6.783 -18.227  0.00  0.00    +0.005 A 
ATOM     13  C   UNL     1     -11.851  -4.818 -17.072  0.00  0.00    +0.005 A 
ATOM     14  C   UNL     1     -12.549  -6.103 -19.443  0.00  0.00    +0.000 A 
ATOM     15  C   UNL     1     -11.756  -4.142 -18.289  0.00  0.00    +0.000 A 
ATOM     16  C   UNL     1     -12.108  -4.784 -19.474  0.00  0.00    +0.000 A 
ENDBRANCH  10  11
ENDBRANCH   1  10
TORSDOF 2
ENDMDL
MODEL 3
REMARK VINA RESULT:    -4.273      3.396      4.776
REMARK INTER + INTRA:          -4.897
REMARK INTER:                  -4.781
REMARK INTRA:                  -0.116
REMARK UNBOUND:                -0.124
REMARK  Name = 1550473
REMARK  2 active torsions:
REMARK  status: ('A' for Active; 'I' for Inactive)
REMARK    1  A    between atoms: N_1  and  C_4
REMARK    2  A    between atoms: C_4  and  C_5
REMARK                            x       y       z     vdW  Elec       q    Type
REMARK                         _______ _______ _______ _____ _____    ______ ____
ROOT
ATOM      1  N   UNL     1      -1.892  -4.245   1.435  0.00  0.00    -0.354 N 
ATOM      2  N   UNL     1      -3.043  -2.799   2.830  0.00  0.00    -0.372 N 
ATOM      3  N   UNL     1      -1.955  -4.597   3.751  0.00  0.00    -0.372 N 
ATOM      4  C   UNL     1      -2.288  -3.892   2.664  0.00  0.00    +0.166 C 
ATOM      5  H   UNL     1      -2.203  -3.685   0.649  0.00  0.00    +0.163 HD
ATOM      6  H   UNL     1      -3.355  -2.506   3.746  0.00  0.00    +0.159 HD
ATOM      7  H   UNL     1      -3.315  -2.216   2.048  0.00  0.00    +0.159 HD
ATOM      8  H   UNL     1      -1.392  -5.435   3.693  0.00  0.00    +0.159 HD
ATOM      9  H   UNL     1      -2.266  -4.326   4.675  0.00  0.00    +0.159 HD
ENDROOT
BRANCH   1  10
ATOM     10  C   UNL     1      -1.023  -5.386   1.152  0.00  0.00    +0.151 C 
BRANCH  10  11
ATOM     11  C   UNL     1      -1.593  -6.163  -0.003  0.00  0.00    -0.028 A 
ATOM     12  C   UNL     1      -1.956  -7.509   0.154  0.00  0.00    +0.005 A 
ATOM     13  C   UNL     1      -1.779  -5.557  -1.255  0.00  0.00    +0.005 A 
ATOM     14  C   UNL     1      -2.513  -8.222  -0.910  0.00  0.00    +0.000 A 
ATOM     15  C   UNL     1      -2.335  -6.273  -2.315  0.00  0.00    +0.000 A 
ATOM     16  C   UNL     1      -2.704  -7.605  -2.141  0.00  0.00    +0.000 A 
ENDBRANCH  10  11
ENDBRANCH   1  10
TORSDOF 2
ENDMDL
MODEL 4
REMARK VINA RESULT:    -4.250     16.165     17.246
REMARK INTER + INTRA:          -4.871
REMARK INTER:                  -4.761
REMARK INTRA:                  -0.110
REMARK UNBOUND:                -0.124
REMARK  Name = 1550473
REMARK  2 active torsions:
REMARK  status: ('A' for Active; 'I' for Inactive)
REMARK    1  A    between atoms: N_1  and  C_4
REMARK    2  A    between atoms: C_4  and  C_5
REMARK                            x       y       z     vdW  Elec       q    Type
REMARK                         _______ _______ _______ _____ _____    ______ ____
ROOT
ATOM      1  N   UNL     1      -9.200  -4.092 -15.911  0.00  0.00    -0.354 N 
ATOM      2  N   UNL     1      -8.238  -1.988 -16.025  0.00  0.00    -0.372 N 
ATOM      3  N   UNL     1      -8.338  -3.266 -17.928  0.00  0.00    -0.372 N 
ATOM      4  C   UNL     1      -8.598  -3.130 -16.623  0.00  0.00    +0.166 C 
ATOM      5  H   UNL     1      -9.341  -3.939 -14.919  0.00  0.00    +0.163 HD
ATOM      6  H   UNL     1      -7.785  -1.243 -16.537  0.00  0.00    +0.159 HD
ATOM      7  H   UNL     1      -8.422  -1.820 -15.043  0.00  0.00    +0.159 HD
ATOM      8  H   UNL     1      -8.579  -4.106 -18.437  0.00  0.00    +0.159 HD
ATOM      9  H   UNL     1      -7.875  -2.536 -18.455  0.00  0.00    +0.159 HD
ENDROOT
BRANCH   1  10
ATOM     10  C   UNL     1      -9.680  -5.350 -16.479  0.00  0.00    +0.151 C 
BRANCH  10  11
ATOM     11  C   UNL     1     -10.677  -5.966 -15.536  0.00  0.00    -0.028 A 
ATOM     12  C   UNL     1     -10.448  -5.958 -14.153  0.00  0.00    +0.005 A 
ATOM     13  C   UNL     1     -11.856  -6.553 -16.020  0.00  0.00    +0.005 A 
ATOM     14  C   UNL     1     -11.388  -6.503 -13.275  0.00  0.00    +0.000 A 
ATOM     15  C   UNL     1     -12.792  -7.097 -15.140  0.00  0.00    +0.000 A 
ATOM     16  C   UNL     1     -12.558  -7.069 -13.767  0.00  0.00    +0.000 A 
ENDBRANCH  10  11
ENDBRANCH   1  10
TORSDOF 2
ENDMDL
MODEL 5
REMARK VINA RESULT:    -4.186     15.160     16.295
REMARK INTER + INTRA:          -4.800
REMARK INTER:                  -4.677
REMARK INTRA:                  -0.122
REMARK UNBOUND:                -0.124
REMARK  Name = 1550473
REMARK  2 active torsions:
REMARK  status: ('A' for Active; 'I' for Inactive)
REMARK    1  A    between atoms: N_1  and  C_4
REMARK    2  A    between atoms: C_4  and  C_5
REMARK                            x       y       z     vdW  Elec       q    Type
REMARK                         _______ _______ _______ _____ _____    ______ ____
ROOT
ATOM      1  N   UNL     1       0.029   3.595   7.071  0.00  0.00    -0.354 N 
ATOM      2  N   UNL     1       2.226   2.862   7.089  0.00  0.00    -0.372 N 
ATOM      3  N   UNL     1       0.693   1.802   8.427  0.00  0.00    -0.372 N 
ATOM      4  C   UNL     1       0.967   2.756   7.531  0.00  0.00    +0.166 C 
ATOM      5  H   UNL     1       0.308   4.316   6.415  0.00  0.00    +0.163 HD
ATOM      6  H   UNL     1       2.955   2.242   7.415  0.00  0.00    +0.159 HD
ATOM      7  H   UNL     1       2.492   3.554   6.399  0.00  0.00    +0.159 HD
ATOM      8  H   UNL     1      -0.236   1.674   8.805  0.00  0.00    +0.159 HD
ATOM      9  H   UNL     1       1.411   1.179   8.775  0.00  0.00    +0.159 HD
ENDROOT
BRANCH   1  10
ATOM     10  C   UNL     1      -1.382   3.529   7.448  0.00  0.00    +0.151 C 
BRANCH  10  11
ATOM     11  C   UNL     1      -2.151   4.545   6.649  0.00  0.00    -0.028 A 
ATOM     12  C   UNL     1      -3.466   4.882   7.004  0.00  0.00    +0.005 A 
ATOM     13  C   UNL     1      -1.569   5.179   5.541  0.00  0.00    +0.005 A 
ATOM     14  C   UNL     1      -4.170   5.848   6.281  0.00  0.00    +0.000 A 
ATOM     15  C   UNL     1      -2.276   6.142   4.821  0.00  0.00    +0.000 A 
ATOM     16  C   UNL     1      -3.575   6.478   5.193  0.00  0.00    +0.000 A 
ENDBRANCH  10  11
ENDBRANCH   1  10
TORSDOF 2
ENDMDL
MODEL 6
REMARK VINA RESULT:    -4.040     23.236     24.851
REMARK INTER + INTRA:          -4.636
REMARK INTER:                  -4.503
REMARK INTRA:                  -0.133
REMARK UNBOUND:                -0.124
REMARK  Name = 1550473
REMARK  2 active torsions:
REMARK  status: ('A' for Active; 'I' for Inactive)
REMARK    1  A    between atoms: N_1  and  C_4
REMARK    2  A    between atoms: C_4  and  C_5
REMARK                            x       y       z     vdW  Elec       q    Type
REMARK                         _______ _______ _______ _____ _____    ______ ____
ROOT
ATOM      1  N   UNL     1       6.861  13.912  -4.786  0.00  0.00    -0.354 N 
ATOM      2  N   UNL     1       5.024  12.552  -4.410  0.00  0.00    -0.372 N 
ATOM      3  N   UNL     1       5.911  13.730  -2.652  0.00  0.00    -0.372 N 
ATOM      4  C   UNL     1       5.944  13.407  -3.949  0.00  0.00    +0.166 C 
ATOM      5  H   UNL     1       6.851  13.605  -5.752  0.00  0.00    +0.163 HD
ATOM      6  H   UNL     1       4.318  12.157  -3.803  0.00  0.00    +0.159 HD
ATOM      7  H   UNL     1       4.989  12.282  -5.386  0.00  0.00    +0.159 HD
ATOM      8  H   UNL     1       6.580  14.365  -2.240  0.00  0.00    +0.159 HD
ATOM      9  H   UNL     1       5.219  13.336  -2.026  0.00  0.00    +0.159 HD
ENDROOT
BRANCH   1  10
ATOM     10  C   UNL     1       7.872  14.893  -4.396  0.00  0.00    +0.151 C 
BRANCH  10  11
ATOM     11  C   UNL     1       9.235  14.354  -4.736  0.00  0.00    -0.028 A 
ATOM     12  C   UNL     1      10.076  13.859  -3.728  0.00  0.00    +0.005 A 
ATOM     13  C   UNL     1       9.688  14.331  -6.064  0.00  0.00    +0.005 A 
ATOM     14  C   UNL     1      11.329  13.331  -4.047  0.00  0.00    +0.000 A 
ATOM     15  C   UNL     1      10.941  13.804  -6.377  0.00  0.00    +0.000 A 
ATOM     16  C   UNL     1      11.760  13.302  -5.369  0.00  0.00    +0.000 A 
ENDBRANCH  10  11
ENDBRANCH   1  10
TORSDOF 2
ENDMDL
MODEL 7
REMARK VINA RESULT:    -4.017     22.448     23.345
REMARK INTER + INTRA:          -4.611
REMARK INTER:                  -4.486
REMARK INTRA:                  -0.125
REMARK UNBOUND:                -0.124
REMARK  Name = 1550473
REMARK  2 active torsions:
REMARK  status: ('A' for Active; 'I' for Inactive)
REMARK    1  A    between atoms: N_1  and  C_4
REMARK    2  A    between atoms: C_4  and  C_5
REMARK                            x       y       z     vdW  Elec       q    Type
REMARK                         _______ _______ _______ _____ _____    ______ ____
ROOT
ATOM      1  N   UNL     1      15.643   2.428   5.700  0.00  0.00    -0.354 N 
ATOM      2  N   UNL     1      15.008   0.380   4.825  0.00  0.00    -0.372 N 
ATOM      3  N   UNL     1      15.977   1.929   3.435  0.00  0.00    -0.372 N 
ATOM      4  C   UNL     1      15.548   1.594   4.657  0.00  0.00    +0.166 C 
ATOM      5  H   UNL     1      15.272   2.126   6.594  0.00  0.00    +0.163 HD
ATOM      6  H   UNL     1      14.926  -0.272   4.056  0.00  0.00    +0.159 HD
ATOM      7  H   UNL     1      14.680   0.064   5.729  0.00  0.00    +0.159 HD
ATOM      8  H   UNL     1      16.388   2.832   3.241  0.00  0.00    +0.159 HD
ATOM      9  H   UNL     1      15.892   1.294   2.651  0.00  0.00    +0.159 HD
ENDROOT
BRANCH   1  10
ATOM     10  C   UNL     1      16.263   3.751   5.636  0.00  0.00    +0.151 C 
BRANCH  10  11
ATOM     11  C   UNL     1      16.666   4.172   7.022  0.00  0.00    -0.028 A 
ATOM     12  C   UNL     1      17.465   5.309   7.216  0.00  0.00    +0.005 A 
ATOM     13  C   UNL     1      16.248   3.443   8.146  0.00  0.00    +0.005 A 
ATOM     14  C   UNL     1      17.815   5.718   8.506  0.00  0.00    +0.000 A 
ATOM     15  C   UNL     1      16.601   3.854   9.431  0.00  0.00    +0.000 A 
ATOM     16  C   UNL     1      17.382   4.993   9.611  0.00  0.00    +0.000 A 
ENDBRANCH  10  11
ENDBRANCH   1  10
TORSDOF 2
ENDMDL
MODEL 8
REMARK VINA RESULT:    -4.010     21.825     23.081
REMARK INTER + INTRA:          -4.603
REMARK INTER:                  -4.470
REMARK INTRA:                  -0.133
REMARK UNBOUND:                -0.124
REMARK  Name = 1550473
REMARK  2 active torsions:
REMARK  status: ('A' for Active; 'I' for Inactive)
REMARK    1  A    between atoms: N_1  and  C_4
REMARK    2  A    between atoms: C_4  and  C_5
REMARK                            x       y       z     vdW  Elec       q    Type
REMARK                         _______ _______ _______ _____ _____    ______ ____
ROOT
ATOM      1  N   UNL     1     -19.529 -12.154 -15.818  0.00  0.00    -0.354 N 
ATOM      2  N   UNL     1     -21.516 -13.292 -16.164  0.00  0.00    -0.372 N 
ATOM      3  N   UNL     1     -19.691 -14.454 -15.399  0.00  0.00    -0.372 N 
ATOM      4  C   UNL     1     -20.231 -13.295 -15.790  0.00  0.00    +0.166 C 
ATOM      5  H   UNL     1     -19.987 -11.315 -16.154  0.00  0.00    +0.163 HD
ATOM      6  H   UNL     1     -22.072 -14.136 -16.150  0.00  0.00    +0.159 HD
ATOM      7  H   UNL     1     -21.984 -12.442 -16.455  0.00  0.00    +0.159 HD
ATOM      8  H   UNL     1     -18.724 -14.524 -15.111  0.00  0.00    +0.159 HD
ATOM      9  H   UNL     1     -20.228 -15.312 -15.390  0.00  0.00    +0.159 HD
ENDROOT
BRANCH   1  10
ATOM     10  C   UNL     1     -18.138 -12.039 -15.381  0.00  0.00    +0.151 C 
BRANCH  10  11
ATOM     11  C   UNL     1     -17.448 -10.991 -16.210  0.00  0.00    -0.028 A 
ATOM     12  C   UNL     1     -18.112 -10.382 -17.285  0.00  0.00    +0.005 A 
ATOM     13  C   UNL     1     -16.132 -10.598 -15.921  0.00  0.00    +0.005 A 
ATOM     14  C   UNL     1     -17.482  -9.388 -18.037  0.00  0.00    +0.000 A 
ATOM     15  C   UNL     1     -15.506  -9.604 -16.674  0.00  0.00    +0.000 A 
ATOM     16  C   UNL     1     -16.182  -8.998 -17.730  0.00  0.00    +0.000 A 
ENDBRANCH  10  11
ENDBRANCH   1  10
TORSDOF 2
ENDMDL
MODEL 9
REMARK VINA RESULT:    -3.897      2.168      3.406
REMARK INTER + INTRA:          -4.477
REMARK INTER:                  -4.329
REMARK INTRA:                  -0.148
REMARK UNBOUND:                -0.124
REMARK  Name = 1550473
REMARK  2 active torsions:
REMARK  status: ('A' for Active; 'I' for Inactive)
REMARK    1  A    between atoms: N_1  and  C_4
REMARK    2  A    between atoms: C_4  and  C_5
REMARK                            x       y       z     vdW  Elec       q    Type
REMARK                         _______ _______ _______ _____ _____    ______ ____
ROOT
ATOM      1  N   UNL     1      -2.290  -6.411   1.265  0.00  0.00    -0.354 N 
ATOM      2  N   UNL     1      -1.854  -4.157   1.576  0.00  0.00    -0.372 N 
ATOM      3  N   UNL     1      -0.180  -5.675   1.972  0.00  0.00    -0.372 N 
ATOM      4  C   UNL     1      -1.442  -5.430   1.603  0.00  0.00    +0.166 C 
ATOM      5  H   UNL     1      -3.242  -6.162   1.023  0.00  0.00    +0.163 HD
ATOM      6  H   UNL     1      -1.236  -3.396   1.823  0.00  0.00    +0.159 HD
ATOM      7  H   UNL     1      -2.793  -3.908   1.290  0.00  0.00    +0.159 HD
ATOM      8  H   UNL     1       0.191  -6.615   2.019  0.00  0.00    +0.159 HD
ATOM      9  H   UNL     1       0.450  -4.928   2.234  0.00  0.00    +0.159 HD
ENDROOT
BRANCH   1  10
ATOM     10  C   UNL     1      -1.924  -7.825   1.209  0.00  0.00    +0.151 C 
BRANCH  10  11
ATOM     11  C   UNL     1      -1.927  -8.278  -0.225  0.00  0.00    -0.028 A 
ATOM     12  C   UNL     1      -2.607  -7.538  -1.203  0.00  0.00    +0.005 A 
ATOM     13  C   UNL     1      -1.246  -9.442  -0.612  0.00  0.00    +0.005 A 
ATOM     14  C   UNL     1      -2.584  -7.941  -2.541  0.00  0.00    +0.000 A 
ATOM     15  C   UNL     1      -1.227  -9.842  -1.948  0.00  0.00    +0.000 A 
ATOM     16  C   UNL     1      -1.894  -9.090  -2.913  0.00  0.00    +0.000 A 
ENDBRANCH  10  11
ENDBRANCH   1  10
TORSDOF 2
ENDMDL
