MODEL 1
REMARK VINA RESULT:    -6.549      0.000      0.000
REMARK INTER + INTRA:          -7.450
REMARK INTER:                  -7.314
REMARK INTRA:                  -0.136
REMARK UNBOUND:                -0.136
REMARK  Name = 1550473
REMARK  2 active torsions:
REMARK  status: ('A' for Active; 'I' for Inactive)
REMARK    1  A    between atoms: N_1  and  C_4
REMARK    2  A    between atoms: C_4  and  C_5
REMARK                            x       y       z     vdW  Elec       q    Type
REMARK                         _______ _______ _______ _____ _____    ______ ____
ROOT
ATOM      1  N   UNL     1      11.762  -9.426   3.273  0.00  0.00    -0.354 N 
ATOM      2  N   UNL     1      14.033  -8.996   3.116  0.00  0.00    -0.372 N 
ATOM      3  N   UNL     1      13.064 -10.412   1.592  0.00  0.00    -0.372 N 
ATOM      4  C   UNL     1      12.938  -9.616   2.659  0.00  0.00    +0.166 C 
ATOM      5  H   UNL     1      11.739  -8.834   4.095  0.00  0.00    +0.163 HD
ATOM      6  H   UNL     1      14.933  -9.117   2.671  0.00  0.00    +0.159 HD
ATOM      7  H   UNL     1      13.998  -8.369   3.910  0.00  0.00    +0.159 HD
ATOM      8  H   UNL     1      12.277 -10.913   1.201  0.00  0.00    +0.159 HD
ATOM      9  H   UNL     1      13.959 -10.555   1.140  0.00  0.00    +0.159 HD
ENDROOT
BRANCH   1  10
ATOM     10  C   UNL     1      10.501 -10.012   2.823  0.00  0.00    +0.151 C 
BRANCH  10  11
ATOM     11  C   UNL     1       9.399  -9.005   3.007  0.00  0.00    -0.028 A 
ATOM     12  C   UNL     1       8.056  -9.388   2.877  0.00  0.00    +0.005 A 
ATOM     13  C   UNL     1       9.691  -7.668   3.318  0.00  0.00    +0.005 A 
ATOM     14  C   UNL     1       7.031  -8.461   3.078  0.00  0.00    +0.000 A 
ATOM     15  C   UNL     1       8.664  -6.745   3.516  0.00  0.00    +0.000 A 
ATOM     16  C   UNL     1       7.335  -7.142   3.399  0.00  0.00    +0.000 A 
ENDBRANCH  10  11
ENDBRANCH   1  10
TORSDOF 2
ENDMDL
MODEL 2
REMARK VINA RESULT:    -6.500      6.893      8.283
REMARK INTER + INTRA:          -7.396
REMARK INTER:                  -7.273
REMARK INTRA:                  -0.123
REMARK UNBOUND:                -0.136
REMARK  Name = 1550473
REMARK  2 active torsions:
REMARK  status: ('A' for Active; 'I' for Inactive)
REMARK    1  A    between atoms: N_1  and  C_4
REMARK    2  A    between atoms: C_4  and  C_5
REMARK                            x       y       z     vdW  Elec       q    Type
REMARK                         _______ _______ _______ _____ _____    ______ ____
ROOT
ATOM      1  N   UNL     1       7.270  -2.851   1.761  0.00  0.00    -0.354 N 
ATOM      2  N   UNL     1       8.376  -3.985   3.451  0.00  0.00    -0.372 N 
ATOM      3  N   UNL     1       9.110  -1.895   2.854  0.00  0.00    -0.372 N 
ATOM      4  C   UNL     1       8.247  -2.901   2.677  0.00  0.00    +0.166 C 
ATOM      5  H   UNL     1       6.667  -3.659   1.656  0.00  0.00    +0.163 HD
ATOM      6  H   UNL     1       9.101  -4.050   4.153  0.00  0.00    +0.159 HD
ATOM      7  H   UNL     1       7.743  -4.772   3.375  0.00  0.00    +0.159 HD
ATOM      8  H   UNL     1       9.070  -1.051   2.298  0.00  0.00    +0.159 HD
ATOM      9  H   UNL     1       9.849  -1.946   3.543  0.00  0.00    +0.159 HD
ENDROOT
BRANCH   1  10
ATOM     10  C   UNL     1       7.010  -1.694   0.905  0.00  0.00    +0.151 C 
BRANCH  10  11
ATOM     11  C   UNL     1       5.815  -1.983   0.040  0.00  0.00    -0.028 A 
ATOM     12  C   UNL     1       5.181  -3.233   0.094  0.00  0.00    +0.005 A 
ATOM     13  C   UNL     1       5.307  -1.009  -0.834  0.00  0.00    +0.005 A 
ATOM     14  C   UNL     1       4.053  -3.492  -0.687  0.00  0.00    +0.000 A 
ATOM     15  C   UNL     1       4.181  -1.271  -1.613  0.00  0.00    +0.000 A 
ATOM     16  C   UNL     1       3.553  -2.511  -1.538  0.00  0.00    +0.000 A 
ENDBRANCH  10  11
ENDBRANCH   1  10
TORSDOF 2
ENDMDL
MODEL 3
REMARK VINA RESULT:    -6.438      2.698      3.550
REMARK INTER + INTRA:          -7.327
REMARK INTER:                  -7.188
REMARK INTRA:                  -0.139
REMARK UNBOUND:                -0.136
REMARK  Name = 1550473
REMARK  2 active torsions:
REMARK  status: ('A' for Active; 'I' for Inactive)
REMARK    1  A    between atoms: N_1  and  C_4
REMARK    2  A    between atoms: C_4  and  C_5
REMARK                            x       y       z     vdW  Elec       q    Type
REMARK                         _______ _______ _______ _____ _____    ______ ____
ROOT
ATOM      1  N   UNL     1       9.887  -6.791   2.485  0.00  0.00    -0.354 N 
ATOM      2  N   UNL     1      10.981  -4.754   2.356  0.00  0.00    -0.372 N 
ATOM      3  N   UNL     1      11.017  -5.908   4.339  0.00  0.00    -0.372 N 
ATOM      4  C   UNL     1      10.621  -5.832   3.064  0.00  0.00    +0.166 C 
ATOM      5  H   UNL     1       9.593  -6.659   1.524  0.00  0.00    +0.163 HD
ATOM      6  H   UNL     1      11.538  -4.016   2.765  0.00  0.00    +0.159 HD
ATOM      7  H   UNL     1      10.725  -4.646   1.382  0.00  0.00    +0.159 HD
ATOM      8  H   UNL     1      10.773  -6.693   4.929  0.00  0.00    +0.159 HD
ATOM      9  H   UNL     1      11.565  -5.174   4.769  0.00  0.00    +0.159 HD
ENDROOT
BRANCH   1  10
ATOM     10  C   UNL     1       9.488  -8.029   3.152  0.00  0.00    +0.151 C 
BRANCH  10  11
ATOM     11  C   UNL     1       7.993  -8.171   3.072  0.00  0.00    -0.028 A 
ATOM     12  C   UNL     1       7.163  -7.050   3.218  0.00  0.00    +0.005 A 
ATOM     13  C   UNL     1       7.400  -9.422   2.844  0.00  0.00    +0.005 A 
ATOM     14  C   UNL     1       5.775  -7.175   3.113  0.00  0.00    +0.000 A 
ATOM     15  C   UNL     1       6.014  -9.544   2.741  0.00  0.00    +0.000 A 
ATOM     16  C   UNL     1       5.203  -8.420   2.874  0.00  0.00    +0.000 A 
ENDBRANCH  10  11
ENDBRANCH   1  10
TORSDOF 2
ENDMDL
MODEL 4
REMARK VINA RESULT:    -6.438      4.443      5.845
REMARK INTER + INTRA:          -7.327
REMARK INTER:                  -7.226
REMARK INTRA:                  -0.101
REMARK UNBOUND:                -0.136
REMARK  Name = 1550473
REMARK  2 active torsions:
REMARK  status: ('A' for Active; 'I' for Inactive)
REMARK    1  A    between atoms: N_1  and  C_4
REMARK    2  A    between atoms: C_4  and  C_5
REMARK                            x       y       z     vdW  Elec       q    Type
REMARK                         _______ _______ _______ _____ _____    ______ ____
ROOT
ATOM      1  N   UNL     1       7.694  -3.817   2.719  0.00  0.00    -0.354 N 
ATOM      2  N   UNL     1       7.771  -2.015   1.267  0.00  0.00    -0.372 N 
ATOM      3  N   UNL     1       9.175  -2.038   3.082  0.00  0.00    -0.372 N 
ATOM      4  C   UNL     1       8.215  -2.634   2.368  0.00  0.00    +0.166 C 
ATOM      5  H   UNL     1       6.947  -4.202   2.152  0.00  0.00    +0.163 HD
ATOM      6  H   UNL     1       8.147  -1.123   0.975  0.00  0.00    +0.159 HD
ATOM      7  H   UNL     1       7.057  -2.423   0.677  0.00  0.00    +0.159 HD
ATOM      8  H   UNL     1       9.549  -2.450   3.926  0.00  0.00    +0.159 HD
ATOM      9  H   UNL     1       9.556  -1.139   2.812  0.00  0.00    +0.159 HD
ENDROOT
BRANCH   1  10
ATOM     10  C   UNL     1       8.144  -4.599   3.869  0.00  0.00    +0.151 C 
BRANCH  10  11
ATOM     11  C   UNL     1       7.955  -6.062   3.573  0.00  0.00    -0.028 A 
ATOM     12  C   UNL     1       9.062  -6.919   3.486  0.00  0.00    +0.005 A 
ATOM     13  C   UNL     1       6.672  -6.597   3.384  0.00  0.00    +0.005 A 
ATOM     14  C   UNL     1       8.885  -8.283   3.241  0.00  0.00    +0.000 A 
ATOM     15  C   UNL     1       6.499  -7.959   3.139  0.00  0.00    +0.000 A 
ATOM     16  C   UNL     1       7.606  -8.802   3.069  0.00  0.00    +0.000 A 
ENDBRANCH  10  11
ENDBRANCH   1  10
TORSDOF 2
ENDMDL
MODEL 5
REMARK VINA RESULT:    -6.041      1.466      2.173
REMARK INTER + INTRA:          -6.884
REMARK INTER:                  -6.779
REMARK INTRA:                  -0.105
REMARK UNBOUND:                -0.136
REMARK  Name = 1550473
REMARK  2 active torsions:
REMARK  status: ('A' for Active; 'I' for Inactive)
REMARK    1  A    between atoms: N_1  and  C_4
REMARK    2  A    between atoms: C_4  and  C_5
REMARK                            x       y       z     vdW  Elec       q    Type
REMARK                         _______ _______ _______ _____ _____    ______ ____
ROOT
ATOM      1  N   UNL     1      12.791  -9.182   4.481  0.00  0.00    -0.354 N 
ATOM      2  N   UNL     1      14.394  -8.607   6.050  0.00  0.00    -0.372 N 
ATOM      3  N   UNL     1      15.063  -9.101   3.912  0.00  0.00    -0.372 N 
ATOM      4  C   UNL     1      14.074  -8.968   4.802  0.00  0.00    +0.166 C 
ATOM      5  H   UNL     1      12.091  -9.094   5.209  0.00  0.00    +0.163 HD
ATOM      6  H   UNL     1      15.353  -8.435   6.321  0.00  0.00    +0.159 HD
ATOM      7  H   UNL     1      13.688  -8.475   6.764  0.00  0.00    +0.159 HD
ATOM      8  H   UNL     1      14.888  -9.376   2.954  0.00  0.00    +0.159 HD
ATOM      9  H   UNL     1      16.030  -8.944   4.166  0.00  0.00    +0.159 HD
ENDROOT
BRANCH   1  10
ATOM     10  C   UNL     1      12.331  -9.526   3.136  0.00  0.00    +0.151 C 
BRANCH  10  11
ATOM     11  C   UNL     1      10.839  -9.350   3.068  0.00  0.00    -0.028 A 
ATOM     12  C   UNL     1      10.008 -10.435   2.755  0.00  0.00    +0.005 A 
ATOM     13  C   UNL     1      10.250  -8.101   3.320  0.00  0.00    +0.005 A 
ATOM     14  C   UNL     1       8.620 -10.279   2.721  0.00  0.00    +0.000 A 
ATOM     15  C   UNL     1       8.864  -7.949   3.283  0.00  0.00    +0.000 A 
ATOM     16  C   UNL     1       8.049  -9.039   2.986  0.00  0.00    +0.000 A 
ENDBRANCH  10  11
ENDBRANCH   1  10
TORSDOF 2
ENDMDL
MODEL 6
REMARK VINA RESULT:    -5.620      4.594      5.863
REMARK INTER + INTRA:          -6.413
REMARK INTER:                  -6.270
REMARK INTRA:                  -0.143
REMARK UNBOUND:                -0.136
REMARK  Name = 1550473
REMARK  2 active torsions:
REMARK  status: ('A' for Active; 'I' for Inactive)
REMARK    1  A    between atoms: N_1  and  C_4
REMARK    2  A    between atoms: C_4  and  C_5
REMARK                            x       y       z     vdW  Elec       q    Type
REMARK                         _______ _______ _______ _____ _____    ______ ____
ROOT
ATOM      1  N   UNL     1       5.745  -9.644  -0.026  0.00  0.00    -0.354 N 
ATOM      2  N   UNL     1       5.700  -9.385  -2.327  0.00  0.00    -0.372 N 
ATOM      3  N   UNL     1       3.964  -8.547  -1.082  0.00  0.00    -0.372 N 
ATOM      4  C   UNL     1       5.134  -9.192  -1.129  0.00  0.00    +0.166 C 
ATOM      5  H   UNL     1       6.616 -10.152  -0.131  0.00  0.00    +0.163 HD
ATOM      6  H   UNL     1       5.264  -9.053  -3.177  0.00  0.00    +0.159 HD
ATOM      7  H   UNL     1       6.593  -9.853  -2.426  0.00  0.00    +0.159 HD
ATOM      8  H   UNL     1       3.482  -8.375  -0.210  0.00  0.00    +0.159 HD
ATOM      9  H   UNL     1       3.506  -8.217  -1.923  0.00  0.00    +0.159 HD
ENDROOT
BRANCH   1  10
ATOM     10  C   UNL     1       5.240  -9.439   1.331  0.00  0.00    +0.151 C 
BRANCH  10  11
ATOM     11  C   UNL     1       6.232  -8.615   2.105  0.00  0.00    -0.028 A 
ATOM     12  C   UNL     1       7.507  -9.121   2.394  0.00  0.00    +0.005 A 
ATOM     13  C   UNL     1       5.903  -7.324   2.547  0.00  0.00    +0.005 A 
ATOM     14  C   UNL     1       8.439  -8.345   3.087  0.00  0.00    +0.000 A 
ATOM     15  C   UNL     1       6.836  -6.552   3.239  0.00  0.00    +0.000 A 
ATOM     16  C   UNL     1       8.104  -7.062   3.507  0.00  0.00    +0.000 A 
ENDBRANCH  10  11
ENDBRANCH   1  10
TORSDOF 2
ENDMDL
MODEL 7
REMARK VINA RESULT:    -5.583     29.174     30.383
REMARK INTER + INTRA:          -6.371
REMARK INTER:                  -6.236
REMARK INTRA:                  -0.135
REMARK UNBOUND:                -0.136
REMARK  Name = 1550473
REMARK  2 active torsions:
REMARK  status: ('A' for Active; 'I' for Inactive)
REMARK    1  A    between atoms: N_1  and  C_4
REMARK    2  A    between atoms: C_4  and  C_5
REMARK                            x       y       z     vdW  Elec       q    Type
REMARK                         _______ _______ _______ _____ _____    ______ ____
ROOT
ATOM      1  N   UNL     1     -10.292  -3.105 -18.002  0.00  0.00    -0.354 N 
ATOM      2  N   UNL     1      -8.421  -2.842 -19.342  0.00  0.00    -0.372 N 
ATOM      3  N   UNL     1      -8.134  -3.214 -17.096  0.00  0.00    -0.372 N 
ATOM      4  C   UNL     1      -8.960  -3.056 -18.135  0.00  0.00    +0.166 C 
ATOM      5  H   UNL     1     -10.864  -2.947 -18.824  0.00  0.00    +0.163 HD
ATOM      6  H   UNL     1      -7.420  -2.803 -19.474  0.00  0.00    +0.159 HD
ATOM      7  H   UNL     1      -8.995  -2.730 -20.169  0.00  0.00    +0.159 HD
ATOM      8  H   UNL     1      -8.477  -3.373 -16.158  0.00  0.00    +0.159 HD
ATOM      9  H   UNL     1      -7.128  -3.167 -17.206  0.00  0.00    +0.159 HD
ENDROOT
BRANCH   1  10
ATOM     10  C   UNL     1     -10.978  -3.386 -16.742  0.00  0.00    +0.151 C 
BRANCH  10  11
ATOM     11  C   UNL     1     -12.210  -2.528 -16.651  0.00  0.00    -0.028 A 
ATOM     12  C   UNL     1     -12.620  -1.754 -17.747  0.00  0.00    +0.005 A 
ATOM     13  C   UNL     1     -12.974  -2.489 -15.475  0.00  0.00    +0.005 A 
ATOM     14  C   UNL     1     -13.781  -0.980 -17.673  0.00  0.00    +0.000 A 
ATOM     15  C   UNL     1     -14.132  -1.715 -15.405  0.00  0.00    +0.000 A 
ATOM     16  C   UNL     1     -14.536  -0.962 -16.505  0.00  0.00    +0.000 A 
ENDBRANCH  10  11
ENDBRANCH   1  10
TORSDOF 2
ENDMDL
MODEL 8
REMARK VINA RESULT:    -5.246     29.390     30.617
REMARK INTER + INTRA:          -5.995
REMARK INTER:                  -5.830
REMARK INTRA:                  -0.165
REMARK UNBOUND:                -0.136
REMARK  Name = 1550473
REMARK  2 active torsions:
REMARK  status: ('A' for Active; 'I' for Inactive)
REMARK    1  A    between atoms: N_1  and  C_4
REMARK    2  A    between atoms: C_4  and  C_5
REMARK                            x       y       z     vdW  Elec       q    Type
REMARK                         _______ _______ _______ _____ _____    ______ ____
ROOT
ATOM      1  N   UNL     1     -10.709  -2.612 -16.030  0.00  0.00    -0.354 N 
ATOM      2  N   UNL     1      -8.567  -1.861 -16.493  0.00  0.00    -0.372 N 
ATOM      3  N   UNL     1      -9.745  -2.939 -18.141  0.00  0.00    -0.372 N 
ATOM      4  C   UNL     1      -9.688  -2.477 -16.888  0.00  0.00    +0.166 C 
ATOM      5  H   UNL     1     -10.592  -2.266 -15.085  0.00  0.00    +0.163 HD
ATOM      6  H   UNL     1      -7.782  -1.741 -17.119  0.00  0.00    +0.159 HD
ATOM      7  H   UNL     1      -8.470  -1.476 -15.561  0.00  0.00    +0.159 HD
ATOM      8  H   UNL     1     -10.560  -3.418 -18.499  0.00  0.00    +0.159 HD
ATOM      9  H   UNL     1      -8.965  -2.839 -18.779  0.00  0.00    +0.159 HD
ENDROOT
BRANCH   1  10
ATOM     10  C   UNL     1     -11.993  -3.218 -16.377  0.00  0.00    +0.151 C 
BRANCH  10  11
ATOM     11  C   UNL     1     -13.052  -2.151 -16.394  0.00  0.00    -0.028 A 
ATOM     12  C   UNL     1     -13.955  -2.027 -15.328  0.00  0.00    +0.005 A 
ATOM     13  C   UNL     1     -13.153  -1.256 -17.470  0.00  0.00    +0.005 A 
ATOM     14  C   UNL     1     -14.920  -1.016 -15.329  0.00  0.00    +0.000 A 
ATOM     15  C   UNL     1     -14.119  -0.249 -17.468  0.00  0.00    +0.000 A 
ATOM     16  C   UNL     1     -15.000  -0.128 -16.396  0.00  0.00    +0.000 A 
ENDBRANCH  10  11
ENDBRANCH   1  10
TORSDOF 2
ENDMDL
MODEL 9
REMARK VINA RESULT:    -4.967     31.017     32.290
REMARK INTER + INTRA:          -5.684
REMARK INTER:                  -5.579
REMARK INTRA:                  -0.105
REMARK UNBOUND:                -0.136
REMARK  Name = 1550473
REMARK  2 active torsions:
REMARK  status: ('A' for Active; 'I' for Inactive)
REMARK    1  A    between atoms: N_1  and  C_4
REMARK    2  A    between atoms: C_4  and  C_5
REMARK                            x       y       z     vdW  Elec       q    Type
REMARK                         _______ _______ _______ _____ _____    ______ ____
ROOT
ATOM      1  N   UNL     1     -12.397  -1.228 -17.035  0.00  0.00    -0.354 N 
ATOM      2  N   UNL     1     -10.791  -2.807 -16.497  0.00  0.00    -0.372 N 
ATOM      3  N   UNL     1     -11.880  -2.974 -18.510  0.00  0.00    -0.372 N 
ATOM      4  C   UNL     1     -11.701  -2.327 -17.353  0.00  0.00    +0.166 C 
ATOM      5  H   UNL     1     -12.236  -0.801 -16.130  0.00  0.00    +0.163 HD
ATOM      6  H   UNL     1     -10.248  -3.633 -16.711  0.00  0.00    +0.159 HD
ATOM      7  H   UNL     1     -10.599  -2.352 -15.613  0.00  0.00    +0.159 HD
ATOM      8  H   UNL     1     -12.555  -2.666 -19.197  0.00  0.00    +0.159 HD
ATOM      9  H   UNL     1     -11.354  -3.808 -18.737  0.00  0.00    +0.159 HD
ENDROOT
BRANCH   1  10
ATOM     10  C   UNL     1     -13.372  -0.593 -17.920  0.00  0.00    +0.151 C 
BRANCH  10  11
ATOM     11  C   UNL     1     -14.286   0.277 -17.100  0.00  0.00    -0.028 A 
ATOM     12  C   UNL     1     -14.299   1.667 -17.283  0.00  0.00    +0.005 A 
ATOM     13  C   UNL     1     -15.145  -0.285 -16.143  0.00  0.00    +0.005 A 
ATOM     14  C   UNL     1     -15.169   2.472 -16.544  0.00  0.00    +0.000 A 
ATOM     15  C   UNL     1     -16.011   0.522 -15.406  0.00  0.00    +0.000 A 
ATOM     16  C   UNL     1     -16.025   1.900 -15.608  0.00  0.00    +0.000 A 
ENDBRANCH  10  11
ENDBRANCH   1  10
TORSDOF 2
ENDMDL
