MODEL 1
REMARK VINA RESULT:    -5.112      0.000      0.000
REMARK INTER + INTRA:          -5.852
REMARK INTER:                  -5.710
REMARK INTRA:                  -0.142
REMARK UNBOUND:                -0.142
REMARK  Name = 1550473
REMARK  2 active torsions:
REMARK  status: ('A' for Active; 'I' for Inactive)
REMARK    1  A    between atoms: N_1  and  C_4
REMARK    2  A    between atoms: C_4  and  C_5
REMARK                            x       y       z     vdW  Elec       q    Type
REMARK                         _______ _______ _______ _____ _____    ______ ____
ROOT
ATOM      1  N   UNL     1      -7.749  -2.412 -11.574  0.00  0.00    -0.354 N 
ATOM      2  N   UNL     1      -8.255  -1.279  -9.618  0.00  0.00    -0.372 N 
ATOM      3  N   UNL     1      -6.209  -0.939 -10.599  0.00  0.00    -0.372 N 
ATOM      4  C   UNL     1      -7.398  -1.550 -10.610  0.00  0.00    +0.166 C 
ATOM      5  H   UNL     1      -8.654  -2.865 -11.509  0.00  0.00    +0.163 HD
ATOM      6  H   UNL     1      -8.020  -0.631  -8.879  0.00  0.00    +0.159 HD
ATOM      7  H   UNL     1      -9.176  -1.698  -9.581  0.00  0.00    +0.159 HD
ATOM      8  H   UNL     1      -5.515  -1.105 -11.316  0.00  0.00    +0.159 HD
ATOM      9  H   UNL     1      -5.950  -0.296  -9.862  0.00  0.00    +0.159 HD
ENDROOT
BRANCH   1  10
ATOM     10  C   UNL     1      -6.911  -2.735 -12.727  0.00  0.00    +0.151 C 
BRANCH  10  11
ATOM     11  C   UNL     1      -7.719  -2.569 -13.984  0.00  0.00    -0.028 A 
ATOM     12  C   UNL     1      -7.733  -3.577 -14.960  0.00  0.00    +0.005 A 
ATOM     13  C   UNL     1      -8.478  -1.410 -14.204  0.00  0.00    +0.005 A 
ATOM     14  C   UNL     1      -8.508  -3.437 -16.114  0.00  0.00    +0.000 A 
ATOM     15  C   UNL     1      -9.250  -1.273 -15.358  0.00  0.00    +0.000 A 
ATOM     16  C   UNL     1      -9.267  -2.288 -16.311  0.00  0.00    +0.000 A 
ENDBRANCH  10  11
ENDBRANCH   1  10
TORSDOF 2
ENDMDL
MODEL 2
REMARK VINA RESULT:    -5.108     10.807     11.140
REMARK INTER + INTRA:          -5.847
REMARK INTER:                  -5.738
REMARK INTRA:                  -0.108
REMARK UNBOUND:                -0.142
REMARK  Name = 1550473
REMARK  2 active torsions:
REMARK  status: ('A' for Active; 'I' for Inactive)
REMARK    1  A    between atoms: N_1  and  C_4
REMARK    2  A    between atoms: C_4  and  C_5
REMARK                            x       y       z     vdW  Elec       q    Type
REMARK                         _______ _______ _______ _____ _____    ______ ____
ROOT
ATOM      1  N   UNL     1     -18.256  -6.900  -9.077  0.00  0.00    -0.354 N 
ATOM      2  N   UNL     1     -20.331  -6.258  -8.275  0.00  0.00    -0.372 N 
ATOM      3  N   UNL     1     -20.087  -8.360  -9.162  0.00  0.00    -0.372 N 
ATOM      4  C   UNL     1     -19.545  -7.179  -8.844  0.00  0.00    +0.166 C 
ATOM      5  H   UNL     1     -17.913  -5.975  -8.841  0.00  0.00    +0.163 HD
ATOM      6  H   UNL     1     -21.307  -6.441  -8.083  0.00  0.00    +0.159 HD
ATOM      7  H   UNL     1     -19.975  -5.351  -7.997  0.00  0.00    +0.159 HD
ATOM      8  H   UNL     1     -19.549  -9.095  -9.599  0.00  0.00    +0.159 HD
ATOM      9  H   UNL     1     -21.065  -8.558  -8.989  0.00  0.00    +0.159 HD
ENDROOT
BRANCH   1  10
ATOM     10  C   UNL     1     -17.302  -7.852  -9.644  0.00  0.00    +0.151 C 
BRANCH  10  11
ATOM     11  C   UNL     1     -16.203  -7.094 -10.335  0.00  0.00    -0.028 A 
ATOM     12  C   UNL     1     -15.789  -7.458 -11.625  0.00  0.00    +0.005 A 
ATOM     13  C   UNL     1     -15.575  -6.007  -9.709  0.00  0.00    +0.005 A 
ATOM     14  C   UNL     1     -14.789  -6.736 -12.280  0.00  0.00    +0.000 A 
ATOM     15  C   UNL     1     -14.576  -5.288 -10.365  0.00  0.00    +0.000 A 
ATOM     16  C   UNL     1     -14.185  -5.652 -11.652  0.00  0.00    +0.000 A 
ENDBRANCH  10  11
ENDBRANCH   1  10
TORSDOF 2
ENDMDL
MODEL 3
REMARK VINA RESULT:    -4.952     11.769     12.381
REMARK INTER + INTRA:          -5.672
REMARK INTER:                  -5.525
REMARK INTRA:                  -0.147
REMARK UNBOUND:                -0.142
REMARK  Name = 1550473
REMARK  2 active torsions:
REMARK  status: ('A' for Active; 'I' for Inactive)
REMARK    1  A    between atoms: N_1  and  C_4
REMARK    2  A    between atoms: C_4  and  C_5
REMARK                            x       y       z     vdW  Elec       q    Type
REMARK                         _______ _______ _______ _____ _____    ______ ____
ROOT
ATOM      1  N   UNL     1      -1.126   4.898 -18.555  0.00  0.00    -0.354 N 
ATOM      2  N   UNL     1      -3.210   4.190 -17.835  0.00  0.00    -0.372 N 
ATOM      3  N   UNL     1      -2.756   4.194 -20.084  0.00  0.00    -0.372 N 
ATOM      4  C   UNL     1      -2.351   4.432 -18.833  0.00  0.00    +0.166 C 
ATOM      5  H   UNL     1      -0.890   5.087 -17.588  0.00  0.00    +0.163 HD
ATOM      6  H   UNL     1      -4.140   3.835 -18.013  0.00  0.00    +0.159 HD
ATOM      7  H   UNL     1      -2.956   4.336 -16.866  0.00  0.00    +0.159 HD
ATOM      8  H   UNL     1      -2.157   4.361 -20.882  0.00  0.00    +0.159 HD
ATOM      9  H   UNL     1      -3.687   3.849 -20.284  0.00  0.00    +0.159 HD
ENDROOT
BRANCH   1  10
ATOM     10  C   UNL     1      -0.097   5.143 -19.564  0.00  0.00    +0.151 C 
BRANCH  10  11
ATOM     11  C   UNL     1       1.052   4.200 -19.334  0.00  0.00    -0.028 A 
ATOM     12  C   UNL     1       2.327   4.693 -19.020  0.00  0.00    +0.005 A 
ATOM     13  C   UNL     1       0.870   2.811 -19.421  0.00  0.00    +0.005 A 
ATOM     14  C   UNL     1       3.386   3.816 -18.777  0.00  0.00    +0.000 A 
ATOM     15  C   UNL     1       1.931   1.939 -19.178  0.00  0.00    +0.000 A 
ATOM     16  C   UNL     1       3.188   2.442 -18.853  0.00  0.00    +0.000 A 
ENDBRANCH  10  11
ENDBRANCH   1  10
TORSDOF 2
ENDMDL
MODEL 4
REMARK VINA RESULT:    -4.921     19.610     20.683
REMARK INTER + INTRA:          -5.638
REMARK INTER:                  -5.546
REMARK INTRA:                  -0.092
REMARK UNBOUND:                -0.142
REMARK  Name = 1550473
REMARK  2 active torsions:
REMARK  status: ('A' for Active; 'I' for Inactive)
REMARK    1  A    between atoms: N_1  and  C_4
REMARK    2  A    between atoms: C_4  and  C_5
REMARK                            x       y       z     vdW  Elec       q    Type
REMARK                         _______ _______ _______ _____ _____    ______ ____
ROOT
ATOM      1  N   UNL     1      10.954 -10.675 -11.273  0.00  0.00    -0.354 N 
ATOM      2  N   UNL     1      12.023  -8.667 -11.710  0.00  0.00    -0.372 N 
ATOM      3  N   UNL     1      13.258 -10.432 -10.919  0.00  0.00    -0.372 N 
ATOM      4  C   UNL     1      12.073  -9.939 -11.297  0.00  0.00    +0.166 C 
ATOM      5  H   UNL     1      10.082 -10.233 -11.543  0.00  0.00    +0.163 HD
ATOM      6  H   UNL     1      12.851  -8.089 -11.742  0.00  0.00    +0.159 HD
ATOM      7  H   UNL     1      11.158  -8.242 -12.023  0.00  0.00    +0.159 HD
ATOM      8  H   UNL     1      13.362 -11.383 -10.592  0.00  0.00    +0.159 HD
ATOM      9  H   UNL     1      14.096  -9.865 -10.933  0.00  0.00    +0.159 HD
ENDROOT
BRANCH   1  10
ATOM     10  C   UNL     1      10.910 -12.085 -10.891  0.00  0.00    +0.151 C 
BRANCH  10  11
ATOM     11  C   UNL     1       9.607 -12.678 -11.351  0.00  0.00    -0.028 A 
ATOM     12  C   UNL     1       9.519 -13.328 -12.591  0.00  0.00    +0.005 A 
ATOM     13  C   UNL     1       8.458 -12.599 -10.549  0.00  0.00    +0.005 A 
ATOM     14  C   UNL     1       8.316 -13.905 -13.005  0.00  0.00    +0.000 A 
ATOM     15  C   UNL     1       7.259 -13.176 -10.966  0.00  0.00    +0.000 A 
ATOM     16  C   UNL     1       7.189 -13.831 -12.193  0.00  0.00    +0.000 A 
ENDBRANCH  10  11
ENDBRANCH   1  10
TORSDOF 2
ENDMDL
MODEL 5
REMARK VINA RESULT:    -4.776     11.863     12.228
REMARK INTER + INTRA:          -5.476
REMARK INTER:                  -5.353
REMARK INTRA:                  -0.124
REMARK UNBOUND:                -0.142
REMARK  Name = 1550473
REMARK  2 active torsions:
REMARK  status: ('A' for Active; 'I' for Inactive)
REMARK    1  A    between atoms: N_1  and  C_4
REMARK    2  A    between atoms: C_4  and  C_5
REMARK                            x       y       z     vdW  Elec       q    Type
REMARK                         _______ _______ _______ _____ _____    ______ ____
ROOT
ATOM      1  N   UNL     1     -19.140  -6.961  -9.389  0.00  0.00    -0.354 N 
ATOM      2  N   UNL     1     -21.351  -7.011  -8.700  0.00  0.00    -0.372 N 
ATOM      3  N   UNL     1     -19.696  -6.958  -7.112  0.00  0.00    -0.372 N 
ATOM      4  C   UNL     1     -20.047  -6.977  -8.402  0.00  0.00    +0.166 C 
ATOM      5  H   UNL     1     -19.470  -7.008 -10.346  0.00  0.00    +0.163 HD
ATOM      6  H   UNL     1     -22.058  -7.020  -7.977  0.00  0.00    +0.159 HD
ATOM      7  H   UNL     1     -21.679  -7.011  -9.658  0.00  0.00    +0.159 HD
ATOM      8  H   UNL     1     -18.727  -6.937  -6.821  0.00  0.00    +0.159 HD
ATOM      9  H   UNL     1     -20.388  -6.978  -6.374  0.00  0.00    +0.159 HD
ENDROOT
BRANCH   1  10
ATOM     10  C   UNL     1     -17.698  -6.870  -9.173  0.00  0.00    +0.151 C 
BRANCH  10  11
ATOM     11  C   UNL     1     -16.995  -7.762 -10.159  0.00  0.00    -0.028 A 
ATOM     12  C   UNL     1     -17.162  -9.153 -10.105  0.00  0.00    +0.005 A 
ATOM     13  C   UNL     1     -16.167  -7.221 -11.154  0.00  0.00    +0.005 A 
ATOM     14  C   UNL     1     -16.534  -9.980 -11.040  0.00  0.00    +0.000 A 
ATOM     15  C   UNL     1     -15.541  -8.049 -12.085  0.00  0.00    +0.000 A 
ATOM     16  C   UNL     1     -15.726  -9.429 -12.029  0.00  0.00    +0.000 A 
ENDBRANCH  10  11
ENDBRANCH   1  10
TORSDOF 2
ENDMDL
MODEL 6
REMARK VINA RESULT:    -4.766     12.142     12.791
REMARK INTER + INTRA:          -5.465
REMARK INTER:                  -5.318
REMARK INTRA:                  -0.146
REMARK UNBOUND:                -0.142
REMARK  Name = 1550473
REMARK  2 active torsions:
REMARK  status: ('A' for Active; 'I' for Inactive)
REMARK    1  A    between atoms: N_1  and  C_4
REMARK    2  A    between atoms: C_4  and  C_5
REMARK                            x       y       z     vdW  Elec       q    Type
REMARK                         _______ _______ _______ _____ _____    ______ ____
ROOT
ATOM      1  N   UNL     1      -1.062   2.418 -19.877  0.00  0.00    -0.354 N 
ATOM      2  N   UNL     1      -2.714   2.962 -21.406  0.00  0.00    -0.372 N 
ATOM      3  N   UNL     1      -1.044   1.524 -22.043  0.00  0.00    -0.372 N 
ATOM      4  C   UNL     1      -1.594   2.296 -21.100  0.00  0.00    +0.166 C 
ATOM      5  H   UNL     1      -1.510   3.043 -19.217  0.00  0.00    +0.163 HD
ATOM      6  H   UNL     1      -3.141   2.887 -22.319  0.00  0.00    +0.159 HD
ATOM      7  H   UNL     1      -3.186   3.550 -20.729  0.00  0.00    +0.159 HD
ATOM      8  H   UNL     1      -0.195   1.000 -21.878  0.00  0.00    +0.159 HD
ATOM      9  H   UNL     1      -1.449   1.445 -22.967  0.00  0.00    +0.159 HD
ENDROOT
BRANCH   1  10
ATOM     10  C   UNL     1       0.126   1.694 -19.426  0.00  0.00    +0.151 C 
BRANCH  10  11
ATOM     11  C   UNL     1       1.238   2.677 -19.185  0.00  0.00    -0.028 A 
ATOM     12  C   UNL     1       0.968   4.050 -19.099  0.00  0.00    +0.005 A 
ATOM     13  C   UNL     1       2.563   2.240 -19.036  0.00  0.00    +0.005 A 
ATOM     14  C   UNL     1       1.997   4.961 -18.845  0.00  0.00    +0.000 A 
ATOM     15  C   UNL     1       3.588   3.152 -18.783  0.00  0.00    +0.000 A 
ATOM     16  C   UNL     1       3.304   4.512 -18.685  0.00  0.00    +0.000 A 
ENDBRANCH  10  11
ENDBRANCH   1  10
TORSDOF 2
ENDMDL
MODEL 7
REMARK VINA RESULT:    -4.765      3.268      4.888
REMARK INTER + INTRA:          -5.464
REMARK INTER:                  -5.366
REMARK INTRA:                  -0.098
REMARK UNBOUND:                -0.142
REMARK  Name = 1550473
REMARK  2 active torsions:
REMARK  status: ('A' for Active; 'I' for Inactive)
REMARK    1  A    between atoms: N_1  and  C_4
REMARK    2  A    between atoms: C_4  and  C_5
REMARK                            x       y       z     vdW  Elec       q    Type
REMARK                         _______ _______ _______ _____ _____    ______ ____
ROOT
ATOM      1  N   UNL     1      -5.722  -1.272 -13.908  0.00  0.00    -0.354 N 
ATOM      2  N   UNL     1      -4.184   0.315 -14.603  0.00  0.00    -0.372 N 
ATOM      3  N   UNL     1      -3.642  -1.062 -12.850  0.00  0.00    -0.372 N 
ATOM      4  C   UNL     1      -4.525  -0.684 -13.780  0.00  0.00    +0.166 C 
ATOM      5  H   UNL     1      -6.358  -0.919 -14.614  0.00  0.00    +0.163 HD
ATOM      6  H   UNL     1      -3.287   0.775 -14.533  0.00  0.00    +0.159 HD
ATOM      7  H   UNL     1      -4.804   0.635 -15.338  0.00  0.00    +0.159 HD
ATOM      8  H   UNL     1      -3.840  -1.806 -12.194  0.00  0.00    +0.159 HD
ATOM      9  H   UNL     1      -2.743  -0.606 -12.756  0.00  0.00    +0.159 HD
ENDROOT
BRANCH   1  10
ATOM     10  C   UNL     1      -6.169  -2.403 -13.098  0.00  0.00    +0.151 C 
BRANCH  10  11
ATOM     11  C   UNL     1      -6.721  -1.889 -11.798  0.00  0.00    -0.028 A 
ATOM     12  C   UNL     1      -7.740  -0.925 -11.789  0.00  0.00    +0.005 A 
ATOM     13  C   UNL     1      -6.234  -2.365 -10.571  0.00  0.00    +0.005 A 
ATOM     14  C   UNL     1      -8.275  -0.468 -10.581  0.00  0.00    +0.000 A 
ATOM     15  C   UNL     1      -6.770  -1.906  -9.367  0.00  0.00    +0.000 A 
ATOM     16  C   UNL     1      -7.792  -0.960  -9.373  0.00  0.00    +0.000 A 
ENDBRANCH  10  11
ENDBRANCH   1  10
TORSDOF 2
ENDMDL
MODEL 8
REMARK VINA RESULT:    -4.720     22.384     24.198
REMARK INTER + INTRA:          -5.413
REMARK INTER:                  -5.284
REMARK INTRA:                  -0.129
REMARK UNBOUND:                -0.142
REMARK  Name = 1550473
REMARK  2 active torsions:
REMARK  status: ('A' for Active; 'I' for Inactive)
REMARK    1  A    between atoms: N_1  and  C_4
REMARK    2  A    between atoms: C_4  and  C_5
REMARK                            x       y       z     vdW  Elec       q    Type
REMARK                         _______ _______ _______ _____ _____    ______ ____
ROOT
ATOM      1  N   UNL     1       1.140 -15.265   2.348  0.00  0.00    -0.354 N 
ATOM      2  N   UNL     1       0.146 -13.181   2.531  0.00  0.00    -0.372 N 
ATOM      3  N   UNL     1      -0.453 -14.830   4.011  0.00  0.00    -0.372 N 
ATOM      4  C   UNL     1       0.283 -14.440   2.964  0.00  0.00    +0.166 C 
ATOM      5  H   UNL     1       1.646 -14.919   1.541  0.00  0.00    +0.163 HD
ATOM      6  H   UNL     1      -0.490 -12.535   2.978  0.00  0.00    +0.159 HD
ATOM      7  H   UNL     1       0.687 -12.824   1.753  0.00  0.00    +0.159 HD
ATOM      8  H   UNL     1      -0.401 -15.769   4.382  0.00  0.00    +0.159 HD
ATOM      9  H   UNL     1      -1.104 -14.201   4.464  0.00  0.00    +0.159 HD
ENDROOT
BRANCH   1  10
ATOM     10  C   UNL     1       1.403 -16.639   2.774  0.00  0.00    +0.151 C 
BRANCH  10  11
ATOM     11  C   UNL     1       2.877 -16.804   3.019  0.00  0.00    -0.028 A 
ATOM     12  C   UNL     1       3.489 -18.057   2.863  0.00  0.00    +0.005 A 
ATOM     13  C   UNL     1       3.670 -15.710   3.400  0.00  0.00    +0.005 A 
ATOM     14  C   UNL     1       4.864 -18.204   3.061  0.00  0.00    +0.000 A 
ATOM     15  C   UNL     1       5.042 -15.862   3.597  0.00  0.00    +0.000 A 
ATOM     16  C   UNL     1       5.639 -17.109   3.425  0.00  0.00    +0.000 A 
ENDBRANCH  10  11
ENDBRANCH   1  10
TORSDOF 2
ENDMDL
MODEL 9
REMARK VINA RESULT:    -4.716     33.450     34.109
REMARK INTER + INTRA:          -5.409
REMARK INTER:                  -5.273
REMARK INTRA:                  -0.136
REMARK UNBOUND:                -0.142
REMARK  Name = 1550473
REMARK  2 active torsions:
REMARK  status: ('A' for Active; 'I' for Inactive)
REMARK    1  A    between atoms: N_1  and  C_4
REMARK    2  A    between atoms: C_4  and  C_5
REMARK                            x       y       z     vdW  Elec       q    Type
REMARK                         _______ _______ _______ _____ _____    ______ ____
ROOT
ATOM      1  N   UNL     1       8.056   6.336  16.047  0.00  0.00    -0.354 N 
ATOM      2  N   UNL     1       6.727   4.552  15.401  0.00  0.00    -0.372 N 
ATOM      3  N   UNL     1       8.929   4.584  14.759  0.00  0.00    -0.372 N 
ATOM      4  C   UNL     1       7.915   5.168  15.405  0.00  0.00    +0.166 C 
ATOM      5  H   UNL     1       7.241   6.742  16.492  0.00  0.00    +0.163 HD
ATOM      6  H   UNL     1       6.591   3.669  14.929  0.00  0.00    +0.159 HD
ATOM      7  H   UNL     1       5.925   4.937  15.886  0.00  0.00    +0.159 HD
ATOM      8  H   UNL     1       9.850   5.001  14.719  0.00  0.00    +0.159 HD
ATOM      9  H   UNL     1       8.811   3.706  14.270  0.00  0.00    +0.159 HD
ENDROOT
BRANCH   1  10
ATOM     10  C   UNL     1       9.320   7.062  16.157  0.00  0.00    +0.151 C 
BRANCH  10  11
ATOM     11  C   UNL     1       9.472   7.967  14.965  0.00  0.00    -0.028 A 
ATOM     12  C   UNL     1      10.571   7.834  14.105  0.00  0.00    +0.005 A 
ATOM     13  C   UNL     1       8.516   8.957  14.689  0.00  0.00    +0.005 A 
ATOM     14  C   UNL     1      10.697   8.654  12.982  0.00  0.00    +0.000 A 
ATOM     15  C   UNL     1       8.646   9.775  13.566  0.00  0.00    +0.000 A 
ATOM     16  C   UNL     1       9.735   9.622  12.712  0.00  0.00    +0.000 A 
ENDBRANCH  10  11
ENDBRANCH   1  10
TORSDOF 2
ENDMDL
