MODEL 1
REMARK VINA RESULT:    -5.695      0.000      0.000
REMARK INTER + INTRA:          -6.484
REMARK INTER:                  -6.361
REMARK INTRA:                  -0.122
REMARK UNBOUND:                -0.122
REMARK  Name = 1550473
REMARK  2 active torsions:
REMARK  status: ('A' for Active; 'I' for Inactive)
REMARK    1  A    between atoms: N_1  and  C_4
REMARK    2  A    between atoms: C_4  and  C_5
REMARK                            x       y       z     vdW  Elec       q    Type
REMARK                         _______ _______ _______ _____ _____    ______ ____
ROOT
ATOM      1  N   UNL     1       6.360  -9.137  -9.854  0.00  0.00    -0.354 N 
ATOM      2  N   UNL     1       6.083 -10.443  -7.961  0.00  0.00    -0.372 N 
ATOM      3  N   UNL     1       8.121 -10.436  -9.016  0.00  0.00    -0.372 N 
ATOM      4  C   UNL     1       6.859  -9.998  -8.957  0.00  0.00    +0.166 C 
ATOM      5  H   UNL     1       5.386  -8.867  -9.772  0.00  0.00    +0.163 HD
ATOM      6  H   UNL     1       6.433 -11.090  -7.268  0.00  0.00    +0.159 HD
ATOM      7  H   UNL     1       5.124 -10.135  -7.855  0.00  0.00    +0.159 HD
ATOM      8  H   UNL     1       8.756 -10.143  -9.746  0.00  0.00    +0.159 HD
ATOM      9  H   UNL     1       8.486 -11.093  -8.338  0.00  0.00    +0.159 HD
ENDROOT
BRANCH   1  10
ATOM     10  C   UNL     1       7.136  -8.551 -10.945  0.00  0.00    +0.151 C 
BRANCH  10  11
ATOM     11  C   UNL     1       6.588  -7.186 -11.260  0.00  0.00    -0.028 A 
ATOM     12  C   UNL     1       6.337  -6.808 -12.587  0.00  0.00    +0.005 A 
ATOM     13  C   UNL     1       6.313  -6.268 -10.235  0.00  0.00    +0.005 A 
ATOM     14  C   UNL     1       5.800  -5.552 -12.878  0.00  0.00    +0.000 A 
ATOM     15  C   UNL     1       5.778  -5.014 -10.529  0.00  0.00    +0.000 A 
ATOM     16  C   UNL     1       5.519  -4.658 -11.850  0.00  0.00    +0.000 A 
ENDBRANCH  10  11
ENDBRANCH   1  10
TORSDOF 2
ENDMDL
MODEL 2
REMARK VINA RESULT:    -5.293      3.491      5.167
REMARK INTER + INTRA:          -6.034
REMARK INTER:                  -5.872
REMARK INTRA:                  -0.162
REMARK UNBOUND:                -0.122
REMARK  Name = 1550473
REMARK  2 active torsions:
REMARK  status: ('A' for Active; 'I' for Inactive)
REMARK    1  A    between atoms: N_1  and  C_4
REMARK    2  A    between atoms: C_4  and  C_5
REMARK                            x       y       z     vdW  Elec       q    Type
REMARK                         _______ _______ _______ _____ _____    ______ ____
ROOT
ATOM      1  N   UNL     1       7.299  -4.372  -9.775  0.00  0.00    -0.354 N 
ATOM      2  N   UNL     1       8.758  -2.623  -9.358  0.00  0.00    -0.372 N 
ATOM      3  N   UNL     1       7.741  -2.753 -11.410  0.00  0.00    -0.372 N 
ATOM      4  C   UNL     1       7.923  -3.260 -10.186  0.00  0.00    +0.166 C 
ATOM      5  H   UNL     1       7.502  -4.722  -8.845  0.00  0.00    +0.163 HD
ATOM      6  H   UNL     1       9.241  -1.780  -9.639  0.00  0.00    +0.159 HD
ATOM      7  H   UNL     1       8.924  -2.949  -8.413  0.00  0.00    +0.159 HD
ATOM      8  H   UNL     1       7.128  -3.190 -12.086  0.00  0.00    +0.159 HD
ATOM      9  H   UNL     1       8.224  -1.917 -11.715  0.00  0.00    +0.159 HD
ENDROOT
BRANCH   1  10
ATOM     10  C   UNL     1       6.328  -5.111 -10.580  0.00  0.00    +0.151 C 
BRANCH  10  11
ATOM     11  C   UNL     1       6.864  -6.489 -10.853  0.00  0.00    -0.028 A 
ATOM     12  C   UNL     1       6.462  -7.578 -10.065  0.00  0.00    +0.005 A 
ATOM     13  C   UNL     1       7.770  -6.714 -11.901  0.00  0.00    +0.005 A 
ATOM     14  C   UNL     1       6.937  -8.864 -10.337  0.00  0.00    +0.000 A 
ATOM     15  C   UNL     1       8.242  -7.999 -12.168  0.00  0.00    +0.000 A 
ATOM     16  C   UNL     1       7.823  -9.074 -11.387  0.00  0.00    +0.000 A 
ENDBRANCH  10  11
ENDBRANCH   1  10
TORSDOF 2
ENDMDL
MODEL 3
REMARK VINA RESULT:    -5.293      1.872      2.939
REMARK INTER + INTRA:          -6.034
REMARK INTER:                  -5.940
REMARK INTRA:                  -0.094
REMARK UNBOUND:                -0.122
REMARK  Name = 1550473
REMARK  2 active torsions:
REMARK  status: ('A' for Active; 'I' for Inactive)
REMARK    1  A    between atoms: N_1  and  C_4
REMARK    2  A    between atoms: C_4  and  C_5
REMARK                            x       y       z     vdW  Elec       q    Type
REMARK                         _______ _______ _______ _____ _____    ______ ____
ROOT
ATOM      1  N   UNL     1       7.068  -7.413 -10.833  0.00  0.00    -0.354 N 
ATOM      2  N   UNL     1       7.831  -9.571 -11.181  0.00  0.00    -0.372 N 
ATOM      3  N   UNL     1       6.480  -9.151  -9.375  0.00  0.00    -0.372 N 
ATOM      4  C   UNL     1       7.120  -8.698 -10.458  0.00  0.00    +0.166 C 
ATOM      5  H   UNL     1       7.600  -7.127 -11.646  0.00  0.00    +0.163 HD
ATOM      6  H   UNL     1       7.886 -10.548 -10.925  0.00  0.00    +0.159 HD
ATOM      7  H   UNL     1       8.325  -9.292 -12.020  0.00  0.00    +0.159 HD
ATOM      8  H   UNL     1       5.931  -8.542  -8.783  0.00  0.00    +0.159 HD
ATOM      9  H   UNL     1       6.533 -10.123  -9.096  0.00  0.00    +0.159 HD
ENDROOT
BRANCH   1  10
ATOM     10  C   UNL     1       6.279  -6.392 -10.145  0.00  0.00    +0.151 C 
BRANCH  10  11
ATOM     11  C   UNL     1       6.764  -5.032 -10.563  0.00  0.00    -0.028 A 
ATOM     12  C   UNL     1       7.738  -4.361  -9.808  0.00  0.00    +0.005 A 
ATOM     13  C   UNL     1       6.260  -4.411 -11.716  0.00  0.00    +0.005 A 
ATOM     14  C   UNL     1       8.211  -3.110 -10.212  0.00  0.00    +0.000 A 
ATOM     15  C   UNL     1       6.734  -3.161 -12.115  0.00  0.00    +0.000 A 
ATOM     16  C   UNL     1       7.712  -2.513 -11.364  0.00  0.00    +0.000 A 
ENDBRANCH  10  11
ENDBRANCH   1  10
TORSDOF 2
ENDMDL
MODEL 4
REMARK VINA RESULT:    -5.261      4.484      5.601
REMARK INTER + INTRA:          -5.999
REMARK INTER:                  -5.836
REMARK INTRA:                  -0.163
REMARK UNBOUND:                -0.122
REMARK  Name = 1550473
REMARK  2 active torsions:
REMARK  status: ('A' for Active; 'I' for Inactive)
REMARK    1  A    between atoms: N_1  and  C_4
REMARK    2  A    between atoms: C_4  and  C_5
REMARK                            x       y       z     vdW  Elec       q    Type
REMARK                         _______ _______ _______ _____ _____    ______ ____
ROOT
ATOM      1  N   UNL     1       9.892  -2.873 -11.024  0.00  0.00    -0.354 N 
ATOM      2  N   UNL     1      11.989  -3.828 -11.256  0.00  0.00    -0.372 N 
ATOM      3  N   UNL     1      10.947  -3.921  -9.213  0.00  0.00    -0.372 N 
ATOM      4  C   UNL     1      10.929  -3.535 -10.493  0.00  0.00    +0.166 C 
ATOM      5  H   UNL     1       9.952  -2.582 -11.993  0.00  0.00    +0.163 HD
ATOM      6  H   UNL     1      12.785  -4.329 -10.884  0.00  0.00    +0.159 HD
ATOM      7  H   UNL     1      12.027  -3.576 -12.236  0.00  0.00    +0.159 HD
ATOM      8  H   UNL     1      10.181  -3.726  -8.584  0.00  0.00    +0.159 HD
ATOM      9  H   UNL     1      11.739  -4.414  -8.820  0.00  0.00    +0.159 HD
ENDROOT
BRANCH   1  10
ATOM     10  C   UNL     1       8.666  -2.552 -10.294  0.00  0.00    +0.151 C 
BRANCH  10  11
ATOM     11  C   UNL     1       7.532  -3.362 -10.859  0.00  0.00    -0.028 A 
ATOM     12  C   UNL     1       7.061  -4.497 -10.183  0.00  0.00    +0.005 A 
ATOM     13  C   UNL     1       6.920  -2.996 -12.068  0.00  0.00    +0.005 A 
ATOM     14  C   UNL     1       5.988  -5.232 -10.692  0.00  0.00    +0.000 A 
ATOM     15  C   UNL     1       5.849  -3.733 -12.573  0.00  0.00    +0.000 A 
ATOM     16  C   UNL     1       5.382  -4.849 -11.884  0.00  0.00    +0.000 A 
ENDBRANCH  10  11
ENDBRANCH   1  10
TORSDOF 2
ENDMDL
MODEL 5
REMARK VINA RESULT:    -5.216     15.338     16.903
REMARK INTER + INTRA:          -5.948
REMARK INTER:                  -5.831
REMARK INTRA:                  -0.116
REMARK UNBOUND:                -0.122
REMARK  Name = 1550473
REMARK  2 active torsions:
REMARK  status: ('A' for Active; 'I' for Inactive)
REMARK    1  A    between atoms: N_1  and  C_4
REMARK    2  A    between atoms: C_4  and  C_5
REMARK                            x       y       z     vdW  Elec       q    Type
REMARK                         _______ _______ _______ _____ _____    ______ ____
ROOT
ATOM      1  N   UNL     1      -5.602   4.938  -6.526  0.00  0.00    -0.354 N 
ATOM      2  N   UNL     1      -6.894   6.233  -5.106  0.00  0.00    -0.372 N 
ATOM      3  N   UNL     1      -5.784   7.253  -6.836  0.00  0.00    -0.372 N 
ATOM      4  C   UNL     1      -6.084   6.135  -6.167  0.00  0.00    +0.166 C 
ATOM      5  H   UNL     1      -5.843   4.132  -5.960  0.00  0.00    +0.163 HD
ATOM      6  H   UNL     1      -7.275   7.123  -4.813  0.00  0.00    +0.159 HD
ATOM      7  H   UNL     1      -7.169   5.420  -4.569  0.00  0.00    +0.159 HD
ATOM      8  H   UNL     1      -5.174   7.248  -7.643  0.00  0.00    +0.159 HD
ATOM      9  H   UNL     1      -6.147   8.155  -6.552  0.00  0.00    +0.159 HD
ENDROOT
BRANCH   1  10
ATOM     10  C   UNL     1      -4.756   4.714  -7.698  0.00  0.00    +0.151 C 
BRANCH  10  11
ATOM     11  C   UNL     1      -4.092   3.371  -7.574  0.00  0.00    -0.028 A 
ATOM     12  C   UNL     1      -2.834   3.144  -8.151  0.00  0.00    +0.005 A 
ATOM     13  C   UNL     1      -4.712   2.323  -6.877  0.00  0.00    +0.005 A 
ATOM     14  C   UNL     1      -2.202   1.905  -8.011  0.00  0.00    +0.000 A 
ATOM     15  C   UNL     1      -4.079   1.088  -6.740  0.00  0.00    +0.000 A 
ATOM     16  C   UNL     1      -2.823   0.880  -7.305  0.00  0.00    +0.000 A 
ENDBRANCH  10  11
ENDBRANCH   1  10
TORSDOF 2
ENDMDL
MODEL 6
REMARK VINA RESULT:    -5.015      4.530      5.448
REMARK INTER + INTRA:          -5.724
REMARK INTER:                  -5.618
REMARK INTRA:                  -0.106
REMARK UNBOUND:                -0.122
REMARK  Name = 1550473
REMARK  2 active torsions:
REMARK  status: ('A' for Active; 'I' for Inactive)
REMARK    1  A    between atoms: N_1  and  C_4
REMARK    2  A    between atoms: C_4  and  C_5
REMARK                            x       y       z     vdW  Elec       q    Type
REMARK                         _______ _______ _______ _____ _____    ______ ____
ROOT
ATOM      1  N   UNL     1       8.889  -2.763 -11.412  0.00  0.00    -0.354 N 
ATOM      2  N   UNL     1      10.702  -3.091 -10.008  0.00  0.00    -0.372 N 
ATOM      3  N   UNL     1       8.728  -2.337  -9.113  0.00  0.00    -0.372 N 
ATOM      4  C   UNL     1       9.426  -2.727 -10.185  0.00  0.00    +0.166 C 
ATOM      5  H   UNL     1       9.480  -3.039 -12.187  0.00  0.00    +0.163 HD
ATOM      6  H   UNL     1      11.133  -3.077  -9.093  0.00  0.00    +0.159 HD
ATOM      7  H   UNL     1      11.276  -3.411 -10.778  0.00  0.00    +0.159 HD
ATOM      8  H   UNL     1       7.763  -2.044  -9.180  0.00  0.00    +0.159 HD
ATOM      9  H   UNL     1       9.146  -2.305  -8.191  0.00  0.00    +0.159 HD
ENDROOT
BRANCH   1  10
ATOM     10  C   UNL     1       7.494  -2.438 -11.704  0.00  0.00    +0.151 C 
BRANCH  10  11
ATOM     11  C   UNL     1       6.766  -3.698 -12.082  0.00  0.00    -0.028 A 
ATOM     12  C   UNL     1       6.030  -3.764 -13.275  0.00  0.00    +0.005 A 
ATOM     13  C   UNL     1       6.812  -4.831 -11.256  0.00  0.00    +0.005 A 
ATOM     14  C   UNL     1       5.377  -4.944 -13.641  0.00  0.00    +0.000 A 
ATOM     15  C   UNL     1       6.158  -6.007 -11.625  0.00  0.00    +0.000 A 
ATOM     16  C   UNL     1       5.444  -6.063 -12.819  0.00  0.00    +0.000 A 
ENDBRANCH  10  11
ENDBRANCH   1  10
TORSDOF 2
ENDMDL
MODEL 7
REMARK VINA RESULT:    -4.947     13.753     15.468
REMARK INTER + INTRA:          -5.647
REMARK INTER:                  -5.524
REMARK INTRA:                  -0.123
REMARK UNBOUND:                -0.122
REMARK  Name = 1550473
REMARK  2 active torsions:
REMARK  status: ('A' for Active; 'I' for Inactive)
REMARK    1  A    between atoms: N_1  and  C_4
REMARK    2  A    between atoms: C_4  and  C_5
REMARK                            x       y       z     vdW  Elec       q    Type
REMARK                         _______ _______ _______ _____ _____    ______ ____
ROOT
ATOM      1  N   UNL     1      -1.381   5.962 -13.279  0.00  0.00    -0.354 N 
ATOM      2  N   UNL     1      -2.632   7.535 -14.431  0.00  0.00    -0.372 N 
ATOM      3  N   UNL     1      -0.929   6.454 -15.525  0.00  0.00    -0.372 N 
ATOM      4  C   UNL     1      -1.637   6.640 -14.406  0.00  0.00    +0.166 C 
ATOM      5  H   UNL     1      -1.935   6.171 -12.456  0.00  0.00    +0.163 HD
ATOM      6  H   UNL     1      -2.851   8.058 -15.268  0.00  0.00    +0.159 HD
ATOM      7  H   UNL     1      -3.213   7.708 -13.620  0.00  0.00    +0.159 HD
ATOM      8  H   UNL     1      -0.162   5.797 -15.571  0.00  0.00    +0.159 HD
ATOM      9  H   UNL     1      -1.125   6.977 -16.370  0.00  0.00    +0.159 HD
ENDROOT
BRANCH   1  10
ATOM     10  C   UNL     1      -0.356   4.927 -13.162  0.00  0.00    +0.151 C 
BRANCH  10  11
ATOM     11  C   UNL     1      -0.397   4.349 -11.774  0.00  0.00    -0.028 A 
ATOM     12  C   UNL     1      -1.368   4.773 -10.855  0.00  0.00    +0.005 A 
ATOM     13  C   UNL     1       0.528   3.373 -11.374  0.00  0.00    +0.005 A 
ATOM     14  C   UNL     1      -1.426   4.215  -9.576  0.00  0.00    +0.000 A 
ATOM     15  C   UNL     1       0.467   2.819 -10.096  0.00  0.00    +0.000 A 
ATOM     16  C   UNL     1      -0.511   3.238  -9.198  0.00  0.00    +0.000 A 
ENDBRANCH  10  11
ENDBRANCH   1  10
TORSDOF 2
ENDMDL
MODEL 8
REMARK VINA RESULT:    -4.898     13.930     15.660
REMARK INTER + INTRA:          -5.593
REMARK INTER:                  -5.451
REMARK INTRA:                  -0.142
REMARK UNBOUND:                -0.122
REMARK  Name = 1550473
REMARK  2 active torsions:
REMARK  status: ('A' for Active; 'I' for Inactive)
REMARK    1  A    between atoms: N_1  and  C_4
REMARK    2  A    between atoms: C_4  and  C_5
REMARK                            x       y       z     vdW  Elec       q    Type
REMARK                         _______ _______ _______ _____ _____    ______ ____
ROOT
ATOM      1  N   UNL     1      -2.510   6.190 -12.449  0.00  0.00    -0.354 N 
ATOM      2  N   UNL     1      -4.686   6.978 -12.543  0.00  0.00    -0.372 N 
ATOM      3  N   UNL     1      -3.905   5.669 -14.258  0.00  0.00    -0.372 N 
ATOM      4  C   UNL     1      -3.686   6.273 -13.085  0.00  0.00    +0.166 C 
ATOM      5  H   UNL     1      -2.398   6.696 -11.578  0.00  0.00    +0.163 HD
ATOM      6  H   UNL     1      -5.585   7.056 -12.999  0.00  0.00    +0.159 HD
ATOM      7  H   UNL     1      -4.586   7.445 -11.650  0.00  0.00    +0.159 HD
ATOM      8  H   UNL     1      -3.190   5.126 -14.723  0.00  0.00    +0.159 HD
ATOM      9  H   UNL     1      -4.795   5.744 -14.735  0.00  0.00    +0.159 HD
ENDROOT
BRANCH   1  10
ATOM     10  C   UNL     1      -1.375   5.403 -12.927  0.00  0.00    +0.151 C 
BRANCH  10  11
ATOM     11  C   UNL     1      -0.836   4.578 -11.791  0.00  0.00    -0.028 A 
ATOM     12  C   UNL     1       0.293   3.766 -11.974  0.00  0.00    +0.005 A 
ATOM     13  C   UNL     1      -1.445   4.609 -10.527  0.00  0.00    +0.005 A 
ATOM     14  C   UNL     1       0.813   3.024 -10.911  0.00  0.00    +0.000 A 
ATOM     15  C   UNL     1      -0.924   3.866  -9.469  0.00  0.00    +0.000 A 
ATOM     16  C   UNL     1       0.206   3.075  -9.660  0.00  0.00    +0.000 A 
ENDBRANCH  10  11
ENDBRANCH   1  10
TORSDOF 2
ENDMDL
MODEL 9
REMARK VINA RESULT:    -4.897     13.434     14.831
REMARK INTER + INTRA:          -5.592
REMARK INTER:                  -5.452
REMARK INTRA:                  -0.140
REMARK UNBOUND:                -0.122
REMARK  Name = 1550473
REMARK  2 active torsions:
REMARK  status: ('A' for Active; 'I' for Inactive)
REMARK    1  A    between atoms: N_1  and  C_4
REMARK    2  A    between atoms: C_4  and  C_5
REMARK                            x       y       z     vdW  Elec       q    Type
REMARK                         _______ _______ _______ _____ _____    ______ ____
ROOT
ATOM      1  N   UNL     1      -2.696   4.880  -8.351  0.00  0.00    -0.354 N 
ATOM      2  N   UNL     1      -4.837   5.569  -7.798  0.00  0.00    -0.372 N 
ATOM      3  N   UNL     1      -4.141   3.483  -7.145  0.00  0.00    -0.372 N 
ATOM      4  C   UNL     1      -3.878   4.637  -7.768  0.00  0.00    +0.166 C 
ATOM      5  H   UNL     1      -2.570   5.762  -8.833  0.00  0.00    +0.163 HD
ATOM      6  H   UNL     1      -5.737   5.416  -7.364  0.00  0.00    +0.159 HD
ATOM      7  H   UNL     1      -4.692   6.469  -8.241  0.00  0.00    +0.159 HD
ATOM      8  H   UNL     1      -3.461   2.736  -7.092  0.00  0.00    +0.159 HD
ATOM      9  H   UNL     1      -5.040   3.306  -6.715  0.00  0.00    +0.159 HD
ENDROOT
BRANCH   1  10
ATOM     10  C   UNL     1      -1.567   3.952  -8.328  0.00  0.00    +0.151 C 
BRANCH  10  11
ATOM     11  C   UNL     1      -0.933   3.916  -9.691  0.00  0.00    -0.028 A 
ATOM     12  C   UNL     1      -1.492   4.637 -10.756  0.00  0.00    +0.005 A 
ATOM     13  C   UNL     1       0.232   3.168  -9.923  0.00  0.00    +0.005 A 
ATOM     14  C   UNL     1      -0.887   4.629 -12.015  0.00  0.00    +0.000 A 
ATOM     15  C   UNL     1       0.833   3.161 -11.181  0.00  0.00    +0.000 A 
ATOM     16  C   UNL     1       0.275   3.893 -12.226  0.00  0.00    +0.000 A 
ENDBRANCH  10  11
ENDBRANCH   1  10
TORSDOF 2
ENDMDL
