MODEL 1
REMARK VINA RESULT:    -6.457      0.000      0.000
REMARK INTER + INTRA:          -7.338
REMARK INTER:                  -7.212
REMARK INTRA:                  -0.127
REMARK UNBOUND:                -0.127
REMARK  Name = 1550473
REMARK  2 active torsions:
REMARK  status: ('A' for Active; 'I' for Inactive)
REMARK    1  A    between atoms: N_1  and  C_4
REMARK    2  A    between atoms: C_4  and  C_5
REMARK                            x       y       z     vdW  Elec       q    Type
REMARK                         _______ _______ _______ _____ _____    ______ ____
ROOT
ATOM      1  N   UNL     1       4.361  -3.049  -5.485  0.00  0.00    -0.354 N 
ATOM      2  N   UNL     1       3.144  -2.345  -7.326  0.00  0.00    -0.372 N 
ATOM      3  N   UNL     1       2.089  -3.581  -5.706  0.00  0.00    -0.372 N 
ATOM      4  C   UNL     1       3.204  -2.998  -6.159  0.00  0.00    +0.166 C 
ATOM      5  H   UNL     1       5.178  -2.613  -5.897  0.00  0.00    +0.163 HD
ATOM      6  H   UNL     1       2.285  -2.286  -7.855  0.00  0.00    +0.159 HD
ATOM      7  H   UNL     1       3.951  -1.871  -7.713  0.00  0.00    +0.159 HD
ATOM      8  H   UNL     1       2.069  -4.094  -4.835  0.00  0.00    +0.159 HD
ATOM      9  H   UNL     1       1.222  -3.543  -6.227  0.00  0.00    +0.159 HD
ENDROOT
BRANCH   1  10
ATOM     10  C   UNL     1       4.519  -3.689  -4.180  0.00  0.00    +0.151 C 
BRANCH  10  11
ATOM     11  C   UNL     1       5.675  -3.052  -3.458  0.00  0.00    -0.028 A 
ATOM     12  C   UNL     1       6.392  -3.770  -2.490  0.00  0.00    +0.005 A 
ATOM     13  C   UNL     1       6.061  -1.734  -3.742  0.00  0.00    +0.005 A 
ATOM     14  C   UNL     1       7.484  -3.190  -1.841  0.00  0.00    +0.000 A 
ATOM     15  C   UNL     1       7.152  -1.157  -3.091  0.00  0.00    +0.000 A 
ATOM     16  C   UNL     1       7.864  -1.886  -2.142  0.00  0.00    +0.000 A 
ENDBRANCH  10  11
ENDBRANCH   1  10
TORSDOF 2
ENDMDL
MODEL 2
REMARK VINA RESULT:    -5.923      1.753      2.183
REMARK INTER + INTRA:          -6.742
REMARK INTER:                  -6.595
REMARK INTRA:                  -0.147
REMARK UNBOUND:                -0.127
REMARK  Name = 1550473
REMARK  2 active torsions:
REMARK  status: ('A' for Active; 'I' for Inactive)
REMARK    1  A    between atoms: N_1  and  C_4
REMARK    2  A    between atoms: C_4  and  C_5
REMARK                            x       y       z     vdW  Elec       q    Type
REMARK                         _______ _______ _______ _____ _____    ______ ____
ROOT
ATOM      1  N   UNL     1       4.208  -3.733  -4.812  0.00  0.00    -0.354 N 
ATOM      2  N   UNL     1       2.414  -5.151  -4.441  0.00  0.00    -0.372 N 
ATOM      3  N   UNL     1       2.145  -3.371  -5.863  0.00  0.00    -0.372 N 
ATOM      4  C   UNL     1       2.933  -4.074  -5.043  0.00  0.00    +0.166 C 
ATOM      5  H   UNL     1       4.743  -4.290  -4.156  0.00  0.00    +0.163 HD
ATOM      6  H   UNL     1       1.456  -5.435  -4.599  0.00  0.00    +0.159 HD
ATOM      7  H   UNL     1       2.965  -5.732  -3.821  0.00  0.00    +0.159 HD
ATOM      8  H   UNL     1       2.474  -2.544  -6.344  0.00  0.00    +0.159 HD
ATOM      9  H   UNL     1       1.180  -3.632  -6.025  0.00  0.00    +0.159 HD
ENDROOT
BRANCH   1  10
ATOM     10  C   UNL     1       4.884  -2.610  -5.458  0.00  0.00    +0.151 C 
BRANCH  10  11
ATOM     11  C   UNL     1       5.337  -1.638  -4.405  0.00  0.00    -0.028 A 
ATOM     12  C   UNL     1       5.263  -1.975  -3.045  0.00  0.00    +0.005 A 
ATOM     13  C   UNL     1       5.848  -0.380  -4.759  0.00  0.00    +0.005 A 
ATOM     14  C   UNL     1       5.712  -1.084  -2.068  0.00  0.00    +0.000 A 
ATOM     15  C   UNL     1       6.294   0.508  -3.780  0.00  0.00    +0.000 A 
ATOM     16  C   UNL     1       6.229   0.154  -2.435  0.00  0.00    +0.000 A 
ENDBRANCH  10  11
ENDBRANCH   1  10
TORSDOF 2
ENDMDL
MODEL 3
REMARK VINA RESULT:    -5.666      3.366      4.550
REMARK INTER + INTRA:          -6.455
REMARK INTER:                  -6.307
REMARK INTRA:                  -0.148
REMARK UNBOUND:                -0.127
REMARK  Name = 1550473
REMARK  2 active torsions:
REMARK  status: ('A' for Active; 'I' for Inactive)
REMARK    1  A    between atoms: N_1  and  C_4
REMARK    2  A    between atoms: C_4  and  C_5
REMARK                            x       y       z     vdW  Elec       q    Type
REMARK                         _______ _______ _______ _____ _____    ______ ____
ROOT
ATOM      1  N   UNL     1       6.017   0.214  -2.217  0.00  0.00    -0.354 N 
ATOM      2  N   UNL     1       6.090   2.135  -3.509  0.00  0.00    -0.372 N 
ATOM      3  N   UNL     1       8.063   1.180  -2.828  0.00  0.00    -0.372 N 
ATOM      4  C   UNL     1       6.726   1.163  -2.843  0.00  0.00    +0.166 C 
ATOM      5  H   UNL     1       5.006   0.274  -2.241  0.00  0.00    +0.163 HD
ATOM      6  H   UNL     1       6.598   2.863  -3.993  0.00  0.00    +0.159 HD
ATOM      7  H   UNL     1       5.080   2.167  -3.569  0.00  0.00    +0.159 HD
ATOM      8  H   UNL     1       8.602   0.479  -2.338  0.00  0.00    +0.159 HD
ATOM      9  H   UNL     1       8.589   1.907  -3.297  0.00  0.00    +0.159 HD
ENDROOT
BRANCH   1  10
ATOM     10  C   UNL     1       6.612  -0.918  -1.509  0.00  0.00    +0.151 C 
BRANCH  10  11
ATOM     11  C   UNL     1       6.221  -2.193  -2.203  0.00  0.00    -0.028 A 
ATOM     12  C   UNL     1       6.880  -3.395  -1.908  0.00  0.00    +0.005 A 
ATOM     13  C   UNL     1       5.188  -2.206  -3.153  0.00  0.00    +0.005 A 
ATOM     14  C   UNL     1       6.497  -4.586  -2.531  0.00  0.00    +0.000 A 
ATOM     15  C   UNL     1       4.809  -3.397  -3.773  0.00  0.00    +0.000 A 
ATOM     16  C   UNL     1       5.462  -4.587  -3.460  0.00  0.00    +0.000 A 
ENDBRANCH  10  11
ENDBRANCH   1  10
TORSDOF 2
ENDMDL
MODEL 4
REMARK VINA RESULT:    -5.582      4.383      5.822
REMARK INTER + INTRA:          -6.362
REMARK INTER:                  -6.254
REMARK INTRA:                  -0.107
REMARK UNBOUND:                -0.127
REMARK  Name = 1550473
REMARK  2 active torsions:
REMARK  status: ('A' for Active; 'I' for Inactive)
REMARK    1  A    between atoms: N_1  and  C_4
REMARK    2  A    between atoms: C_4  and  C_5
REMARK                            x       y       z     vdW  Elec       q    Type
REMARK                         _______ _______ _______ _____ _____    ______ ____
ROOT
ATOM      1  N   UNL     1       5.747   0.008  -0.148  0.00  0.00    -0.354 N 
ATOM      2  N   UNL     1       4.520   1.454   1.182  0.00  0.00    -0.372 N 
ATOM      3  N   UNL     1       6.548   0.698   1.943  0.00  0.00    -0.372 N 
ATOM      4  C   UNL     1       5.615   0.710   0.985  0.00  0.00    +0.166 C 
ATOM      5  H   UNL     1       4.990   0.035  -0.822  0.00  0.00    +0.163 HD
ATOM      6  H   UNL     1       4.394   1.997   2.025  0.00  0.00    +0.159 HD
ATOM      7  H   UNL     1       3.786   1.516   0.486  0.00  0.00    +0.159 HD
ATOM      8  H   UNL     1       7.395   0.152   1.859  0.00  0.00    +0.159 HD
ATOM      9  H   UNL     1       6.435   1.225   2.800  0.00  0.00    +0.159 HD
ENDROOT
BRANCH   1  10
ATOM     10  C   UNL     1       6.924  -0.791  -0.483  0.00  0.00    +0.151 C 
BRANCH  10  11
ATOM     11  C   UNL     1       6.511  -1.918  -1.390  0.00  0.00    -0.028 A 
ATOM     12  C   UNL     1       5.737  -1.666  -2.531  0.00  0.00    +0.005 A 
ATOM     13  C   UNL     1       6.897  -3.239  -1.115  0.00  0.00    +0.005 A 
ATOM     14  C   UNL     1       5.379  -2.709  -3.390  0.00  0.00    +0.000 A 
ATOM     15  C   UNL     1       6.536  -4.277  -1.974  0.00  0.00    +0.000 A 
ATOM     16  C   UNL     1       5.779  -4.011  -3.113  0.00  0.00    +0.000 A 
ENDBRANCH  10  11
ENDBRANCH   1  10
TORSDOF 2
ENDMDL
MODEL 5
REMARK VINA RESULT:    -5.578      3.483      4.498
REMARK INTER + INTRA:          -6.357
REMARK INTER:                  -6.236
REMARK INTRA:                  -0.121
REMARK UNBOUND:                -0.127
REMARK  Name = 1550473
REMARK  2 active torsions:
REMARK  status: ('A' for Active; 'I' for Inactive)
REMARK    1  A    between atoms: N_1  and  C_4
REMARK    2  A    between atoms: C_4  and  C_5
REMARK                            x       y       z     vdW  Elec       q    Type
REMARK                         _______ _______ _______ _____ _____    ______ ____
ROOT
ATOM      1  N   UNL     1       3.900  -0.225  -2.100  0.00  0.00    -0.354 N 
ATOM      2  N   UNL     1       2.426   0.805  -0.640  0.00  0.00    -0.372 N 
ATOM      3  N   UNL     1       4.631   1.439  -0.620  0.00  0.00    -0.372 N 
ATOM      4  C   UNL     1       3.664   0.667  -1.129  0.00  0.00    +0.166 C 
ATOM      5  H   UNL     1       3.131  -0.801  -2.421  0.00  0.00    +0.163 HD
ATOM      6  H   UNL     1       2.217   1.472   0.090  0.00  0.00    +0.159 HD
ATOM      7  H   UNL     1       1.649   0.260  -0.996  0.00  0.00    +0.159 HD
ATOM      8  H   UNL     1       5.588   1.380  -0.941  0.00  0.00    +0.159 HD
ATOM      9  H   UNL     1       4.444   2.105   0.120  0.00  0.00    +0.159 HD
ENDROOT
BRANCH   1  10
ATOM     10  C   UNL     1       5.202  -0.415  -2.737  0.00  0.00    +0.151 C 
BRANCH  10  11
ATOM     11  C   UNL     1       5.546  -1.878  -2.725  0.00  0.00    -0.028 A 
ATOM     12  C   UNL     1       4.853  -2.780  -3.546  0.00  0.00    +0.005 A 
ATOM     13  C   UNL     1       6.569  -2.370  -1.899  0.00  0.00    +0.005 A 
ATOM     14  C   UNL     1       5.192  -4.135  -3.558  0.00  0.00    +0.000 A 
ATOM     15  C   UNL     1       6.904  -3.724  -1.913  0.00  0.00    +0.000 A 
ATOM     16  C   UNL     1       6.217  -4.605  -2.744  0.00  0.00    +0.000 A 
ENDBRANCH  10  11
ENDBRANCH   1  10
TORSDOF 2
ENDMDL
MODEL 6
REMARK VINA RESULT:    -5.035      9.110      9.709
REMARK INTER + INTRA:          -5.751
REMARK INTER:                  -5.604
REMARK INTRA:                  -0.147
REMARK UNBOUND:                -0.127
REMARK  Name = 1550473
REMARK  2 active torsions:
REMARK  status: ('A' for Active; 'I' for Inactive)
REMARK    1  A    between atoms: N_1  and  C_4
REMARK    2  A    between atoms: C_4  and  C_5
REMARK                            x       y       z     vdW  Elec       q    Type
REMARK                         _______ _______ _______ _____ _____    ______ ____
ROOT
ATOM      1  N   UNL     1       0.215  -0.240   3.927  0.00  0.00    -0.354 N 
ATOM      2  N   UNL     1      -1.503  -1.255   5.103  0.00  0.00    -0.372 N 
ATOM      3  N   UNL     1      -0.572  -2.362   3.322  0.00  0.00    -0.372 N 
ATOM      4  C   UNL     1      -0.608  -1.281   4.108  0.00  0.00    +0.166 C 
ATOM      5  H   UNL     1       0.117   0.563   4.538  0.00  0.00    +0.163 HD
ATOM      6  H   UNL     1      -2.135  -2.027   5.266  0.00  0.00    +0.159 HD
ATOM      7  H   UNL     1      -1.568  -0.471   5.741  0.00  0.00    +0.159 HD
ATOM      8  H   UNL     1       0.076  -2.442   2.549  0.00  0.00    +0.159 HD
ATOM      9  H   UNL     1      -1.205  -3.140   3.461  0.00  0.00    +0.159 HD
ENDROOT
BRANCH   1  10
ATOM     10  C   UNL     1       1.261  -0.191   2.907  0.00  0.00    +0.151 C 
BRANCH  10  11
ATOM     11  C   UNL     1       1.095   1.063   2.093  0.00  0.00    -0.028 A 
ATOM     12  C   UNL     1       2.109   2.031   2.063  0.00  0.00    +0.005 A 
ATOM     13  C   UNL     1      -0.071   1.286   1.345  0.00  0.00    +0.005 A 
ATOM     14  C   UNL     1       1.969   3.182   1.284  0.00  0.00    +0.000 A 
ATOM     15  C   UNL     1      -0.208   2.437   0.569  0.00  0.00    +0.000 A 
ATOM     16  C   UNL     1       0.813   3.383   0.537  0.00  0.00    +0.000 A 
ENDBRANCH  10  11
ENDBRANCH   1  10
TORSDOF 2
ENDMDL
MODEL 7
REMARK VINA RESULT:    -4.807     13.645     14.774
REMARK INTER + INTRA:          -5.495
REMARK INTER:                  -5.354
REMARK INTRA:                  -0.141
REMARK UNBOUND:                -0.127
REMARK  Name = 1550473
REMARK  2 active torsions:
REMARK  status: ('A' for Active; 'I' for Inactive)
REMARK    1  A    between atoms: N_1  and  C_4
REMARK    2  A    between atoms: C_4  and  C_5
REMARK                            x       y       z     vdW  Elec       q    Type
REMARK                         _______ _______ _______ _____ _____    ______ ____
ROOT
ATOM      1  N   UNL     1      -4.594  -1.540   5.249  0.00  0.00    -0.354 N 
ATOM      2  N   UNL     1      -2.324  -1.110   5.404  0.00  0.00    -0.372 N 
ATOM      3  N   UNL     1      -3.798   0.641   5.565  0.00  0.00    -0.372 N 
ATOM      4  C   UNL     1      -3.588  -0.670   5.405  0.00  0.00    +0.166 C 
ATOM      5  H   UNL     1      -4.367  -2.517   5.102  0.00  0.00    +0.163 HD
ATOM      6  H   UNL     1      -1.544  -0.477   5.524  0.00  0.00    +0.159 HD
ATOM      7  H   UNL     1      -2.102  -2.093   5.303  0.00  0.00    +0.159 HD
ATOM      8  H   UNL     1      -4.728   1.038   5.569  0.00  0.00    +0.159 HD
ATOM      9  H   UNL     1      -3.030   1.292   5.674  0.00  0.00    +0.159 HD
ENDROOT
BRANCH   1  10
ATOM     10  C   UNL     1      -6.008  -1.171   5.289  0.00  0.00    +0.151 C 
BRANCH  10  11
ATOM     11  C   UNL     1      -6.715  -1.807   4.123  0.00  0.00    -0.028 A 
ATOM     12  C   UNL     1      -5.985  -2.310   3.037  0.00  0.00    +0.005 A 
ATOM     13  C   UNL     1      -8.114  -1.914   4.102  0.00  0.00    +0.005 A 
ATOM     14  C   UNL     1      -6.639  -2.927   1.968  0.00  0.00    +0.000 A 
ATOM     15  C   UNL     1      -8.763  -2.530   3.033  0.00  0.00    +0.000 A 
ATOM     16  C   UNL     1      -8.025  -3.039   1.967  0.00  0.00    +0.000 A 
ENDBRANCH  10  11
ENDBRANCH   1  10
TORSDOF 2
ENDMDL
MODEL 8
REMARK VINA RESULT:    -4.778      4.087      4.843
REMARK INTER + INTRA:          -5.463
REMARK INTER:                  -5.315
REMARK INTRA:                  -0.148
REMARK UNBOUND:                -0.127
REMARK  Name = 1550473
REMARK  2 active torsions:
REMARK  status: ('A' for Active; 'I' for Inactive)
REMARK    1  A    between atoms: N_1  and  C_4
REMARK    2  A    between atoms: C_4  and  C_5
REMARK                            x       y       z     vdW  Elec       q    Type
REMARK                         _______ _______ _______ _____ _____    ______ ____
ROOT
ATOM      1  N   UNL     1       4.626   0.931  -0.794  0.00  0.00    -0.354 N 
ATOM      2  N   UNL     1       3.013   1.548   0.750  0.00  0.00    -0.372 N 
ATOM      3  N   UNL     1       2.364   1.054  -1.394  0.00  0.00    -0.372 N 
ATOM      4  C   UNL     1       3.343   1.174  -0.492  0.00  0.00    +0.166 C 
ATOM      5  H   UNL     1       5.324   1.069  -0.073  0.00  0.00    +0.163 HD
ATOM      6  H   UNL     1       2.054   1.735   1.008  0.00  0.00    +0.159 HD
ATOM      7  H   UNL     1       3.708   1.641   1.481  0.00  0.00    +0.159 HD
ATOM      8  H   UNL     1       2.547   0.780  -2.351  0.00  0.00    +0.159 HD
ATOM      9  H   UNL     1       1.398   1.247  -1.158  0.00  0.00    +0.159 HD
ENDROOT
BRANCH   1  10
ATOM     10  C   UNL     1       5.084   0.466  -2.102  0.00  0.00    +0.151 C 
BRANCH  10  11
ATOM     11  C   UNL     1       5.699  -0.898  -1.950  0.00  0.00    -0.028 A 
ATOM     12  C   UNL     1       6.379  -1.245  -0.774  0.00  0.00    +0.005 A 
ATOM     13  C   UNL     1       5.602  -1.849  -2.978  0.00  0.00    +0.005 A 
ATOM     14  C   UNL     1       6.925  -2.522  -0.620  0.00  0.00    +0.000 A 
ATOM     15  C   UNL     1       6.149  -3.122  -2.821  0.00  0.00    +0.000 A 
ATOM     16  C   UNL     1       6.808  -3.459  -1.642  0.00  0.00    +0.000 A 
ENDBRANCH  10  11
ENDBRANCH   1  10
TORSDOF 2
ENDMDL
MODEL 9
REMARK VINA RESULT:    -4.690      8.221      8.572
REMARK INTER + INTRA:          -5.365
REMARK INTER:                  -5.274
REMARK INTRA:                  -0.091
REMARK UNBOUND:                -0.127
REMARK  Name = 1550473
REMARK  2 active torsions:
REMARK  status: ('A' for Active; 'I' for Inactive)
REMARK    1  A    between atoms: N_1  and  C_4
REMARK    2  A    between atoms: C_4  and  C_5
REMARK                            x       y       z     vdW  Elec       q    Type
REMARK                         _______ _______ _______ _____ _____    ______ ____
ROOT
ATOM      1  N   UNL     1      -1.155   2.116  -1.487  0.00  0.00    -0.354 N 
ATOM      2  N   UNL     1      -2.040   1.003  -3.315  0.00  0.00    -0.372 N 
ATOM      3  N   UNL     1      -3.129   2.856  -2.511  0.00  0.00    -0.372 N 
ATOM      4  C   UNL     1      -2.105   2.001  -2.425  0.00  0.00    +0.166 C 
ATOM      5  H   UNL     1      -0.421   1.418  -1.457  0.00  0.00    +0.163 HD
ATOM      6  H   UNL     1      -2.740   0.892  -4.036  0.00  0.00    +0.159 HD
ATOM      7  H   UNL     1      -1.281   0.333  -3.310  0.00  0.00    +0.159 HD
ATOM      8  H   UNL     1      -3.238   3.627  -1.867  0.00  0.00    +0.159 HD
ATOM      9  H   UNL     1      -3.846   2.755  -3.219  0.00  0.00    +0.159 HD
ENDROOT
BRANCH   1  10
ATOM     10  C   UNL     1      -1.103   3.198  -0.505  0.00  0.00    +0.151 C 
BRANCH  10  11
ATOM     11  C   UNL     1       0.169   3.081   0.288  0.00  0.00    -0.028 A 
ATOM     12  C   UNL     1       0.247   2.209   1.384  0.00  0.00    +0.005 A 
ATOM     13  C   UNL     1       1.302   3.835  -0.055  0.00  0.00    +0.005 A 
ATOM     14  C   UNL     1       1.438   2.078   2.102  0.00  0.00    +0.000 A 
ATOM     15  C   UNL     1       2.488   3.701   0.666  0.00  0.00    +0.000 A 
ATOM     16  C   UNL     1       2.557   2.821   1.743  0.00  0.00    +0.000 A 
ENDBRANCH  10  11
ENDBRANCH   1  10
TORSDOF 2
ENDMDL
