MODEL 1
REMARK VINA RESULT:    -5.898      0.000      0.000
REMARK INTER + INTRA:          -6.692
REMARK INTER:                  -6.587
REMARK INTRA:                  -0.105
REMARK UNBOUND:                -0.105
REMARK  Name = 1550473
REMARK  2 active torsions:
REMARK  status: ('A' for Active; 'I' for Inactive)
REMARK    1  A    between atoms: N_1  and  C_4
REMARK    2  A    between atoms: C_4  and  C_5
REMARK                            x       y       z     vdW  Elec       q    Type
REMARK                         _______ _______ _______ _____ _____    ______ ____
ROOT
ATOM      1  N   UNL     1      -6.624   3.028  -1.742  0.00  0.00    -0.354 N 
ATOM      2  N   UNL     1      -5.276   1.568  -0.551  0.00  0.00    -0.372 N 
ATOM      3  N   UNL     1      -7.319   2.151   0.317  0.00  0.00    -0.372 N 
ATOM      4  C   UNL     1      -6.417   2.259  -0.665  0.00  0.00    +0.166 C 
ATOM      5  H   UNL     1      -5.888   3.090  -2.437  0.00  0.00    +0.163 HD
ATOM      6  H   UNL     1      -5.094   0.977   0.249  0.00  0.00    +0.159 HD
ATOM      7  H   UNL     1      -4.563   1.596  -1.269  0.00  0.00    +0.159 HD
ATOM      8  H   UNL     1      -8.197   2.651   0.294  0.00  0.00    +0.159 HD
ATOM      9  H   UNL     1      -7.149   1.574   1.131  0.00  0.00    +0.159 HD
ENDROOT
BRANCH   1  10
ATOM     10  C   UNL     1      -7.854   3.778  -1.988  0.00  0.00    +0.151 C 
BRANCH  10  11
ATOM     11  C   UNL     1      -7.829   4.317  -3.391  0.00  0.00    -0.028 A 
ATOM     12  C   UNL     1      -7.960   5.693  -3.628  0.00  0.00    +0.005 A 
ATOM     13  C   UNL     1      -7.667   3.458  -4.489  0.00  0.00    +0.005 A 
ATOM     14  C   UNL     1      -7.907   6.198  -4.929  0.00  0.00    +0.000 A 
ATOM     15  C   UNL     1      -7.615   3.965  -5.787  0.00  0.00    +0.000 A 
ATOM     16  C   UNL     1      -7.732   5.336  -6.007  0.00  0.00    +0.000 A 
ENDBRANCH  10  11
ENDBRANCH   1  10
TORSDOF 2
ENDMDL
MODEL 2
REMARK VINA RESULT:    -5.280      3.794      5.373
REMARK INTER + INTRA:          -6.003
REMARK INTER:                  -5.868
REMARK INTRA:                  -0.134
REMARK UNBOUND:                -0.105
REMARK  Name = 1550473
REMARK  2 active torsions:
REMARK  status: ('A' for Active; 'I' for Inactive)
REMARK    1  A    between atoms: N_1  and  C_4
REMARK    2  A    between atoms: C_4  and  C_5
REMARK                            x       y       z     vdW  Elec       q    Type
REMARK                         _______ _______ _______ _____ _____    ______ ____
ROOT
ATOM      1  N   UNL     1      -7.284   2.647  -7.364  0.00  0.00    -0.354 N 
ATOM      2  N   UNL     1      -6.066   0.939  -8.346  0.00  0.00    -0.372 N 
ATOM      3  N   UNL     1      -5.938   3.048  -9.241  0.00  0.00    -0.372 N 
ATOM      4  C   UNL     1      -6.437   2.225  -8.313  0.00  0.00    +0.166 C 
ATOM      5  H   UNL     1      -7.649   1.967  -6.708  0.00  0.00    +0.163 HD
ATOM      6  H   UNL     1      -5.426   0.592  -9.048  0.00  0.00    +0.159 HD
ATOM      7  H   UNL     1      -6.398   0.271  -7.661  0.00  0.00    +0.159 HD
ATOM      8  H   UNL     1      -6.183   4.029  -9.274  0.00  0.00    +0.159 HD
ATOM      9  H   UNL     1      -5.305   2.717  -9.958  0.00  0.00    +0.159 HD
ENDROOT
BRANCH   1  10
ATOM     10  C   UNL     1      -7.708   4.037  -7.207  0.00  0.00    +0.151 C 
BRANCH  10  11
ATOM     11  C   UNL     1      -7.771   4.369  -5.742  0.00  0.00    -0.028 A 
ATOM     12  C   UNL     1      -7.673   3.355  -4.778  0.00  0.00    +0.005 A 
ATOM     13  C   UNL     1      -7.924   5.695  -5.311  0.00  0.00    +0.005 A 
ATOM     14  C   UNL     1      -7.702   3.665  -3.416  0.00  0.00    +0.000 A 
ATOM     15  C   UNL     1      -7.953   6.001  -3.950  0.00  0.00    +0.000 A 
ATOM     16  C   UNL     1      -7.840   4.986  -3.003  0.00  0.00    +0.000 A 
ENDBRANCH  10  11
ENDBRANCH   1  10
TORSDOF 2
ENDMDL
MODEL 3
REMARK VINA RESULT:    -5.258      1.676      1.713
REMARK INTER + INTRA:          -5.978
REMARK INTER:                  -5.801
REMARK INTRA:                  -0.177
REMARK UNBOUND:                -0.105
REMARK  Name = 1550473
REMARK  2 active torsions:
REMARK  status: ('A' for Active; 'I' for Inactive)
REMARK    1  A    between atoms: N_1  and  C_4
REMARK    2  A    between atoms: C_4  and  C_5
REMARK                            x       y       z     vdW  Elec       q    Type
REMARK                         _______ _______ _______ _____ _____    ______ ____
ROOT
ATOM      1  N   UNL     1      -5.846   2.928  -2.986  0.00  0.00    -0.354 N 
ATOM      2  N   UNL     1      -3.623   2.880  -2.337  0.00  0.00    -0.372 N 
ATOM      3  N   UNL     1      -5.079   4.248  -1.208  0.00  0.00    -0.372 N 
ATOM      4  C   UNL     1      -4.865   3.354  -2.179  0.00  0.00    +0.166 C 
ATOM      5  H   UNL     1      -5.613   2.272  -3.723  0.00  0.00    +0.163 HD
ATOM      6  H   UNL     1      -2.864   3.180  -1.741  0.00  0.00    +0.159 HD
ATOM      7  H   UNL     1      -3.402   2.190  -3.044  0.00  0.00    +0.159 HD
ATOM      8  H   UNL     1      -5.992   4.649  -1.041  0.00  0.00    +0.159 HD
ATOM      9  H   UNL     1      -4.329   4.570  -0.609  0.00  0.00    +0.159 HD
ENDROOT
BRANCH   1  10
ATOM     10  C   UNL     1      -7.243   3.342  -2.864  0.00  0.00    +0.151 C 
BRANCH  10  11
ATOM     11  C   UNL     1      -7.561   4.324  -3.957  0.00  0.00    -0.028 A 
ATOM     12  C   UNL     1      -7.837   5.665  -3.652  0.00  0.00    +0.005 A 
ATOM     13  C   UNL     1      -7.584   3.921  -5.302  0.00  0.00    +0.005 A 
ATOM     14  C   UNL     1      -8.103   6.584  -4.669  0.00  0.00    +0.000 A 
ATOM     15  C   UNL     1      -7.851   4.842  -6.315  0.00  0.00    +0.000 A 
ATOM     16  C   UNL     1      -8.108   6.174  -5.998  0.00  0.00    +0.000 A 
ENDBRANCH  10  11
ENDBRANCH   1  10
TORSDOF 2
ENDMDL
MODEL 4
REMARK VINA RESULT:    -5.224      4.636      6.503
REMARK INTER + INTRA:          -5.940
REMARK INTER:                  -5.835
REMARK INTRA:                  -0.105
REMARK UNBOUND:                -0.105
REMARK  Name = 1550473
REMARK  2 active torsions:
REMARK  status: ('A' for Active; 'I' for Inactive)
REMARK    1  A    between atoms: N_1  and  C_4
REMARK    2  A    between atoms: C_4  and  C_5
REMARK                            x       y       z     vdW  Elec       q    Type
REMARK                         _______ _______ _______ _____ _____    ______ ____
ROOT
ATOM      1  N   UNL     1      -9.001   6.926  -7.195  0.00  0.00    -0.354 N 
ATOM      2  N   UNL     1     -10.434   7.582  -8.891  0.00  0.00    -0.372 N 
ATOM      3  N   UNL     1      -9.430   9.193  -7.603  0.00  0.00    -0.372 N 
ATOM      4  C   UNL     1      -9.612   7.899  -7.884  0.00  0.00    +0.166 C 
ATOM      5  H   UNL     1      -9.204   5.963  -7.438  0.00  0.00    +0.163 HD
ATOM      6  H   UNL     1     -10.907   8.294  -9.432  0.00  0.00    +0.159 HD
ATOM      7  H   UNL     1     -10.600   6.620  -9.162  0.00  0.00    +0.159 HD
ATOM      8  H   UNL     1      -8.827   9.499  -6.851  0.00  0.00    +0.159 HD
ATOM      9  H   UNL     1      -9.903   9.921  -8.125  0.00  0.00    +0.159 HD
ENDROOT
BRANCH   1  10
ATOM     10  C   UNL     1      -8.045   7.166  -6.115  0.00  0.00    +0.151 C 
BRANCH  10  11
ATOM     11  C   UNL     1      -7.928   5.922  -5.277  0.00  0.00    -0.028 A 
ATOM     12  C   UNL     1      -7.712   4.675  -5.881  0.00  0.00    +0.005 A 
ATOM     13  C   UNL     1      -8.028   5.985  -3.879  0.00  0.00    +0.005 A 
ATOM     14  C   UNL     1      -7.574   3.524  -5.101  0.00  0.00    +0.000 A 
ATOM     15  C   UNL     1      -7.890   4.834  -3.104  0.00  0.00    +0.000 A 
ATOM     16  C   UNL     1      -7.661   3.604  -3.715  0.00  0.00    +0.000 A 
ENDBRANCH  10  11
ENDBRANCH   1  10
TORSDOF 2
ENDMDL
MODEL 5
REMARK VINA RESULT:    -5.173      4.423      6.279
REMARK INTER + INTRA:          -5.883
REMARK INTER:                  -5.764
REMARK INTRA:                  -0.119
REMARK UNBOUND:                -0.105
REMARK  Name = 1550473
REMARK  2 active torsions:
REMARK  status: ('A' for Active; 'I' for Inactive)
REMARK    1  A    between atoms: N_1  and  C_4
REMARK    2  A    between atoms: C_4  and  C_5
REMARK                            x       y       z     vdW  Elec       q    Type
REMARK                         _______ _______ _______ _____ _____    ______ ____
ROOT
ATOM      1  N   UNL     1      -8.942   4.210  -7.937  0.00  0.00    -0.354 N 
ATOM      2  N   UNL     1     -10.211   4.828  -9.774  0.00  0.00    -0.372 N 
ATOM      3  N   UNL     1      -7.935   4.655 -10.006  0.00  0.00    -0.372 N 
ATOM      4  C   UNL     1      -9.018   4.560  -9.228  0.00  0.00    +0.166 C 
ATOM      5  H   UNL     1      -9.797   4.186  -7.394  0.00  0.00    +0.163 HD
ATOM      6  H   UNL     1     -10.300   5.092 -10.746  0.00  0.00    +0.159 HD
ATOM      7  H   UNL     1     -11.069   4.759  -9.240  0.00  0.00    +0.159 HD
ATOM      8  H   UNL     1      -7.005   4.471  -9.653  0.00  0.00    +0.159 HD
ATOM      9  H   UNL     1      -8.002   4.929 -10.978  0.00  0.00    +0.159 HD
ENDROOT
BRANCH   1  10
ATOM     10  C   UNL     1      -7.698   3.845  -7.261  0.00  0.00    +0.151 C 
BRANCH  10  11
ATOM     11  C   UNL     1      -7.766   4.300  -5.829  0.00  0.00    -0.028 A 
ATOM     12  C   UNL     1      -7.677   3.371  -4.782  0.00  0.00    +0.005 A 
ATOM     13  C   UNL     1      -7.915   5.659  -5.513  0.00  0.00    +0.005 A 
ATOM     14  C   UNL     1      -7.710   3.796  -3.452  0.00  0.00    +0.000 A 
ATOM     15  C   UNL     1      -7.948   6.080  -4.183  0.00  0.00    +0.000 A 
ATOM     16  C   UNL     1      -7.843   5.148  -3.153  0.00  0.00    +0.000 A 
ENDBRANCH  10  11
ENDBRANCH   1  10
TORSDOF 2
ENDMDL
MODEL 6
REMARK VINA RESULT:    -5.062      1.759      2.608
REMARK INTER + INTRA:          -5.759
REMARK INTER:                  -5.623
REMARK INTRA:                  -0.136
REMARK UNBOUND:                -0.105
REMARK  Name = 1550473
REMARK  2 active torsions:
REMARK  status: ('A' for Active; 'I' for Inactive)
REMARK    1  A    between atoms: N_1  and  C_4
REMARK    2  A    between atoms: C_4  and  C_5
REMARK                            x       y       z     vdW  Elec       q    Type
REMARK                         _______ _______ _______ _____ _____    ______ ____
ROOT
ATOM      1  N   UNL     1      -6.347   3.533  -2.556  0.00  0.00    -0.354 N 
ATOM      2  N   UNL     1      -4.156   3.796  -1.854  0.00  0.00    -0.372 N 
ATOM      3  N   UNL     1      -4.555   3.023  -3.977  0.00  0.00    -0.372 N 
ATOM      4  C   UNL     1      -5.033   3.448  -2.803  0.00  0.00    +0.166 C 
ATOM      5  H   UNL     1      -6.645   3.833  -1.635  0.00  0.00    +0.163 HD
ATOM      6  H   UNL     1      -3.158   3.746  -2.012  0.00  0.00    +0.159 HD
ATOM      7  H   UNL     1      -4.457   4.140  -0.950  0.00  0.00    +0.159 HD
ATOM      8  H   UNL     1      -5.164   2.740  -4.733  0.00  0.00    +0.159 HD
ATOM      9  H   UNL     1      -3.559   2.955  -4.151  0.00  0.00    +0.159 HD
ENDROOT
BRANCH   1  10
ATOM     10  C   UNL     1      -7.385   3.229  -3.540  0.00  0.00    +0.151 C 
BRANCH  10  11
ATOM     11  C   UNL     1      -7.645   4.453  -4.373  0.00  0.00    -0.028 A 
ATOM     12  C   UNL     1      -7.626   4.378  -5.774  0.00  0.00    +0.005 A 
ATOM     13  C   UNL     1      -7.917   5.690  -3.769  0.00  0.00    +0.005 A 
ATOM     14  C   UNL     1      -7.897   5.508  -6.549  0.00  0.00    +0.000 A 
ATOM     15  C   UNL     1      -8.186   6.816  -4.546  0.00  0.00    +0.000 A 
ATOM     16  C   UNL     1      -8.179   6.724  -5.936  0.00  0.00    +0.000 A 
ENDBRANCH  10  11
ENDBRANCH   1  10
TORSDOF 2
ENDMDL
MODEL 7
REMARK VINA RESULT:    -4.848      3.617      4.740
REMARK INTER + INTRA:          -5.520
REMARK INTER:                  -5.394
REMARK INTRA:                  -0.126
REMARK UNBOUND:                -0.105
REMARK  Name = 1550473
REMARK  2 active torsions:
REMARK  status: ('A' for Active; 'I' for Inactive)
REMARK    1  A    between atoms: N_1  and  C_4
REMARK    2  A    between atoms: C_4  and  C_5
REMARK                            x       y       z     vdW  Elec       q    Type
REMARK                         _______ _______ _______ _____ _____    ______ ____
ROOT
ATOM      1  N   UNL     1      -5.454   3.542  -6.867  0.00  0.00    -0.354 N 
ATOM      2  N   UNL     1      -3.609   2.235  -7.367  0.00  0.00    -0.372 N 
ATOM      3  N   UNL     1      -5.690   1.504  -8.000  0.00  0.00    -0.372 N 
ATOM      4  C   UNL     1      -4.932   2.434  -7.409  0.00  0.00    +0.166 C 
ATOM      5  H   UNL     1      -4.829   4.194  -6.407  0.00  0.00    +0.163 HD
ATOM      6  H   UNL     1      -3.186   1.410  -7.771  0.00  0.00    +0.159 HD
ATOM      7  H   UNL     1      -2.982   2.910  -6.948  0.00  0.00    +0.159 HD
ATOM      8  H   UNL     1      -6.696   1.592  -8.059  0.00  0.00    +0.159 HD
ATOM      9  H   UNL     1      -5.287   0.666  -8.399  0.00  0.00    +0.159 HD
ENDROOT
BRANCH   1  10
ATOM     10  C   UNL     1      -6.876   3.880  -6.906  0.00  0.00    +0.151 C 
BRANCH  10  11
ATOM     11  C   UNL     1      -7.301   4.374  -5.551  0.00  0.00    -0.028 A 
ATOM     12  C   UNL     1      -7.566   5.735  -5.340  0.00  0.00    +0.005 A 
ATOM     13  C   UNL     1      -7.447   3.485  -4.475  0.00  0.00    +0.005 A 
ATOM     14  C   UNL     1      -7.990   6.190  -4.089  0.00  0.00    +0.000 A 
ATOM     15  C   UNL     1      -7.870   3.943  -3.228  0.00  0.00    +0.000 A 
ATOM     16  C   UNL     1      -8.144   5.295  -3.036  0.00  0.00    +0.000 A 
ENDBRANCH  10  11
ENDBRANCH   1  10
TORSDOF 2
ENDMDL
MODEL 8
REMARK VINA RESULT:    -4.520      3.135      3.762
REMARK INTER + INTRA:          -5.154
REMARK INTER:                  -4.988
REMARK INTRA:                  -0.166
REMARK UNBOUND:                -0.105
REMARK  Name = 1550473
REMARK  2 active torsions:
REMARK  status: ('A' for Active; 'I' for Inactive)
REMARK    1  A    between atoms: N_1  and  C_4
REMARK    2  A    between atoms: C_4  and  C_5
REMARK                            x       y       z     vdW  Elec       q    Type
REMARK                         _______ _______ _______ _____ _____    ______ ____
ROOT
ATOM      1  N   UNL     1      -3.876   3.719  -4.562  0.00  0.00    -0.354 N 
ATOM      2  N   UNL     1      -1.681   4.454  -4.641  0.00  0.00    -0.372 N 
ATOM      3  N   UNL     1      -2.826   4.591  -2.657  0.00  0.00    -0.372 N 
ATOM      4  C   UNL     1      -2.809   4.251  -3.950  0.00  0.00    +0.166 C 
ATOM      5  H   UNL     1      -3.809   3.511  -5.552  0.00  0.00    +0.163 HD
ATOM      6  H   UNL     1      -0.859   4.850  -4.205  0.00  0.00    +0.159 HD
ATOM      7  H   UNL     1      -1.602   4.202  -5.619  0.00  0.00    +0.159 HD
ATOM      8  H   UNL     1      -3.648   4.469  -2.082  0.00  0.00    +0.159 HD
ATOM      9  H   UNL     1      -2.017   5.000  -2.206  0.00  0.00    +0.159 HD
ENDROOT
BRANCH   1  10
ATOM     10  C   UNL     1      -5.135   3.408  -3.887  0.00  0.00    +0.151 C 
BRANCH  10  11
ATOM     11  C   UNL     1      -6.139   4.483  -4.200  0.00  0.00    -0.028 A 
ATOM     12  C   UNL     1      -6.193   5.057  -5.479  0.00  0.00    +0.005 A 
ATOM     13  C   UNL     1      -7.043   4.929  -3.223  0.00  0.00    +0.005 A 
ATOM     14  C   UNL     1      -7.145   6.034  -5.778  0.00  0.00    +0.000 A 
ATOM     15  C   UNL     1      -7.991   5.905  -3.526  0.00  0.00    +0.000 A 
ATOM     16  C   UNL     1      -8.044   6.456  -4.804  0.00  0.00    +0.000 A 
ENDBRANCH  10  11
ENDBRANCH   1  10
TORSDOF 2
ENDMDL
MODEL 9
REMARK VINA RESULT:    -4.466      3.452      4.241
REMARK INTER + INTRA:          -5.093
REMARK INTER:                  -4.938
REMARK INTRA:                  -0.154
REMARK UNBOUND:                -0.105
REMARK  Name = 1550473
REMARK  2 active torsions:
REMARK  status: ('A' for Active; 'I' for Inactive)
REMARK    1  A    between atoms: N_1  and  C_4
REMARK    2  A    between atoms: C_4  and  C_5
REMARK                            x       y       z     vdW  Elec       q    Type
REMARK                         _______ _______ _______ _____ _____    ______ ____
ROOT
ATOM      1  N   UNL     1      -3.295   4.071  -4.669  0.00  0.00    -0.354 N 
ATOM      2  N   UNL     1      -1.225   4.651  -3.808  0.00  0.00    -0.372 N 
ATOM      3  N   UNL     1      -2.036   2.540  -3.419  0.00  0.00    -0.372 N 
ATOM      4  C   UNL     1      -2.199   3.747  -3.970  0.00  0.00    +0.166 C 
ATOM      5  H   UNL     1      -3.372   5.013  -5.035  0.00  0.00    +0.163 HD
ATOM      6  H   UNL     1      -0.385   4.434  -3.288  0.00  0.00    +0.159 HD
ATOM      7  H   UNL     1      -1.284   5.577  -4.214  0.00  0.00    +0.159 HD
ATOM      8  H   UNL     1      -2.737   1.815  -3.500  0.00  0.00    +0.159 HD
ATOM      9  H   UNL     1      -1.208   2.308  -2.886  0.00  0.00    +0.159 HD
ENDROOT
BRANCH   1  10
ATOM     10  C   UNL     1      -4.390   3.144  -4.949  0.00  0.00    +0.151 C 
BRANCH  10  11
ATOM     11  C   UNL     1      -5.644   3.650  -4.290  0.00  0.00    -0.028 A 
ATOM     12  C   UNL     1      -6.079   3.105  -3.073  0.00  0.00    +0.005 A 
ATOM     13  C   UNL     1      -6.397   4.679  -4.875  0.00  0.00    +0.005 A 
ATOM     14  C   UNL     1      -7.227   3.596  -2.446  0.00  0.00    +0.000 A 
ATOM     15  C   UNL     1      -7.543   5.166  -4.246  0.00  0.00    +0.000 A 
ATOM     16  C   UNL     1      -7.956   4.625  -3.031  0.00  0.00    +0.000 A 
ENDBRANCH  10  11
ENDBRANCH   1  10
TORSDOF 2
ENDMDL
