MODEL 1
REMARK VINA RESULT:    -4.603      0.000      0.000
REMARK INTER + INTRA:          -5.266
REMARK INTER:                  -5.142
REMARK INTRA:                  -0.124
REMARK UNBOUND:                -0.124
REMARK  Name = 1550473
REMARK  2 active torsions:
REMARK  status: ('A' for Active; 'I' for Inactive)
REMARK    1  A    between atoms: N_1  and  C_4
REMARK    2  A    between atoms: C_4  and  C_5
REMARK                            x       y       z     vdW  Elec       q    Type
REMARK                         _______ _______ _______ _____ _____    ______ ____
ROOT
ATOM      1  N   UNL     1      -7.775   2.522 -15.004  0.00  0.00    -0.354 N 
ATOM      2  N   UNL     1      -7.068   0.402 -15.614  0.00  0.00    -0.372 N 
ATOM      3  N   UNL     1      -6.215   2.219 -16.726  0.00  0.00    -0.372 N 
ATOM      4  C   UNL     1      -7.023   1.730 -15.780  0.00  0.00    +0.166 C 
ATOM      5  H   UNL     1      -8.389   2.087 -14.325  0.00  0.00    +0.163 HD
ATOM      6  H   UNL     1      -6.509  -0.220 -16.182  0.00  0.00    +0.159 HD
ATOM      7  H   UNL     1      -7.648  -0.027 -14.904  0.00  0.00    +0.159 HD
ATOM      8  H   UNL     1      -6.139   3.212 -16.905  0.00  0.00    +0.159 HD
ATOM      9  H   UNL     1      -5.656   1.612 -17.313  0.00  0.00    +0.159 HD
ENDROOT
BRANCH   1  10
ATOM     10  C   UNL     1      -7.759   3.982 -15.067  0.00  0.00    +0.151 C 
BRANCH  10  11
ATOM     11  C   UNL     1      -7.511   4.530 -13.689  0.00  0.00    -0.028 A 
ATOM     12  C   UNL     1      -8.389   4.235 -12.636  0.00  0.00    +0.005 A 
ATOM     13  C   UNL     1      -6.396   5.341 -13.428  0.00  0.00    +0.005 A 
ATOM     14  C   UNL     1      -8.143   4.719 -11.349  0.00  0.00    +0.000 A 
ATOM     15  C   UNL     1      -6.154   5.823 -12.141  0.00  0.00    +0.000 A 
ATOM     16  C   UNL     1      -7.026   5.510 -11.102  0.00  0.00    +0.000 A 
ENDBRANCH  10  11
ENDBRANCH   1  10
TORSDOF 2
ENDMDL
MODEL 2
REMARK VINA RESULT:    -4.483     25.108     27.328
REMARK INTER + INTRA:          -5.131
REMARK INTER:                  -5.039
REMARK INTRA:                  -0.093
REMARK UNBOUND:                -0.124
REMARK  Name = 1550473
REMARK  2 active torsions:
REMARK  status: ('A' for Active; 'I' for Inactive)
REMARK    1  A    between atoms: N_1  and  C_4
REMARK    2  A    between atoms: C_4  and  C_5
REMARK                            x       y       z     vdW  Elec       q    Type
REMARK                         _______ _______ _______ _____ _____    ______ ____
ROOT
ATOM      1  N   UNL     1      10.556 -14.266 -18.242  0.00  0.00    -0.354 N 
ATOM      2  N   UNL     1       8.473 -13.272 -18.430  0.00  0.00    -0.372 N 
ATOM      3  N   UNL     1       8.787 -15.365 -19.316  0.00  0.00    -0.372 N 
ATOM      4  C   UNL     1       9.285 -14.310 -18.663  0.00  0.00    +0.166 C 
ATOM      5  H   UNL     1      10.881 -13.425 -17.779  0.00  0.00    +0.163 HD
ATOM      6  H   UNL     1       7.508 -13.278 -18.733  0.00  0.00    +0.159 HD
ATOM      7  H   UNL     1       8.788 -12.452 -17.926  0.00  0.00    +0.159 HD
ATOM      8  H   UNL     1       9.350 -16.178 -19.529  0.00  0.00    +0.159 HD
ATOM      9  H   UNL     1       7.827 -15.385 -19.638  0.00  0.00    +0.159 HD
ENDROOT
BRANCH   1  10
ATOM     10  C   UNL     1      11.508 -15.365 -18.397  0.00  0.00    +0.151 C 
BRANCH  10  11
ATOM     11  C   UNL     1      12.576 -14.955 -19.372  0.00  0.00    -0.028 A 
ATOM     12  C   UNL     1      13.906 -15.361 -19.184  0.00  0.00    +0.005 A 
ATOM     13  C   UNL     1      12.266 -14.165 -20.490  0.00  0.00    +0.005 A 
ATOM     14  C   UNL     1      14.893 -15.006 -20.106  0.00  0.00    +0.000 A 
ATOM     15  C   UNL     1      13.255 -13.811 -21.407  0.00  0.00    +0.000 A 
ATOM     16  C   UNL     1      14.568 -14.234 -21.216  0.00  0.00    +0.000 A 
ENDBRANCH  10  11
ENDBRANCH   1  10
TORSDOF 2
ENDMDL
MODEL 3
REMARK VINA RESULT:    -4.313     25.881     26.393
REMARK INTER + INTRA:          -4.942
REMARK INTER:                  -4.786
REMARK INTRA:                  -0.156
REMARK UNBOUND:                -0.124
REMARK  Name = 1550473
REMARK  2 active torsions:
REMARK  status: ('A' for Active; 'I' for Inactive)
REMARK    1  A    between atoms: N_1  and  C_4
REMARK    2  A    between atoms: C_4  and  C_5
REMARK                            x       y       z     vdW  Elec       q    Type
REMARK                         _______ _______ _______ _____ _____    ______ ____
ROOT
ATOM      1  N   UNL     1      10.213 -15.077  -4.624  0.00  0.00    -0.354 N 
ATOM      2  N   UNL     1      10.004 -17.377  -4.807  0.00  0.00    -0.372 N 
ATOM      3  N   UNL     1       8.300 -16.044  -5.571  0.00  0.00    -0.372 N 
ATOM      4  C   UNL     1       9.504 -16.150  -5.000  0.00  0.00    +0.166 C 
ATOM      5  H   UNL     1      11.106 -15.226  -4.169  0.00  0.00    +0.163 HD
ATOM      6  H   UNL     1       9.494 -18.205  -5.084  0.00  0.00    +0.159 HD
ATOM      7  H   UNL     1      10.918 -17.521  -4.394  0.00  0.00    +0.159 HD
ATOM      8  H   UNL     1       7.864 -15.147  -5.739  0.00  0.00    +0.159 HD
ATOM      9  H   UNL     1       7.769 -16.862  -5.844  0.00  0.00    +0.159 HD
ENDROOT
BRANCH   1  10
ATOM     10  C   UNL     1       9.782 -13.697  -4.838  0.00  0.00    +0.151 C 
BRANCH  10  11
ATOM     11  C   UNL     1       9.471 -13.067  -3.509  0.00  0.00    -0.028 A 
ATOM     12  C   UNL     1      10.285 -12.046  -2.996  0.00  0.00    +0.005 A 
ATOM     13  C   UNL     1       8.360 -13.483  -2.759  0.00  0.00    +0.005 A 
ATOM     14  C   UNL     1       9.979 -11.440  -1.775  0.00  0.00    +0.000 A 
ATOM     15  C   UNL     1       8.058 -12.877  -1.540  0.00  0.00    +0.000 A 
ATOM     16  C   UNL     1       8.866 -11.854  -1.049  0.00  0.00    +0.000 A 
ENDBRANCH  10  11
ENDBRANCH   1  10
TORSDOF 2
ENDMDL
MODEL 4
REMARK VINA RESULT:    -4.180     25.095     26.564
REMARK INTER + INTRA:          -4.793
REMARK INTER:                  -4.695
REMARK INTRA:                  -0.098
REMARK UNBOUND:                -0.124
REMARK  Name = 1550473
REMARK  2 active torsions:
REMARK  status: ('A' for Active; 'I' for Inactive)
REMARK    1  A    between atoms: N_1  and  C_4
REMARK    2  A    between atoms: C_4  and  C_5
REMARK                            x       y       z     vdW  Elec       q    Type
REMARK                         _______ _______ _______ _____ _____    ______ ____
ROOT
ATOM      1  N   UNL     1       8.787 -15.818 -18.333  0.00  0.00    -0.354 N 
ATOM      2  N   UNL     1       8.858 -13.519 -18.605  0.00  0.00    -0.372 N 
ATOM      3  N   UNL     1       9.920 -14.851 -20.143  0.00  0.00    -0.372 N 
ATOM      4  C   UNL     1       9.190 -14.746 -19.027  0.00  0.00    +0.166 C 
ATOM      5  H   UNL     1       8.262 -15.670 -17.479  0.00  0.00    +0.163 HD
ATOM      6  H   UNL     1       9.145 -12.691 -19.109  0.00  0.00    +0.159 HD
ATOM      7  H   UNL     1       8.294 -13.376 -17.776  0.00  0.00    +0.159 HD
ATOM      8  H   UNL     1      10.208 -15.748 -20.511  0.00  0.00    +0.159 HD
ATOM      9  H   UNL     1      10.226 -14.034 -20.655  0.00  0.00    +0.159 HD
ENDROOT
BRANCH   1  10
ATOM     10  C   UNL     1       9.049 -17.199 -18.737  0.00  0.00    +0.151 C 
BRANCH  10  11
ATOM     11  C   UNL     1       7.943 -18.079 -18.224  0.00  0.00    -0.028 A 
ATOM     12  C   UNL     1       7.914 -18.474 -16.878  0.00  0.00    +0.005 A 
ATOM     13  C   UNL     1       6.918 -18.517 -19.077  0.00  0.00    +0.005 A 
ATOM     14  C   UNL     1       6.870 -19.267 -16.394  0.00  0.00    +0.000 A 
ATOM     15  C   UNL     1       5.879 -19.309 -18.590  0.00  0.00    +0.000 A 
ATOM     16  C   UNL     1       5.854 -19.682 -17.248  0.00  0.00    +0.000 A 
ENDBRANCH  10  11
ENDBRANCH   1  10
TORSDOF 2
ENDMDL
MODEL 5
REMARK VINA RESULT:    -4.174     18.492     19.365
REMARK INTER + INTRA:          -4.787
REMARK INTER:                  -4.645
REMARK INTRA:                  -0.142
REMARK UNBOUND:                -0.124
REMARK  Name = 1550473
REMARK  2 active torsions:
REMARK  status: ('A' for Active; 'I' for Inactive)
REMARK    1  A    between atoms: N_1  and  C_4
REMARK    2  A    between atoms: C_4  and  C_5
REMARK                            x       y       z     vdW  Elec       q    Type
REMARK                         _______ _______ _______ _____ _____    ______ ____
ROOT
ATOM      1  N   UNL     1      11.865   0.503  -9.003  0.00  0.00    -0.354 N 
ATOM      2  N   UNL     1      11.576  -1.389 -10.306  0.00  0.00    -0.372 N 
ATOM      3  N   UNL     1      10.480   0.539 -10.892  0.00  0.00    -0.372 N 
ATOM      4  C   UNL     1      11.307  -0.102 -10.060  0.00  0.00    +0.166 C 
ATOM      5  H   UNL     1      12.460  -0.046  -8.392  0.00  0.00    +0.163 HD
ATOM      6  H   UNL     1      11.172  -1.872 -11.097  0.00  0.00    +0.159 HD
ATOM      7  H   UNL     1      12.207  -1.923  -9.720  0.00  0.00    +0.159 HD
ATOM      8  H   UNL     1      10.232   1.510 -10.759  0.00  0.00    +0.159 HD
ATOM      9  H   UNL     1      10.057   0.071 -11.684  0.00  0.00    +0.159 HD
ENDROOT
BRANCH   1  10
ATOM     10  C   UNL     1      11.681   1.916  -8.677  0.00  0.00    +0.151 C 
BRANCH  10  11
ATOM     11  C   UNL     1      11.095   2.030  -7.297  0.00  0.00    -0.028 A 
ATOM     12  C   UNL     1      10.146   3.020  -7.006  0.00  0.00    +0.005 A 
ATOM     13  C   UNL     1      11.481   1.146  -6.277  0.00  0.00    +0.005 A 
ATOM     14  C   UNL     1       9.579   3.107  -5.732  0.00  0.00    +0.000 A 
ATOM     15  C   UNL     1      10.914   1.237  -5.006  0.00  0.00    +0.000 A 
ATOM     16  C   UNL     1       9.961   2.216  -4.735  0.00  0.00    +0.000 A 
ENDBRANCH  10  11
ENDBRANCH   1  10
TORSDOF 2
ENDMDL
MODEL 6
REMARK VINA RESULT:    -4.159     25.595     26.087
REMARK INTER + INTRA:          -4.770
REMARK INTER:                  -4.647
REMARK INTRA:                  -0.123
REMARK UNBOUND:                -0.124
REMARK  Name = 1550473
REMARK  2 active torsions:
REMARK  status: ('A' for Active; 'I' for Inactive)
REMARK    1  A    between atoms: N_1  and  C_4
REMARK    2  A    between atoms: C_4  and  C_5
REMARK                            x       y       z     vdW  Elec       q    Type
REMARK                         _______ _______ _______ _____ _____    ______ ____
ROOT
ATOM      1  N   UNL     1      11.585 -11.427  -4.553  0.00  0.00    -0.354 N 
ATOM      2  N   UNL     1      13.058  -9.800  -5.295  0.00  0.00    -0.372 N 
ATOM      3  N   UNL     1      13.331 -11.959  -6.023  0.00  0.00    -0.372 N 
ATOM      4  C   UNL     1      12.649 -11.075  -5.287  0.00  0.00    +0.166 C 
ATOM      5  H   UNL     1      11.130 -10.715  -3.993  0.00  0.00    +0.163 HD
ATOM      6  H   UNL     1      13.855  -9.505  -5.841  0.00  0.00    +0.159 HD
ATOM      7  H   UNL     1      12.573  -9.082  -4.770  0.00  0.00    +0.159 HD
ATOM      8  H   UNL     1      13.077 -12.938  -6.055  0.00  0.00    +0.159 HD
ATOM      9  H   UNL     1      14.139 -11.685  -6.568  0.00  0.00    +0.159 HD
ENDROOT
BRANCH   1  10
ATOM     10  C   UNL     1      11.026 -12.777  -4.518  0.00  0.00    +0.151 C 
BRANCH  10  11
ATOM     11  C   UNL     1       9.922 -12.825  -3.498  0.00  0.00    -0.028 A 
ATOM     12  C   UNL     1       9.081 -13.944  -3.412  0.00  0.00    +0.005 A 
ATOM     13  C   UNL     1       9.716 -11.758  -2.610  0.00  0.00    +0.005 A 
ATOM     14  C   UNL     1       8.074 -14.002  -2.445  0.00  0.00    +0.000 A 
ATOM     15  C   UNL     1       8.710 -11.820  -1.647  0.00  0.00    +0.000 A 
ATOM     16  C   UNL     1       7.891 -12.943  -1.563  0.00  0.00    +0.000 A 
ENDBRANCH  10  11
ENDBRANCH   1  10
TORSDOF 2
ENDMDL
MODEL 7
REMARK VINA RESULT:    -4.146     19.272     21.818
REMARK INTER + INTRA:          -4.756
REMARK INTER:                  -4.640
REMARK INTRA:                  -0.116
REMARK UNBOUND:                -0.124
REMARK  Name = 1550473
REMARK  2 active torsions:
REMARK  status: ('A' for Active; 'I' for Inactive)
REMARK    1  A    between atoms: N_1  and  C_4
REMARK    2  A    between atoms: C_4  and  C_5
REMARK                            x       y       z     vdW  Elec       q    Type
REMARK                         _______ _______ _______ _____ _____    ______ ____
ROOT
ATOM      1  N   UNL     1      -8.188 -16.012 -18.377  0.00  0.00    -0.354 N 
ATOM      2  N   UNL     1      -8.560 -13.731 -18.521  0.00  0.00    -0.372 N 
ATOM      3  N   UNL     1     -10.255 -15.169 -19.091  0.00  0.00    -0.372 N 
ATOM      4  C   UNL     1      -9.001 -14.987 -18.663  0.00  0.00    +0.166 C 
ATOM      5  H   UNL     1      -7.239 -15.808 -18.087  0.00  0.00    +0.163 HD
ATOM      6  H   UNL     1      -9.152 -12.937 -18.726  0.00  0.00    +0.159 HD
ATOM      7  H   UNL     1      -7.626 -13.529 -18.187  0.00  0.00    +0.159 HD
ATOM      8  H   UNL     1     -10.646 -16.092 -19.224  0.00  0.00    +0.159 HD
ATOM      9  H   UNL     1     -10.859 -14.387 -19.312  0.00  0.00    +0.159 HD
ENDROOT
BRANCH   1  10
ATOM     10  C   UNL     1      -8.588 -17.417 -18.447  0.00  0.00    +0.151 C 
BRANCH  10  11
ATOM     11  C   UNL     1      -7.742 -18.216 -17.495  0.00  0.00    -0.028 A 
ATOM     12  C   UNL     1      -6.394 -17.886 -17.290  0.00  0.00    +0.005 A 
ATOM     13  C   UNL     1      -8.284 -19.301 -16.789  0.00  0.00    +0.005 A 
ATOM     14  C   UNL     1      -5.616 -18.609 -16.383  0.00  0.00    +0.000 A 
ATOM     15  C   UNL     1      -7.504 -20.021 -15.885  0.00  0.00    +0.000 A 
ATOM     16  C   UNL     1      -6.171 -19.674 -15.680  0.00  0.00    +0.000 A 
ENDBRANCH  10  11
ENDBRANCH   1  10
TORSDOF 2
ENDMDL
MODEL 8
REMARK VINA RESULT:    -4.049     15.923     17.044
REMARK INTER + INTRA:          -4.647
REMARK INTER:                  -4.508
REMARK INTRA:                  -0.139
REMARK UNBOUND:                -0.124
REMARK  Name = 1550473
REMARK  2 active torsions:
REMARK  status: ('A' for Active; 'I' for Inactive)
REMARK    1  A    between atoms: N_1  and  C_4
REMARK    2  A    between atoms: C_4  and  C_5
REMARK                            x       y       z     vdW  Elec       q    Type
REMARK                         _______ _______ _______ _____ _____    ______ ____
ROOT
ATOM      1  N   UNL     1       3.574  11.566  -4.499  0.00  0.00    -0.354 N 
ATOM      2  N   UNL     1       3.038  13.015  -2.774  0.00  0.00    -0.372 N 
ATOM      3  N   UNL     1       4.571  13.681  -4.346  0.00  0.00    -0.372 N 
ATOM      4  C   UNL     1       3.734  12.746  -3.886  0.00  0.00    +0.166 C 
ATOM      5  H   UNL     1       2.947  10.888  -4.083  0.00  0.00    +0.163 HD
ATOM      6  H   UNL     1       3.135  13.898  -2.292  0.00  0.00    +0.159 HD
ATOM      7  H   UNL     1       2.377  12.353  -2.386  0.00  0.00    +0.159 HD
ATOM      8  H   UNL     1       5.129  13.538  -5.177  0.00  0.00    +0.159 HD
ATOM      9  H   UNL     1       4.690  14.567  -3.871  0.00  0.00    +0.159 HD
ENDROOT
BRANCH   1  10
ATOM     10  C   UNL     1       4.244  11.195  -5.745  0.00  0.00    +0.151 C 
BRANCH  10  11
ATOM     11  C   UNL     1       4.916   9.862  -5.563  0.00  0.00    -0.028 A 
ATOM     12  C   UNL     1       5.135   9.019  -6.663  0.00  0.00    +0.005 A 
ATOM     13  C   UNL     1       5.342   9.439  -4.295  0.00  0.00    +0.005 A 
ATOM     14  C   UNL     1       5.786   7.794  -6.499  0.00  0.00    +0.000 A 
ATOM     15  C   UNL     1       5.991   8.214  -4.136  0.00  0.00    +0.000 A 
ATOM     16  C   UNL     1       6.215   7.394  -5.239  0.00  0.00    +0.000 A 
ENDBRANCH  10  11
ENDBRANCH   1  10
TORSDOF 2
ENDMDL
MODEL 9
REMARK VINA RESULT:    -4.039     25.844     26.428
REMARK INTER + INTRA:          -4.635
REMARK INTER:                  -4.497
REMARK INTRA:                  -0.138
REMARK UNBOUND:                -0.124
REMARK  Name = 1550473
REMARK  2 active torsions:
REMARK  status: ('A' for Active; 'I' for Inactive)
REMARK    1  A    between atoms: N_1  and  C_4
REMARK    2  A    between atoms: C_4  and  C_5
REMARK                            x       y       z     vdW  Elec       q    Type
REMARK                         _______ _______ _______ _____ _____    ______ ____
ROOT
ATOM      1  N   UNL     1       7.568 -13.377  -1.533  0.00  0.00    -0.354 N 
ATOM      2  N   UNL     1       6.562 -15.423  -1.125  0.00  0.00    -0.372 N 
ATOM      3  N   UNL     1       7.685 -15.114  -3.102  0.00  0.00    -0.372 N 
ATOM      4  C   UNL     1       7.279 -14.625  -1.926  0.00  0.00    +0.166 C 
ATOM      5  H   UNL     1       7.205 -13.057  -0.642  0.00  0.00    +0.163 HD
ATOM      6  H   UNL     1       6.332 -16.371  -1.393  0.00  0.00    +0.159 HD
ATOM      7  H   UNL     1       6.240 -15.116  -0.216  0.00  0.00    +0.159 HD
ATOM      8  H   UNL     1       8.224 -14.560  -3.755  0.00  0.00    +0.159 HD
ATOM      9  H   UNL     1       7.454 -16.055  -3.393  0.00  0.00    +0.159 HD
ENDROOT
BRANCH   1  10
ATOM     10  C   UNL     1       8.387 -12.446  -2.306  0.00  0.00    +0.151 C 
BRANCH  10  11
ATOM     11  C   UNL     1       9.443 -11.860  -1.410  0.00  0.00    -0.028 A 
ATOM     12  C   UNL     1       9.264 -11.836  -0.019  0.00  0.00    +0.005 A 
ATOM     13  C   UNL     1      10.629 -11.333  -1.945  0.00  0.00    +0.005 A 
ATOM     14  C   UNL     1      10.258 -11.320   0.816  0.00  0.00    +0.000 A 
ATOM     15  C   UNL     1      11.618 -10.818  -1.109  0.00  0.00    +0.000 A 
ATOM     16  C   UNL     1      11.434 -10.814   0.272  0.00  0.00    +0.000 A 
ENDBRANCH  10  11
ENDBRANCH   1  10
TORSDOF 2
ENDMDL
