MODEL 1
REMARK VINA RESULT:    -6.123      0.000      0.000
REMARK INTER + INTRA:          -6.949
REMARK INTER:                  -6.839
REMARK INTRA:                  -0.111
REMARK UNBOUND:                -0.111
REMARK  Name = 1550473
REMARK  2 active torsions:
REMARK  status: ('A' for Active; 'I' for Inactive)
REMARK    1  A    between atoms: N_1  and  C_4
REMARK    2  A    between atoms: C_4  and  C_5
REMARK                            x       y       z     vdW  Elec       q    Type
REMARK                         _______ _______ _______ _____ _____    ______ ____
ROOT
ATOM      1  N   UNL     1      -7.037   6.500  -1.393  0.00  0.00    -0.354 N 
ATOM      2  N   UNL     1      -5.680   7.895  -0.138  0.00  0.00    -0.372 N 
ATOM      3  N   UNL     1      -6.685   8.729  -2.025  0.00  0.00    -0.372 N 
ATOM      4  C   UNL     1      -6.477   7.700  -1.196  0.00  0.00    +0.166 C 
ATOM      5  H   UNL     1      -6.816   5.752  -0.745  0.00  0.00    +0.163 HD
ATOM      6  H   UNL     1      -5.247   8.791   0.039  0.00  0.00    +0.159 HD
ATOM      7  H   UNL     1      -5.497   7.159   0.534  0.00  0.00    +0.159 HD
ATOM      8  H   UNL     1      -7.271   8.646  -2.844  0.00  0.00    +0.159 HD
ATOM      9  H   UNL     1      -6.250   9.630  -1.871  0.00  0.00    +0.159 HD
ENDROOT
BRANCH   1  10
ATOM     10  C   UNL     1      -7.963   6.199  -2.484  0.00  0.00    +0.151 C 
BRANCH  10  11
ATOM     11  C   UNL     1      -9.109   5.387  -1.946  0.00  0.00    -0.028 A 
ATOM     12  C   UNL     1      -8.901   4.078  -1.487  0.00  0.00    +0.005 A 
ATOM     13  C   UNL     1     -10.404   5.923  -1.888  0.00  0.00    +0.005 A 
ATOM     14  C   UNL     1      -9.959   3.335  -0.959  0.00  0.00    +0.000 A 
ATOM     15  C   UNL     1     -11.459   5.177  -1.361  0.00  0.00    +0.000 A 
ATOM     16  C   UNL     1     -11.235   3.884  -0.895  0.00  0.00    +0.000 A 
ENDBRANCH  10  11
ENDBRANCH   1  10
TORSDOF 2
ENDMDL
MODEL 2
REMARK VINA RESULT:    -6.006      2.241      2.666
REMARK INTER + INTRA:          -6.819
REMARK INTER:                  -6.710
REMARK INTRA:                  -0.109
REMARK UNBOUND:                -0.111
REMARK  Name = 1550473
REMARK  2 active torsions:
REMARK  status: ('A' for Active; 'I' for Inactive)
REMARK    1  A    between atoms: N_1  and  C_4
REMARK    2  A    between atoms: C_4  and  C_5
REMARK                            x       y       z     vdW  Elec       q    Type
REMARK                         _______ _______ _______ _____ _____    ______ ____
ROOT
ATOM      1  N   UNL     1      -5.858   4.762  -2.477  0.00  0.00    -0.354 N 
ATOM      2  N   UNL     1      -4.128   5.016  -3.996  0.00  0.00    -0.372 N 
ATOM      3  N   UNL     1      -3.941   5.993  -1.928  0.00  0.00    -0.372 N 
ATOM      4  C   UNL     1      -4.653   5.257  -2.789  0.00  0.00    +0.166 C 
ATOM      5  H   UNL     1      -6.360   4.238  -3.184  0.00  0.00    +0.163 HD
ATOM      6  H   UNL     1      -3.219   5.373  -4.258  0.00  0.00    +0.159 HD
ATOM      7  H   UNL     1      -4.612   4.453  -4.685  0.00  0.00    +0.159 HD
ATOM      8  H   UNL     1      -4.283   6.216  -1.003  0.00  0.00    +0.159 HD
ATOM      9  H   UNL     1      -3.034   6.369  -2.176  0.00  0.00    +0.159 HD
ENDROOT
BRANCH   1  10
ATOM     10  C   UNL     1      -6.495   4.922  -1.171  0.00  0.00    +0.151 C 
BRANCH  10  11
ATOM     11  C   UNL     1      -7.974   5.113  -1.366  0.00  0.00    -0.028 A 
ATOM     12  C   UNL     1      -8.845   4.015  -1.329  0.00  0.00    +0.005 A 
ATOM     13  C   UNL     1      -8.511   6.392  -1.582  0.00  0.00    +0.005 A 
ATOM     14  C   UNL     1     -10.222   4.196  -1.480  0.00  0.00    +0.000 A 
ATOM     15  C   UNL     1      -9.886   6.569  -1.733  0.00  0.00    +0.000 A 
ATOM     16  C   UNL     1     -10.742   5.471  -1.679  0.00  0.00    +0.000 A 
ENDBRANCH  10  11
ENDBRANCH   1  10
TORSDOF 2
ENDMDL
MODEL 3
REMARK VINA RESULT:    -5.968      2.397      3.320
REMARK INTER + INTRA:          -6.776
REMARK INTER:                  -6.630
REMARK INTRA:                  -0.146
REMARK UNBOUND:                -0.111
REMARK  Name = 1550473
REMARK  2 active torsions:
REMARK  status: ('A' for Active; 'I' for Inactive)
REMARK    1  A    between atoms: N_1  and  C_4
REMARK    2  A    between atoms: C_4  and  C_5
REMARK                            x       y       z     vdW  Elec       q    Type
REMARK                         _______ _______ _______ _____ _____    ______ ____
ROOT
ATOM      1  N   UNL     1      -5.253   6.634  -2.605  0.00  0.00    -0.354 N 
ATOM      2  N   UNL     1      -3.420   5.416  -1.882  0.00  0.00    -0.372 N 
ATOM      3  N   UNL     1      -4.098   5.210  -4.064  0.00  0.00    -0.372 N 
ATOM      4  C   UNL     1      -4.269   5.760  -2.857  0.00  0.00    +0.166 C 
ATOM      5  H   UNL     1      -5.348   6.992  -1.661  0.00  0.00    +0.163 HD
ATOM      6  H   UNL     1      -2.666   4.762  -2.043  0.00  0.00    +0.159 HD
ATOM      7  H   UNL     1      -3.489   5.811  -0.952  0.00  0.00    +0.159 HD
ATOM      8  H   UNL     1      -4.708   5.423  -4.841  0.00  0.00    +0.159 HD
ATOM      9  H   UNL     1      -3.357   4.544  -4.242  0.00  0.00    +0.159 HD
ENDROOT
BRANCH   1  10
ATOM     10  C   UNL     1      -6.197   7.115  -3.611  0.00  0.00    +0.151 C 
BRANCH  10  11
ATOM     11  C   UNL     1      -7.600   6.882  -3.120  0.00  0.00    -0.028 A 
ATOM     12  C   UNL     1      -8.695   7.077  -3.975  0.00  0.00    +0.005 A 
ATOM     13  C   UNL     1      -7.840   6.462  -1.803  0.00  0.00    +0.005 A 
ATOM     14  C   UNL     1      -9.995   6.831  -3.528  0.00  0.00    +0.000 A 
ATOM     15  C   UNL     1      -9.140   6.219  -1.361  0.00  0.00    +0.000 A 
ATOM     16  C   UNL     1     -10.217   6.401  -2.224  0.00  0.00    +0.000 A 
ENDBRANCH  10  11
ENDBRANCH   1  10
TORSDOF 2
ENDMDL
MODEL 4
REMARK VINA RESULT:    -5.877      5.455      7.181
REMARK INTER + INTRA:          -6.675
REMARK INTER:                  -6.552
REMARK INTRA:                  -0.123
REMARK UNBOUND:                -0.111
REMARK  Name = 1550473
REMARK  2 active torsions:
REMARK  status: ('A' for Active; 'I' for Inactive)
REMARK    1  A    between atoms: N_1  and  C_4
REMARK    2  A    between atoms: C_4  and  C_5
REMARK                            x       y       z     vdW  Elec       q    Type
REMARK                         _______ _______ _______ _____ _____    ______ ____
ROOT
ATOM      1  N   UNL     1      -9.937  -1.111  -0.800  0.00  0.00    -0.354 N 
ATOM      2  N   UNL     1     -10.687  -3.276  -0.462  0.00  0.00    -0.372 N 
ATOM      3  N   UNL     1      -8.441  -2.915  -0.767  0.00  0.00    -0.372 N 
ATOM      4  C   UNL     1      -9.681  -2.420  -0.679  0.00  0.00    +0.166 C 
ATOM      5  H   UNL     1     -10.902  -0.803  -0.754  0.00  0.00    +0.163 HD
ATOM      6  H   UNL     1     -10.524  -4.269  -0.363  0.00  0.00    +0.159 HD
ATOM      7  H   UNL     1     -11.645  -2.960  -0.371  0.00  0.00    +0.159 HD
ATOM      8  H   UNL     1      -7.639  -2.323  -0.936  0.00  0.00    +0.159 HD
ATOM      9  H   UNL     1      -8.259  -3.907  -0.682  0.00  0.00    +0.159 HD
ENDROOT
BRANCH   1  10
ATOM     10  C   UNL     1      -8.907  -0.090  -0.985  0.00  0.00    +0.151 C 
BRANCH  10  11
ATOM     11  C   UNL     1      -9.551   1.269  -0.950  0.00  0.00    -0.028 A 
ATOM     12  C   UNL     1     -10.877   1.418  -0.517  0.00  0.00    +0.005 A 
ATOM     13  C   UNL     1      -8.839   2.412  -1.345  0.00  0.00    +0.005 A 
ATOM     14  C   UNL     1     -11.465   2.683  -0.456  0.00  0.00    +0.000 A 
ATOM     15  C   UNL     1      -9.431   3.673  -1.283  0.00  0.00    +0.000 A 
ATOM     16  C   UNL     1     -10.743   3.809  -0.837  0.00  0.00    +0.000 A 
ENDBRANCH  10  11
ENDBRANCH   1  10
TORSDOF 2
ENDMDL
MODEL 5
REMARK VINA RESULT:    -5.854     15.353     17.076
REMARK INTER + INTRA:          -6.649
REMARK INTER:                  -6.534
REMARK INTRA:                  -0.115
REMARK UNBOUND:                -0.111
REMARK  Name = 1550473
REMARK  2 active torsions:
REMARK  status: ('A' for Active; 'I' for Inactive)
REMARK    1  A    between atoms: N_1  and  C_4
REMARK    2  A    between atoms: C_4  and  C_5
REMARK                            x       y       z     vdW  Elec       q    Type
REMARK                         _______ _______ _______ _____ _____    ______ ____
ROOT
ATOM      1  N   UNL     1       8.195   3.205  -7.962  0.00  0.00    -0.354 N 
ATOM      2  N   UNL     1       9.550   3.191  -9.840  0.00  0.00    -0.372 N 
ATOM      3  N   UNL     1       7.745   1.778  -9.765  0.00  0.00    -0.372 N 
ATOM      4  C   UNL     1       8.486   2.723  -9.177  0.00  0.00    +0.166 C 
ATOM      5  H   UNL     1       8.814   3.899  -7.558  0.00  0.00    +0.163 HD
ATOM      6  H   UNL     1       9.793   2.849 -10.760  0.00  0.00    +0.159 HD
ATOM      7  H   UNL     1      10.141   3.918  -9.453  0.00  0.00    +0.159 HD
ATOM      8  H   UNL     1       6.932   1.378  -9.315  0.00  0.00    +0.159 HD
ATOM      9  H   UNL     1       7.978   1.414 -10.680  0.00  0.00    +0.159 HD
ENDROOT
BRANCH   1  10
ATOM     10  C   UNL     1       7.028   2.800  -7.179  0.00  0.00    +0.151 C 
BRANCH  10  11
ATOM     11  C   UNL     1       6.399   4.022  -6.568  0.00  0.00    -0.028 A 
ATOM     12  C   UNL     1       5.023   4.257  -6.703  0.00  0.00    +0.005 A 
ATOM     13  C   UNL     1       7.173   4.945  -5.848  0.00  0.00    +0.005 A 
ATOM     14  C   UNL     1       4.434   5.376  -6.109  0.00  0.00    +0.000 A 
ATOM     15  C   UNL     1       6.581   6.061  -5.258  0.00  0.00    +0.000 A 
ATOM     16  C   UNL     1       5.211   6.275  -5.387  0.00  0.00    +0.000 A 
ENDBRANCH  10  11
ENDBRANCH   1  10
TORSDOF 2
ENDMDL
MODEL 6
REMARK VINA RESULT:    -5.699      1.037      1.828
REMARK INTER + INTRA:          -6.476
REMARK INTER:                  -6.351
REMARK INTRA:                  -0.125
REMARK UNBOUND:                -0.111
REMARK  Name = 1550473
REMARK  2 active torsions:
REMARK  status: ('A' for Active; 'I' for Inactive)
REMARK    1  A    between atoms: N_1  and  C_4
REMARK    2  A    between atoms: C_4  and  C_5
REMARK                            x       y       z     vdW  Elec       q    Type
REMARK                         _______ _______ _______ _____ _____    ______ ____
ROOT
ATOM      1  N   UNL     1      -7.230   5.695  -1.797  0.00  0.00    -0.354 N 
ATOM      2  N   UNL     1      -4.939   5.805  -1.481  0.00  0.00    -0.372 N 
ATOM      3  N   UNL     1      -6.103   7.748  -1.848  0.00  0.00    -0.372 N 
ATOM      4  C   UNL     1      -6.106   6.418  -1.711  0.00  0.00    +0.166 C 
ATOM      5  H   UNL     1      -7.162   4.687  -1.714  0.00  0.00    +0.163 HD
ATOM      6  H   UNL     1      -4.074   6.325  -1.408  0.00  0.00    +0.159 HD
ATOM      7  H   UNL     1      -4.879   4.803  -1.353  0.00  0.00    +0.159 HD
ATOM      8  H   UNL     1      -6.950   8.270  -2.029  0.00  0.00    +0.159 HD
ATOM      9  H   UNL     1      -5.246   8.285  -1.790  0.00  0.00    +0.159 HD
ENDROOT
BRANCH   1  10
ATOM     10  C   UNL     1      -8.560   6.270  -1.991  0.00  0.00    +0.151 C 
BRANCH  10  11
ATOM     11  C   UNL     1      -9.596   5.265  -1.571  0.00  0.00    -0.028 A 
ATOM     12  C   UNL     1     -10.958   5.601  -1.576  0.00  0.00    +0.005 A 
ATOM     13  C   UNL     1      -9.224   3.971  -1.173  0.00  0.00    +0.005 A 
ATOM     14  C   UNL     1     -11.923   4.658  -1.215  0.00  0.00    +0.000 A 
ATOM     15  C   UNL     1     -10.191   3.033  -0.813  0.00  0.00    +0.000 A 
ATOM     16  C   UNL     1     -11.540   3.376  -0.836  0.00  0.00    +0.000 A 
ENDBRANCH  10  11
ENDBRANCH   1  10
TORSDOF 2
ENDMDL
MODEL 7
REMARK VINA RESULT:    -5.695     25.356     26.271
REMARK INTER + INTRA:          -6.472
REMARK INTER:                  -6.342
REMARK INTRA:                  -0.129
REMARK UNBOUND:                -0.111
REMARK  Name = 1550473
REMARK  2 active torsions:
REMARK  status: ('A' for Active; 'I' for Inactive)
REMARK    1  A    between atoms: N_1  and  C_4
REMARK    2  A    between atoms: C_4  and  C_5
REMARK                            x       y       z     vdW  Elec       q    Type
REMARK                         _______ _______ _______ _____ _____    ______ ____
ROOT
ATOM      1  N   UNL     1       8.761  -7.914 -12.105  0.00  0.00    -0.354 N 
ATOM      2  N   UNL     1       7.963  -6.694 -13.906  0.00  0.00    -0.372 N 
ATOM      3  N   UNL     1       9.803  -5.923 -12.772  0.00  0.00    -0.372 N 
ATOM      4  C   UNL     1       8.849  -6.850 -12.915  0.00  0.00    +0.166 C 
ATOM      5  H   UNL     1       7.997  -8.564 -12.247  0.00  0.00    +0.163 HD
ATOM      6  H   UNL     1       8.006  -5.904 -14.535  0.00  0.00    +0.159 HD
ATOM      7  H   UNL     1       7.228  -7.370 -14.074  0.00  0.00    +0.159 HD
ATOM      8  H   UNL     1      10.499  -5.979 -12.041  0.00  0.00    +0.159 HD
ATOM      9  H   UNL     1       9.856  -5.119 -13.385  0.00  0.00    +0.159 HD
ENDROOT
BRANCH   1  10
ATOM     10  C   UNL     1       9.708  -8.204 -11.031  0.00  0.00    +0.151 C 
BRANCH  10  11
ATOM     11  C   UNL     1      10.167  -9.631 -11.153  0.00  0.00    -0.028 A 
ATOM     12  C   UNL     1      11.204  -9.972 -12.034  0.00  0.00    +0.005 A 
ATOM     13  C   UNL     1       9.574 -10.645 -10.386  0.00  0.00    +0.005 A 
ATOM     14  C   UNL     1      11.651 -11.292 -12.126  0.00  0.00    +0.000 A 
ATOM     15  C   UNL     1      10.023 -11.962 -10.482  0.00  0.00    +0.000 A 
ATOM     16  C   UNL     1      11.063 -12.285 -11.350  0.00  0.00    +0.000 A 
ENDBRANCH  10  11
ENDBRANCH   1  10
TORSDOF 2
ENDMDL
MODEL 8
REMARK VINA RESULT:    -5.675     14.395     16.197
REMARK INTER + INTRA:          -6.449
REMARK INTER:                  -6.313
REMARK INTRA:                  -0.136
REMARK UNBOUND:                -0.111
REMARK  Name = 1550473
REMARK  2 active torsions:
REMARK  status: ('A' for Active; 'I' for Inactive)
REMARK    1  A    between atoms: N_1  and  C_4
REMARK    2  A    between atoms: C_4  and  C_5
REMARK                            x       y       z     vdW  Elec       q    Type
REMARK                         _______ _______ _______ _____ _____    ______ ____
ROOT
ATOM      1  N   UNL     1       4.833   4.979  -6.038  0.00  0.00    -0.354 N 
ATOM      2  N   UNL     1       3.553   6.908  -6.104  0.00  0.00    -0.372 N 
ATOM      3  N   UNL     1       5.428   6.866  -4.781  0.00  0.00    -0.372 N 
ATOM      4  C   UNL     1       4.615   6.239  -5.639  0.00  0.00    +0.166 C 
ATOM      5  H   UNL     1       4.163   4.550  -6.666  0.00  0.00    +0.163 HD
ATOM      6  H   UNL     1       3.365   7.861  -5.824  0.00  0.00    +0.159 HD
ATOM      7  H   UNL     1       2.911   6.493  -6.768  0.00  0.00    +0.159 HD
ATOM      8  H   UNL     1       6.243   6.414  -4.389  0.00  0.00    +0.159 HD
ATOM      9  H   UNL     1       5.249   7.816  -4.480  0.00  0.00    +0.159 HD
ENDROOT
BRANCH   1  10
ATOM     10  C   UNL     1       5.989   4.181  -5.632  0.00  0.00    +0.151 C 
BRANCH  10  11
ATOM     11  C   UNL     1       6.517   3.439  -6.828  0.00  0.00    -0.028 A 
ATOM     12  C   UNL     1       5.764   3.361  -8.008  0.00  0.00    +0.005 A 
ATOM     13  C   UNL     1       7.774   2.816  -6.789  0.00  0.00    +0.005 A 
ATOM     14  C   UNL     1       6.267   2.697  -9.129  0.00  0.00    +0.000 A 
ATOM     15  C   UNL     1       8.273   2.153  -7.911  0.00  0.00    +0.000 A 
ATOM     16  C   UNL     1       7.521   2.096  -9.081  0.00  0.00    +0.000 A 
ENDBRANCH  10  11
ENDBRANCH   1  10
TORSDOF 2
ENDMDL
MODEL 9
REMARK VINA RESULT:    -5.359      3.228      3.994
REMARK INTER + INTRA:          -6.096
REMARK INTER:                  -5.912
REMARK INTRA:                  -0.184
REMARK UNBOUND:                -0.111
REMARK  Name = 1550473
REMARK  2 active torsions:
REMARK  status: ('A' for Active; 'I' for Inactive)
REMARK    1  A    between atoms: N_1  and  C_4
REMARK    2  A    between atoms: C_4  and  C_5
REMARK                            x       y       z     vdW  Elec       q    Type
REMARK                         _______ _______ _______ _____ _____    ______ ____
ROOT
ATOM      1  N   UNL     1      -6.250   4.800  -2.423  0.00  0.00    -0.354 N 
ATOM      2  N   UNL     1      -5.480   5.167  -0.270  0.00  0.00    -0.372 N 
ATOM      3  N   UNL     1      -4.341   6.101  -2.030  0.00  0.00    -0.372 N 
ATOM      4  C   UNL     1      -5.360   5.355  -1.590  0.00  0.00    +0.166 C 
ATOM      5  H   UNL     1      -6.982   4.221  -2.029  0.00  0.00    +0.163 HD
ATOM      6  H   UNL     1      -4.825   5.576   0.383  0.00  0.00    +0.159 HD
ATOM      7  H   UNL     1      -6.239   4.625   0.124  0.00  0.00    +0.159 HD
ATOM      8  H   UNL     1      -4.192   6.277  -3.015  0.00  0.00    +0.159 HD
ATOM      9  H   UNL     1      -3.669   6.509  -1.392  0.00  0.00    +0.159 HD
ENDROOT
BRANCH   1  10
ATOM     10  C   UNL     1      -6.241   4.988  -3.873  0.00  0.00    +0.151 C 
BRANCH  10  11
ATOM     11  C   UNL     1      -7.263   6.028  -4.240  0.00  0.00    -0.028 A 
ATOM     12  C   UNL     1      -8.631   5.715  -4.236  0.00  0.00    +0.005 A 
ATOM     13  C   UNL     1      -6.872   7.330  -4.588  0.00  0.00    +0.005 A 
ATOM     14  C   UNL     1      -9.583   6.688  -4.548  0.00  0.00    +0.000 A 
ATOM     15  C   UNL     1      -7.826   8.299  -4.899  0.00  0.00    +0.000 A 
ATOM     16  C   UNL     1      -9.181   7.979  -4.877  0.00  0.00    +0.000 A 
ENDBRANCH  10  11
ENDBRANCH   1  10
TORSDOF 2
ENDMDL
