MODEL 1
REMARK VINA RESULT:    -5.927      0.000      0.000
REMARK INTER + INTRA:          -6.785
REMARK INTER:                  -6.619
REMARK INTRA:                  -0.165
REMARK UNBOUND:                -0.165
REMARK  Name = 1550473
REMARK  2 active torsions:
REMARK  status: ('A' for Active; 'I' for Inactive)
REMARK    1  A    between atoms: N_1  and  C_4
REMARK    2  A    between atoms: C_4  and  C_5
REMARK                            x       y       z     vdW  Elec       q    Type
REMARK                         _______ _______ _______ _____ _____    ______ ____
ROOT
ATOM      1  N   UNL     1       5.214  -1.310   3.971  0.00  0.00    -0.354 N 
ATOM      2  N   UNL     1       2.984  -0.693   3.874  0.00  0.00    -0.372 N 
ATOM      3  N   UNL     1       3.608  -2.369   5.311  0.00  0.00    -0.372 N 
ATOM      4  C   UNL     1       3.950  -1.464   4.388  0.00  0.00    +0.166 C 
ATOM      5  H   UNL     1       5.402  -0.627   3.247  0.00  0.00    +0.163 HD
ATOM      6  H   UNL     1       2.021  -0.784   4.171  0.00  0.00    +0.159 HD
ATOM      7  H   UNL     1       3.182   0.021   3.183  0.00  0.00    +0.159 HD
ATOM      8  H   UNL     1       4.290  -2.986   5.733  0.00  0.00    +0.159 HD
ATOM      9  H   UNL     1       2.649  -2.483   5.612  0.00  0.00    +0.159 HD
ENDROOT
BRANCH   1  10
ATOM     10  C   UNL     1       6.348  -2.062   4.506  0.00  0.00    +0.151 C 
BRANCH  10  11
ATOM     11  C   UNL     1       7.124  -1.179   5.444  0.00  0.00    -0.028 A 
ATOM     12  C   UNL     1       7.296   0.183   5.160  0.00  0.00    +0.005 A 
ATOM     13  C   UNL     1       7.684  -1.699   6.621  0.00  0.00    +0.005 A 
ATOM     14  C   UNL     1       7.991   1.010   6.046  0.00  0.00    +0.000 A 
ATOM     15  C   UNL     1       8.379  -0.870   7.503  0.00  0.00    +0.000 A 
ATOM     16  C   UNL     1       8.530   0.485   7.216  0.00  0.00    +0.000 A 
ENDBRANCH  10  11
ENDBRANCH   1  10
TORSDOF 2
ENDMDL
MODEL 2
REMARK VINA RESULT:    -5.681      2.128      2.564
REMARK INTER + INTRA:          -6.510
REMARK INTER:                  -6.411
REMARK INTRA:                  -0.099
REMARK UNBOUND:                -0.165
REMARK  Name = 1550473
REMARK  2 active torsions:
REMARK  status: ('A' for Active; 'I' for Inactive)
REMARK    1  A    between atoms: N_1  and  C_4
REMARK    2  A    between atoms: C_4  and  C_5
REMARK                            x       y       z     vdW  Elec       q    Type
REMARK                         _______ _______ _______ _____ _____    ______ ____
ROOT
ATOM      1  N   UNL     1       7.202  -2.150   3.272  0.00  0.00    -0.354 N 
ATOM      2  N   UNL     1       7.601  -2.959   1.139  0.00  0.00    -0.372 N 
ATOM      3  N   UNL     1       6.110  -4.068   2.485  0.00  0.00    -0.372 N 
ATOM      4  C   UNL     1       6.967  -3.056   2.313  0.00  0.00    +0.166 C 
ATOM      5  H   UNL     1       7.886  -1.424   3.091  0.00  0.00    +0.163 HD
ATOM      6  H   UNL     1       7.441  -3.626   0.395  0.00  0.00    +0.159 HD
ATOM      7  H   UNL     1       8.250  -2.206   0.944  0.00  0.00    +0.159 HD
ATOM      8  H   UNL     1       5.604  -4.201   3.350  0.00  0.00    +0.159 HD
ATOM      9  H   UNL     1       5.946  -4.752   1.757  0.00  0.00    +0.159 HD
ENDROOT
BRANCH   1  10
ATOM     10  C   UNL     1       6.524  -2.134   4.567  0.00  0.00    +0.151 C 
BRANCH  10  11
ATOM     11  C   UNL     1       7.227  -1.167   5.478  0.00  0.00    -0.028 A 
ATOM     12  C   UNL     1       7.345   0.186   5.126  0.00  0.00    +0.005 A 
ATOM     13  C   UNL     1       7.772  -1.595   6.698  0.00  0.00    +0.005 A 
ATOM     14  C   UNL     1       7.971   1.091   5.986  0.00  0.00    +0.000 A 
ATOM     15  C   UNL     1       8.398  -0.688   7.554  0.00  0.00    +0.000 A 
ATOM     16  C   UNL     1       8.495   0.655   7.198  0.00  0.00    +0.000 A 
ENDBRANCH  10  11
ENDBRANCH   1  10
TORSDOF 2
ENDMDL
MODEL 3
REMARK VINA RESULT:    -5.527      1.404      2.198
REMARK INTER + INTRA:          -6.339
REMARK INTER:                  -6.186
REMARK INTRA:                  -0.153
REMARK UNBOUND:                -0.165
REMARK  Name = 1550473
REMARK  2 active torsions:
REMARK  status: ('A' for Active; 'I' for Inactive)
REMARK    1  A    between atoms: N_1  and  C_4
REMARK    2  A    between atoms: C_4  and  C_5
REMARK                            x       y       z     vdW  Elec       q    Type
REMARK                         _______ _______ _______ _____ _____    ______ ____
ROOT
ATOM      1  N   UNL     1       5.787  -2.500   4.005  0.00  0.00    -0.354 N 
ATOM      2  N   UNL     1       3.843  -3.024   2.860  0.00  0.00    -0.372 N 
ATOM      3  N   UNL     1       3.727  -2.622   5.116  0.00  0.00    -0.372 N 
ATOM      4  C   UNL     1       4.464  -2.712   4.004  0.00  0.00    +0.166 C 
ATOM      5  H   UNL     1       6.293  -2.613   3.135  0.00  0.00    +0.163 HD
ATOM      6  H   UNL     1       2.846  -3.186   2.827  0.00  0.00    +0.159 HD
ATOM      7  H   UNL     1       4.345  -3.091   1.983  0.00  0.00    +0.159 HD
ATOM      8  H   UNL     1       4.136  -2.396   6.013  0.00  0.00    +0.159 HD
ATOM      9  H   UNL     1       2.729  -2.793   5.106  0.00  0.00    +0.159 HD
ENDROOT
BRANCH   1  10
ATOM     10  C   UNL     1       6.550  -2.102   5.187  0.00  0.00    +0.151 C 
BRANCH  10  11
ATOM     11  C   UNL     1       7.060  -0.701   4.994  0.00  0.00    -0.028 A 
ATOM     12  C   UNL     1       7.395   0.094   6.100  0.00  0.00    +0.005 A 
ATOM     13  C   UNL     1       7.217  -0.164   3.706  0.00  0.00    +0.005 A 
ATOM     14  C   UNL     1       7.897   1.385   5.920  0.00  0.00    +0.000 A 
ATOM     15  C   UNL     1       7.719   1.126   3.531  0.00  0.00    +0.000 A 
ATOM     16  C   UNL     1       8.061   1.899   4.637  0.00  0.00    +0.000 A 
ENDBRANCH  10  11
ENDBRANCH   1  10
TORSDOF 2
ENDMDL
MODEL 4
REMARK VINA RESULT:    -5.135      3.151      4.756
REMARK INTER + INTRA:          -5.901
REMARK INTER:                  -5.777
REMARK INTRA:                  -0.124
REMARK UNBOUND:                -0.165
REMARK  Name = 1550473
REMARK  2 active torsions:
REMARK  status: ('A' for Active; 'I' for Inactive)
REMARK    1  A    between atoms: N_1  and  C_4
REMARK    2  A    between atoms: C_4  and  C_5
REMARK                            x       y       z     vdW  Elec       q    Type
REMARK                         _______ _______ _______ _____ _____    ______ ____
ROOT
ATOM      1  N   UNL     1       7.841   0.227   5.338  0.00  0.00    -0.354 N 
ATOM      2  N   UNL     1       8.028   0.451   7.635  0.00  0.00    -0.372 N 
ATOM      3  N   UNL     1       6.860   2.037   6.457  0.00  0.00    -0.372 N 
ATOM      4  C   UNL     1       7.574   0.906   6.461  0.00  0.00    +0.166 C 
ATOM      5  H   UNL     1       8.413  -0.607   5.404  0.00  0.00    +0.163 HD
ATOM      6  H   UNL     1       7.839   0.941   8.500  0.00  0.00    +0.159 HD
ATOM      7  H   UNL     1       8.560  -0.407   7.704  0.00  0.00    +0.159 HD
ATOM      8  H   UNL     1       6.494   2.436   5.603  0.00  0.00    +0.159 HD
ATOM      9  H   UNL     1       6.671   2.548   7.311  0.00  0.00    +0.159 HD
ENDROOT
BRANCH   1  10
ATOM     10  C   UNL     1       7.348   0.607   4.015  0.00  0.00    +0.151 C 
BRANCH  10  11
ATOM     11  C   UNL     1       7.441  -0.579   3.096  0.00  0.00    -0.028 A 
ATOM     12  C   UNL     1       7.543  -0.399   1.709  0.00  0.00    +0.005 A 
ATOM     13  C   UNL     1       7.432  -1.886   3.607  0.00  0.00    +0.005 A 
ATOM     14  C   UNL     1       7.660  -1.500   0.857  0.00  0.00    +0.000 A 
ATOM     15  C   UNL     1       7.548  -2.983   2.753  0.00  0.00    +0.000 A 
ATOM     16  C   UNL     1       7.664  -2.790   1.379  0.00  0.00    +0.000 A 
ENDBRANCH  10  11
ENDBRANCH   1  10
TORSDOF 2
ENDMDL
MODEL 5
REMARK VINA RESULT:    -5.095      2.878      4.041
REMARK INTER + INTRA:          -5.855
REMARK INTER:                  -5.724
REMARK INTRA:                  -0.131
REMARK UNBOUND:                -0.165
REMARK  Name = 1550473
REMARK  2 active torsions:
REMARK  status: ('A' for Active; 'I' for Inactive)
REMARK    1  A    between atoms: N_1  and  C_4
REMARK    2  A    between atoms: C_4  and  C_5
REMARK                            x       y       z     vdW  Elec       q    Type
REMARK                         _______ _______ _______ _____ _____    ______ ____
ROOT
ATOM      1  N   UNL     1       6.147   2.813   5.607  0.00  0.00    -0.354 N 
ATOM      2  N   UNL     1       4.303   3.860   4.675  0.00  0.00    -0.372 N 
ATOM      3  N   UNL     1       6.344   4.089   3.651  0.00  0.00    -0.372 N 
ATOM      4  C   UNL     1       5.612   3.582   4.649  0.00  0.00    +0.166 C 
ATOM      5  H   UNL     1       5.544   2.484   6.352  0.00  0.00    +0.163 HD
ATOM      6  H   UNL     1       3.871   4.434   3.964  0.00  0.00    +0.159 HD
ATOM      7  H   UNL     1       3.695   3.492   5.396  0.00  0.00    +0.159 HD
ATOM      8  H   UNL     1       7.338   3.921   3.577  0.00  0.00    +0.159 HD
ATOM      9  H   UNL     1       5.931   4.676   2.937  0.00  0.00    +0.159 HD
ENDROOT
BRANCH   1  10
ATOM     10  C   UNL     1       7.551   2.406   5.640  0.00  0.00    +0.151 C 
BRANCH  10  11
ATOM     11  C   UNL     1       7.630   0.944   5.982  0.00  0.00    -0.028 A 
ATOM     12  C   UNL     1       8.342   0.514   7.112  0.00  0.00    +0.005 A 
ATOM     13  C   UNL     1       6.992  -0.017   5.183  0.00  0.00    +0.005 A 
ATOM     14  C   UNL     1       8.391  -0.841   7.447  0.00  0.00    +0.000 A 
ATOM     15  C   UNL     1       7.044  -1.370   5.520  0.00  0.00    +0.000 A 
ATOM     16  C   UNL     1       7.741  -1.781   6.653  0.00  0.00    +0.000 A 
ENDBRANCH  10  11
ENDBRANCH   1  10
TORSDOF 2
ENDMDL
MODEL 6
REMARK VINA RESULT:    -4.984      2.080      3.132
REMARK INTER + INTRA:          -5.731
REMARK INTER:                  -5.753
REMARK INTRA:                   0.022
REMARK UNBOUND:                -0.165
REMARK  Name = 1550473
REMARK  2 active torsions:
REMARK  status: ('A' for Active; 'I' for Inactive)
REMARK    1  A    between atoms: N_1  and  C_4
REMARK    2  A    between atoms: C_4  and  C_5
REMARK                            x       y       z     vdW  Elec       q    Type
REMARK                         _______ _______ _______ _____ _____    ______ ____
ROOT
ATOM      1  N   UNL     1       6.231  -2.507   3.908  0.00  0.00    -0.354 N 
ATOM      2  N   UNL     1       5.774  -3.530   1.881  0.00  0.00    -0.372 N 
ATOM      3  N   UNL     1       7.950  -3.423   2.604  0.00  0.00    -0.372 N 
ATOM      4  C   UNL     1       6.658  -3.147   2.811  0.00  0.00    +0.166 C 
ATOM      5  H   UNL     1       5.242  -2.301   3.992  0.00  0.00    +0.163 HD
ATOM      6  H   UNL     1       6.066  -4.018   1.045  0.00  0.00    +0.159 HD
ATOM      7  H   UNL     1       4.781  -3.364   1.989  0.00  0.00    +0.159 HD
ATOM      8  H   UNL     1       8.667  -3.155   3.265  0.00  0.00    +0.159 HD
ATOM      9  H   UNL     1       8.262  -3.899   1.768  0.00  0.00    +0.159 HD
ENDROOT
BRANCH   1  10
ATOM     10  C   UNL     1       7.105  -2.094   5.005  0.00  0.00    +0.151 C 
BRANCH  10  11
ATOM     11  C   UNL     1       7.393  -0.624   4.878  0.00  0.00    -0.028 A 
ATOM     12  C   UNL     1       7.676   0.148   6.014  0.00  0.00    +0.005 A 
ATOM     13  C   UNL     1       7.390   0.003   3.622  0.00  0.00    +0.005 A 
ATOM     14  C   UNL     1       7.973   1.507   5.893  0.00  0.00    +0.000 A 
ATOM     15  C   UNL     1       7.686   1.361   3.505  0.00  0.00    +0.000 A 
ATOM     16  C   UNL     1       7.980   2.112   4.640  0.00  0.00    +0.000 A 
ENDBRANCH  10  11
ENDBRANCH   1  10
TORSDOF 2
ENDMDL
MODEL 7
REMARK VINA RESULT:    -4.944      2.824      4.077
REMARK INTER + INTRA:          -5.687
REMARK INTER:                  -5.566
REMARK INTRA:                  -0.121
REMARK UNBOUND:                -0.165
REMARK  Name = 1550473
REMARK  2 active torsions:
REMARK  status: ('A' for Active; 'I' for Inactive)
REMARK    1  A    between atoms: N_1  and  C_4
REMARK    2  A    between atoms: C_4  and  C_5
REMARK                            x       y       z     vdW  Elec       q    Type
REMARK                         _______ _______ _______ _____ _____    ______ ____
ROOT
ATOM      1  N   UNL     1       5.398   1.165   4.669  0.00  0.00    -0.354 N 
ATOM      2  N   UNL     1       4.134   3.087   4.933  0.00  0.00    -0.372 N 
ATOM      3  N   UNL     1       4.653   1.839   6.787  0.00  0.00    -0.372 N 
ATOM      4  C   UNL     1       4.736   2.017   5.464  0.00  0.00    +0.166 C 
ATOM      5  H   UNL     1       5.399   1.339   3.671  0.00  0.00    +0.163 HD
ATOM      6  H   UNL     1       3.630   3.749   5.508  0.00  0.00    +0.159 HD
ATOM      7  H   UNL     1       4.175   3.284   3.940  0.00  0.00    +0.159 HD
ATOM      8  H   UNL     1       5.081   1.048   7.249  0.00  0.00    +0.159 HD
ATOM      9  H   UNL     1       4.144   2.484   7.377  0.00  0.00    +0.159 HD
ENDROOT
BRANCH   1  10
ATOM     10  C   UNL     1       6.134  -0.002   5.154  0.00  0.00    +0.151 C 
BRANCH  10  11
ATOM     11  C   UNL     1       6.788  -0.689   3.988  0.00  0.00    -0.028 A 
ATOM     12  C   UNL     1       7.239  -2.012   4.103  0.00  0.00    +0.005 A 
ATOM     13  C   UNL     1       6.955  -0.025   2.763  0.00  0.00    +0.005 A 
ATOM     14  C   UNL     1       7.820  -2.662   3.011  0.00  0.00    +0.000 A 
ATOM     15  C   UNL     1       7.535  -0.677   1.675  0.00  0.00    +0.000 A 
ATOM     16  C   UNL     1       7.966  -1.996   1.798  0.00  0.00    +0.000 A 
ENDBRANCH  10  11
ENDBRANCH   1  10
TORSDOF 2
ENDMDL
MODEL 8
REMARK VINA RESULT:    -4.863      1.879      2.428
REMARK INTER + INTRA:          -5.597
REMARK INTER:                  -5.450
REMARK INTRA:                  -0.146
REMARK UNBOUND:                -0.165
REMARK  Name = 1550473
REMARK  2 active torsions:
REMARK  status: ('A' for Active; 'I' for Inactive)
REMARK    1  A    between atoms: N_1  and  C_4
REMARK    2  A    between atoms: C_4  and  C_5
REMARK                            x       y       z     vdW  Elec       q    Type
REMARK                         _______ _______ _______ _____ _____    ______ ____
ROOT
ATOM      1  N   UNL     1       5.039   0.498   4.193  0.00  0.00    -0.354 N 
ATOM      2  N   UNL     1       3.145   1.829   4.123  0.00  0.00    -0.372 N 
ATOM      3  N   UNL     1       5.097   2.630   3.222  0.00  0.00    -0.372 N 
ATOM      4  C   UNL     1       4.442   1.646   3.845  0.00  0.00    +0.166 C 
ATOM      5  H   UNL     1       4.494  -0.197   4.690  0.00  0.00    +0.163 HD
ATOM      6  H   UNL     1       2.666   2.683   3.870  0.00  0.00    +0.159 HD
ATOM      7  H   UNL     1       2.591   1.115   4.579  0.00  0.00    +0.159 HD
ATOM      8  H   UNL     1       6.079   2.557   2.989  0.00  0.00    +0.159 HD
ATOM      9  H   UNL     1       4.639   3.497   2.971  0.00  0.00    +0.159 HD
ENDROOT
BRANCH   1  10
ATOM     10  C   UNL     1       6.432   0.177   3.889  0.00  0.00    +0.151 C 
BRANCH  10  11
ATOM     11  C   UNL     1       7.160  -0.118   5.171  0.00  0.00    -0.028 A 
ATOM     12  C   UNL     1       7.780   0.914   5.891  0.00  0.00    +0.005 A 
ATOM     13  C   UNL     1       7.227  -1.426   5.675  0.00  0.00    +0.005 A 
ATOM     14  C   UNL     1       8.430   0.645   7.098  0.00  0.00    +0.000 A 
ATOM     15  C   UNL     1       7.878  -1.690   6.880  0.00  0.00    +0.000 A 
ATOM     16  C   UNL     1       8.477  -0.654   7.592  0.00  0.00    +0.000 A 
ENDBRANCH  10  11
ENDBRANCH   1  10
TORSDOF 2
ENDMDL
MODEL 9
REMARK VINA RESULT:    -4.759      2.738      3.748
REMARK INTER + INTRA:          -5.480
REMARK INTER:                  -5.315
REMARK INTRA:                  -0.166
REMARK UNBOUND:                -0.165
REMARK  Name = 1550473
REMARK  2 active torsions:
REMARK  status: ('A' for Active; 'I' for Inactive)
REMARK    1  A    between atoms: N_1  and  C_4
REMARK    2  A    between atoms: C_4  and  C_5
REMARK                            x       y       z     vdW  Elec       q    Type
REMARK                         _______ _______ _______ _____ _____    ______ ____
ROOT
ATOM      1  N   UNL     1       5.260   0.086   5.076  0.00  0.00    -0.354 N 
ATOM      2  N   UNL     1       3.026   0.658   5.293  0.00  0.00    -0.372 N 
ATOM      3  N   UNL     1       4.598   1.870   6.444  0.00  0.00    -0.372 N 
ATOM      4  C   UNL     1       4.310   0.870   5.604  0.00  0.00    +0.166 C 
ATOM      5  H   UNL     1       4.974  -0.674   4.470  0.00  0.00    +0.163 HD
ATOM      6  H   UNL     1       2.288   1.235   5.673  0.00  0.00    +0.159 HD
ATOM      7  H   UNL     1       2.747  -0.074   4.651  0.00  0.00    +0.159 HD
ATOM      8  H   UNL     1       5.547   2.078   6.724  0.00  0.00    +0.159 HD
ATOM      9  H   UNL     1       3.872   2.451   6.844  0.00  0.00    +0.159 HD
ENDROOT
BRANCH   1  10
ATOM     10  C   UNL     1       6.692   0.266   5.308  0.00  0.00    +0.151 C 
BRANCH  10  11
ATOM     11  C   UNL     1       7.250   1.179   4.252  0.00  0.00    -0.028 A 
ATOM     12  C   UNL     1       7.237   0.798   2.902  0.00  0.00    +0.005 A 
ATOM     13  C   UNL     1       7.788   2.429   4.594  0.00  0.00    +0.005 A 
ATOM     14  C   UNL     1       7.729   1.658   1.917  0.00  0.00    +0.000 A 
ATOM     15  C   UNL     1       8.279   3.285   3.607  0.00  0.00    +0.000 A 
ATOM     16  C   UNL     1       8.246   2.900   2.269  0.00  0.00    +0.000 A 
ENDBRANCH  10  11
ENDBRANCH   1  10
TORSDOF 2
ENDMDL
