MODEL 1
REMARK VINA RESULT:    -5.873      0.000      0.000
REMARK INTER + INTRA:          -6.682
REMARK INTER:                  -6.559
REMARK INTRA:                  -0.123
REMARK UNBOUND:                -0.123
REMARK  Name = 1550473
REMARK  2 active torsions:
REMARK  status: ('A' for Active; 'I' for Inactive)
REMARK    1  A    between atoms: N_1  and  C_4
REMARK    2  A    between atoms: C_4  and  C_5
REMARK                            x       y       z     vdW  Elec       q    Type
REMARK                         _______ _______ _______ _____ _____    ______ ____
ROOT
ATOM      1  N   UNL     1      -8.481   3.166  -7.000  0.00  0.00    -0.354 N 
ATOM      2  N   UNL     1      -8.823   2.975  -4.718  0.00  0.00    -0.372 N 
ATOM      3  N   UNL     1     -10.151   4.406  -5.922  0.00  0.00    -0.372 N 
ATOM      4  C   UNL     1      -9.151   3.519  -5.896  0.00  0.00    +0.166 C 
ATOM      5  H   UNL     1      -7.713   2.511  -6.909  0.00  0.00    +0.163 HD
ATOM      6  H   UNL     1      -9.313   3.219  -3.868  0.00  0.00    +0.159 HD
ATOM      7  H   UNL     1      -8.085   2.285  -4.637  0.00  0.00    +0.159 HD
ATOM      8  H   UNL     1     -10.444   4.858  -6.778  0.00  0.00    +0.159 HD
ATOM      9  H   UNL     1     -10.646   4.672  -5.080  0.00  0.00    +0.159 HD
ENDROOT
BRANCH   1  10
ATOM     10  C   UNL     1      -8.795   3.660  -8.340  0.00  0.00    +0.151 C 
BRANCH  10  11
ATOM     11  C   UNL     1      -7.663   3.315  -9.268  0.00  0.00    -0.028 A 
ATOM     12  C   UNL     1      -7.602   3.872 -10.554  0.00  0.00    +0.005 A 
ATOM     13  C   UNL     1      -6.646   2.435  -8.866  0.00  0.00    +0.005 A 
ATOM     14  C   UNL     1      -6.535   3.575 -11.406  0.00  0.00    +0.000 A 
ATOM     15  C   UNL     1      -5.583   2.140  -9.720  0.00  0.00    +0.000 A 
ATOM     16  C   UNL     1      -5.527   2.713 -10.989  0.00  0.00    +0.000 A 
ENDBRANCH  10  11
ENDBRANCH   1  10
TORSDOF 2
ENDMDL
MODEL 2
REMARK VINA RESULT:    -5.501      1.769      2.136
REMARK INTER + INTRA:          -6.267
REMARK INTER:                  -6.143
REMARK INTRA:                  -0.124
REMARK UNBOUND:                -0.123
REMARK  Name = 1550473
REMARK  2 active torsions:
REMARK  status: ('A' for Active; 'I' for Inactive)
REMARK    1  A    between atoms: N_1  and  C_4
REMARK    2  A    between atoms: C_4  and  C_5
REMARK                            x       y       z     vdW  Elec       q    Type
REMARK                         _______ _______ _______ _____ _____    ______ ____
ROOT
ATOM      1  N   UNL     1      -8.264   1.514  -5.815  0.00  0.00    -0.354 N 
ATOM      2  N   UNL     1      -8.184   0.099  -3.983  0.00  0.00    -0.372 N 
ATOM      3  N   UNL     1     -10.165   1.134  -4.499  0.00  0.00    -0.372 N 
ATOM      4  C   UNL     1      -8.874   0.926  -4.777  0.00  0.00    +0.166 C 
ATOM      5  H   UNL     1      -7.275   1.339  -5.954  0.00  0.00    +0.163 HD
ATOM      6  H   UNL     1      -8.618  -0.363  -3.195  0.00  0.00    +0.159 HD
ATOM      7  H   UNL     1      -7.207  -0.111  -4.152  0.00  0.00    +0.159 HD
ATOM      8  H   UNL     1     -10.740   1.752  -5.056  0.00  0.00    +0.159 HD
ATOM      9  H   UNL     1     -10.615   0.691  -3.708  0.00  0.00    +0.159 HD
ENDROOT
BRANCH   1  10
ATOM     10  C   UNL     1      -8.939   2.390  -6.771  0.00  0.00    +0.151 C 
BRANCH  10  11
ATOM     11  C   UNL     1      -8.081   2.530  -7.998  0.00  0.00    -0.028 A 
ATOM     12  C   UNL     1      -8.262   3.611  -8.873  0.00  0.00    +0.005 A 
ATOM     13  C   UNL     1      -7.081   1.589  -8.289  0.00  0.00    +0.005 A 
ATOM     14  C   UNL     1      -7.445   3.759  -9.997  0.00  0.00    +0.000 A 
ATOM     15  C   UNL     1      -6.269   1.739  -9.412  0.00  0.00    +0.000 A 
ATOM     16  C   UNL     1      -6.449   2.825 -10.265  0.00  0.00    +0.000 A 
ENDBRANCH  10  11
ENDBRANCH   1  10
TORSDOF 2
ENDMDL
MODEL 3
REMARK VINA RESULT:    -5.497      1.772      2.432
REMARK INTER + INTRA:          -6.263
REMARK INTER:                  -6.143
REMARK INTRA:                  -0.119
REMARK UNBOUND:                -0.123
REMARK  Name = 1550473
REMARK  2 active torsions:
REMARK  status: ('A' for Active; 'I' for Inactive)
REMARK    1  A    between atoms: N_1  and  C_4
REMARK    2  A    between atoms: C_4  and  C_5
REMARK                            x       y       z     vdW  Elec       q    Type
REMARK                         _______ _______ _______ _____ _____    ______ ____
ROOT
ATOM      1  N   UNL     1      -7.408   1.340  -7.421  0.00  0.00    -0.354 N 
ATOM      2  N   UNL     1      -7.347  -0.325  -5.812  0.00  0.00    -0.372 N 
ATOM      3  N   UNL     1      -8.573   1.571  -5.401  0.00  0.00    -0.372 N 
ATOM      4  C   UNL     1      -7.777   0.875  -6.221  0.00  0.00    +0.166 C 
ATOM      5  H   UNL     1      -6.779   0.777  -7.983  0.00  0.00    +0.163 HD
ATOM      6  H   UNL     1      -7.612  -0.703  -4.913  0.00  0.00    +0.159 HD
ATOM      7  H   UNL     1      -6.755  -0.905  -6.395  0.00  0.00    +0.159 HD
ATOM      8  H   UNL     1      -8.927   2.485  -5.648  0.00  0.00    +0.159 HD
ATOM      9  H   UNL     1      -8.840   1.214  -4.492  0.00  0.00    +0.159 HD
ENDROOT
BRANCH   1  10
ATOM     10  C   UNL     1      -7.865   2.610  -7.983  0.00  0.00    +0.151 C 
BRANCH  10  11
ATOM     11  C   UNL     1      -7.162   2.851  -9.290  0.00  0.00    -0.028 A 
ATOM     12  C   UNL     1      -5.907   2.276  -9.540  0.00  0.00    +0.005 A 
ATOM     13  C   UNL     1      -7.747   3.649 -10.285  0.00  0.00    +0.005 A 
ATOM     14  C   UNL     1      -5.267   2.475 -10.766  0.00  0.00    +0.000 A 
ATOM     15  C   UNL     1      -7.105   3.845 -11.507  0.00  0.00    +0.000 A 
ATOM     16  C   UNL     1      -5.866   3.256 -11.748  0.00  0.00    +0.000 A 
ENDBRANCH  10  11
ENDBRANCH   1  10
TORSDOF 2
ENDMDL
MODEL 4
REMARK VINA RESULT:    -5.231      4.188      5.825
REMARK INTER + INTRA:          -5.966
REMARK INTER:                  -5.826
REMARK INTRA:                  -0.139
REMARK UNBOUND:                -0.123
REMARK  Name = 1550473
REMARK  2 active torsions:
REMARK  status: ('A' for Active; 'I' for Inactive)
REMARK    1  A    between atoms: N_1  and  C_4
REMARK    2  A    between atoms: C_4  and  C_5
REMARK                            x       y       z     vdW  Elec       q    Type
REMARK                         _______ _______ _______ _____ _____    ______ ____
ROOT
ATOM      1  N   UNL     1      -5.958   2.833 -12.781  0.00  0.00    -0.354 N 
ATOM      2  N   UNL     1      -5.610   1.495 -14.639  0.00  0.00    -0.372 N 
ATOM      3  N   UNL     1      -7.432   2.890 -14.601  0.00  0.00    -0.372 N 
ATOM      4  C   UNL     1      -6.338   2.416 -13.995  0.00  0.00    +0.166 C 
ATOM      5  H   UNL     1      -5.135   2.413 -12.363  0.00  0.00    +0.163 HD
ATOM      6  H   UNL     1      -5.871   1.164 -15.558  0.00  0.00    +0.159 HD
ATOM      7  H   UNL     1      -4.763   1.111 -14.239  0.00  0.00    +0.159 HD
ATOM      8  H   UNL     1      -8.028   3.582 -14.166  0.00  0.00    +0.159 HD
ATOM      9  H   UNL     1      -7.716   2.562 -15.516  0.00  0.00    +0.159 HD
ENDROOT
BRANCH   1  10
ATOM     10  C   UNL     1      -6.650   3.871 -12.018  0.00  0.00    +0.151 C 
BRANCH  10  11
ATOM     11  C   UNL     1      -6.951   3.349 -10.640  0.00  0.00    -0.028 A 
ATOM     12  C   UNL     1      -6.156   2.345 -10.070  0.00  0.00    +0.005 A 
ATOM     13  C   UNL     1      -8.027   3.859  -9.898  0.00  0.00    +0.005 A 
ATOM     14  C   UNL     1      -6.416   1.882  -8.778  0.00  0.00    +0.000 A 
ATOM     15  C   UNL     1      -8.285   3.393  -8.609  0.00  0.00    +0.000 A 
ATOM     16  C   UNL     1      -7.478   2.406  -8.048  0.00  0.00    +0.000 A 
ENDBRANCH  10  11
ENDBRANCH   1  10
TORSDOF 2
ENDMDL
MODEL 5
REMARK VINA RESULT:    -5.186      4.165      6.831
REMARK INTER + INTRA:          -5.915
REMARK INTER:                  -5.791
REMARK INTRA:                  -0.125
REMARK UNBOUND:                -0.123
REMARK  Name = 1550473
REMARK  2 active torsions:
REMARK  status: ('A' for Active; 'I' for Inactive)
REMARK    1  A    between atoms: N_1  and  C_4
REMARK    2  A    between atoms: C_4  and  C_5
REMARK                            x       y       z     vdW  Elec       q    Type
REMARK                         _______ _______ _______ _____ _____    ______ ____
ROOT
ATOM      1  N   UNL     1     -10.321   4.719  -5.590  0.00  0.00    -0.354 N 
ATOM      2  N   UNL     1      -8.966   3.058  -4.713  0.00  0.00    -0.372 N 
ATOM      3  N   UNL     1      -8.561   3.810  -6.843  0.00  0.00    -0.372 N 
ATOM      4  C   UNL     1      -9.290   3.873  -5.724  0.00  0.00    +0.166 C 
ATOM      5  H   UNL     1     -10.853   4.696  -4.727  0.00  0.00    +0.163 HD
ATOM      6  H   UNL     1      -8.191   2.412  -4.784  0.00  0.00    +0.159 HD
ATOM      7  H   UNL     1      -9.470   3.070  -3.835  0.00  0.00    +0.159 HD
ATOM      8  H   UNL     1      -8.759   4.395  -7.644  0.00  0.00    +0.159 HD
ATOM      9  H   UNL     1      -7.789   3.162  -6.937  0.00  0.00    +0.159 HD
ENDROOT
BRANCH   1  10
ATOM     10  C   UNL     1     -10.723   5.685  -6.610  0.00  0.00    +0.151 C 
BRANCH  10  11
ATOM     11  C   UNL     1     -11.490   6.801  -5.954  0.00  0.00    -0.028 A 
ATOM     12  C   UNL     1     -11.764   7.984  -6.656  0.00  0.00    +0.005 A 
ATOM     13  C   UNL     1     -11.949   6.679  -4.634  0.00  0.00    +0.005 A 
ATOM     14  C   UNL     1     -12.501   9.009  -6.057  0.00  0.00    +0.000 A 
ATOM     15  C   UNL     1     -12.684   7.704  -4.040  0.00  0.00    +0.000 A 
ATOM     16  C   UNL     1     -12.962   8.868  -4.753  0.00  0.00    +0.000 A 
ENDBRANCH  10  11
ENDBRANCH   1  10
TORSDOF 2
ENDMDL
MODEL 6
REMARK VINA RESULT:    -5.014     26.603     28.280
REMARK INTER + INTRA:          -5.723
REMARK INTER:                  -5.551
REMARK INTRA:                  -0.172
REMARK UNBOUND:                -0.123
REMARK  Name = 1550473
REMARK  2 active torsions:
REMARK  status: ('A' for Active; 'I' for Inactive)
REMARK    1  A    between atoms: N_1  and  C_4
REMARK    2  A    between atoms: C_4  and  C_5
REMARK                            x       y       z     vdW  Elec       q    Type
REMARK                         _______ _______ _______ _____ _____    ______ ____
ROOT
ATOM      1  N   UNL     1       6.270   4.817  14.560  0.00  0.00    -0.354 N 
ATOM      2  N   UNL     1       5.480   4.729  12.385  0.00  0.00    -0.372 N 
ATOM      3  N   UNL     1       4.629   6.312  13.811  0.00  0.00    -0.372 N 
ATOM      4  C   UNL     1       5.463   5.289  13.601  0.00  0.00    +0.166 C 
ATOM      5  H   UNL     1       6.857   4.019  14.346  0.00  0.00    +0.163 HD
ATOM      6  H   UNL     1       4.885   5.066  11.640  0.00  0.00    +0.159 HD
ATOM      7  H   UNL     1       6.102   3.962  12.160  0.00  0.00    +0.159 HD
ATOM      8  H   UNL     1       4.563   6.774  14.708  0.00  0.00    +0.159 HD
ATOM      9  H   UNL     1       4.017   6.656  13.081  0.00  0.00    +0.159 HD
ENDROOT
BRANCH   1  10
ATOM     10  C   UNL     1       6.367   5.389  15.902  0.00  0.00    +0.151 C 
BRANCH  10  11
ATOM     11  C   UNL     1       7.477   6.403  15.924  0.00  0.00    -0.028 A 
ATOM     12  C   UNL     1       8.814   5.998  15.806  0.00  0.00    +0.005 A 
ATOM     13  C   UNL     1       7.198   7.772  16.057  0.00  0.00    +0.005 A 
ATOM     14  C   UNL     1       9.844   6.942  15.796  0.00  0.00    +0.000 A 
ATOM     15  C   UNL     1       8.229   8.712  16.048  0.00  0.00    +0.000 A 
ATOM     16  C   UNL     1       9.551   8.296  15.915  0.00  0.00    +0.000 A 
ENDBRANCH  10  11
ENDBRANCH   1  10
TORSDOF 2
ENDMDL
MODEL 7
REMARK VINA RESULT:    -4.645     26.948     28.584
REMARK INTER + INTRA:          -5.311
REMARK INTER:                  -5.150
REMARK INTRA:                  -0.161
REMARK UNBOUND:                -0.123
REMARK  Name = 1550473
REMARK  2 active torsions:
REMARK  status: ('A' for Active; 'I' for Inactive)
REMARK    1  A    between atoms: N_1  and  C_4
REMARK    2  A    between atoms: C_4  and  C_5
REMARK                            x       y       z     vdW  Elec       q    Type
REMARK                         _______ _______ _______ _____ _____    ______ ____
ROOT
ATOM      1  N   UNL     1       6.218   4.557  14.406  0.00  0.00    -0.354 N 
ATOM      2  N   UNL     1       5.617   4.914  12.198  0.00  0.00    -0.372 N 
ATOM      3  N   UNL     1       4.879   6.382  13.799  0.00  0.00    -0.372 N 
ATOM      4  C   UNL     1       5.574   5.284  13.483  0.00  0.00    +0.166 C 
ATOM      5  H   UNL     1       6.701   3.718  14.106  0.00  0.00    +0.163 HD
ATOM      6  H   UNL     1       5.144   5.444  11.479  0.00  0.00    +0.159 HD
ATOM      7  H   UNL     1       6.140   4.101  11.895  0.00  0.00    +0.159 HD
ATOM      8  H   UNL     1       4.802   6.711  14.752  0.00  0.00    +0.159 HD
ATOM      9  H   UNL     1       4.389   6.920  13.095  0.00  0.00    +0.159 HD
ENDROOT
BRANCH   1  10
ATOM     10  C   UNL     1       6.277   4.904  15.825  0.00  0.00    +0.151 C 
BRANCH  10  11
ATOM     11  C   UNL     1       7.704   5.200  16.198  0.00  0.00    -0.028 A 
ATOM     12  C   UNL     1       8.302   6.411  15.820  0.00  0.00    +0.005 A 
ATOM     13  C   UNL     1       8.461   4.277  16.936  0.00  0.00    +0.005 A 
ATOM     14  C   UNL     1       9.617   6.700  16.192  0.00  0.00    +0.000 A 
ATOM     15  C   UNL     1       9.774   4.569  17.305  0.00  0.00    +0.000 A 
ATOM     16  C   UNL     1      10.351   5.781  16.935  0.00  0.00    +0.000 A 
ENDBRANCH  10  11
ENDBRANCH   1  10
TORSDOF 2
ENDMDL
MODEL 8
REMARK VINA RESULT:    -4.586      3.557      4.502
REMARK INTER + INTRA:          -5.245
REMARK INTER:                  -5.142
REMARK INTRA:                  -0.103
REMARK UNBOUND:                -0.123
REMARK  Name = 1550473
REMARK  2 active torsions:
REMARK  status: ('A' for Active; 'I' for Inactive)
REMARK    1  A    between atoms: N_1  and  C_4
REMARK    2  A    between atoms: C_4  and  C_5
REMARK                            x       y       z     vdW  Elec       q    Type
REMARK                         _______ _______ _______ _____ _____    ______ ____
ROOT
ATOM      1  N   UNL     1      -7.614  -0.762  -6.084  0.00  0.00    -0.354 N 
ATOM      2  N   UNL     1      -6.644  -2.832  -6.454  0.00  0.00    -0.372 N 
ATOM      3  N   UNL     1      -8.835  -2.511  -7.053  0.00  0.00    -0.372 N 
ATOM      4  C   UNL     1      -7.707  -2.022  -6.528  0.00  0.00    +0.166 C 
ATOM      5  H   UNL     1      -6.740  -0.461  -5.669  0.00  0.00    +0.163 HD
ATOM      6  H   UNL     1      -6.683  -3.787  -6.784  0.00  0.00    +0.159 HD
ATOM      7  H   UNL     1      -5.757  -2.515  -6.081  0.00  0.00    +0.159 HD
ATOM      8  H   UNL     1      -9.675  -1.953  -7.133  0.00  0.00    +0.159 HD
ATOM      9  H   UNL     1      -8.898  -3.467  -7.379  0.00  0.00    +0.159 HD
ENDROOT
BRANCH   1  10
ATOM     10  C   UNL     1      -8.696   0.217  -6.169  0.00  0.00    +0.151 C 
BRANCH  10  11
ATOM     11  C   UNL     1      -8.274   1.339  -7.077  0.00  0.00    -0.028 A 
ATOM     12  C   UNL     1      -7.202   1.170  -7.965  0.00  0.00    +0.005 A 
ATOM     13  C   UNL     1      -8.946   2.571  -7.059  0.00  0.00    +0.005 A 
ATOM     14  C   UNL     1      -6.828   2.202  -8.830  0.00  0.00    +0.000 A 
ATOM     15  C   UNL     1      -8.570   3.598  -7.924  0.00  0.00    +0.000 A 
ATOM     16  C   UNL     1      -7.512   3.412  -8.811  0.00  0.00    +0.000 A 
ENDBRANCH  10  11
ENDBRANCH   1  10
TORSDOF 2
ENDMDL
MODEL 9
REMARK VINA RESULT:    -4.458      3.627      4.207
REMARK INTER + INTRA:          -5.102
REMARK INTER:                  -4.966
REMARK INTRA:                  -0.137
REMARK UNBOUND:                -0.123
REMARK  Name = 1550473
REMARK  2 active torsions:
REMARK  status: ('A' for Active; 'I' for Inactive)
REMARK    1  A    between atoms: N_1  and  C_4
REMARK    2  A    between atoms: C_4  and  C_5
REMARK                            x       y       z     vdW  Elec       q    Type
REMARK                         _______ _______ _______ _____ _____    ______ ____
ROOT
ATOM      1  N   UNL     1      -7.995   0.551  -5.932  0.00  0.00    -0.354 N 
ATOM      2  N   UNL     1      -8.738   2.420  -4.783  0.00  0.00    -0.372 N 
ATOM      3  N   UNL     1      -9.577   0.361  -4.214  0.00  0.00    -0.372 N 
ATOM      4  C   UNL     1      -8.767   1.096  -4.983  0.00  0.00    +0.166 C 
ATOM      5  H   UNL     1      -7.425   1.167  -6.502  0.00  0.00    +0.163 HD
ATOM      6  H   UNL     1      -9.307   2.859  -4.071  0.00  0.00    +0.159 HD
ATOM      7  H   UNL     1      -8.133   3.027  -5.322  0.00  0.00    +0.159 HD
ATOM      8  H   UNL     1      -9.649  -0.642  -4.318  0.00  0.00    +0.159 HD
ATOM      9  H   UNL     1     -10.162   0.784  -3.504  0.00  0.00    +0.159 HD
ENDROOT
BRANCH   1  10
ATOM     10  C   UNL     1      -7.912  -0.884  -6.194  0.00  0.00    +0.151 C 
BRANCH  10  11
ATOM     11  C   UNL     1      -7.822  -1.109  -7.679  0.00  0.00    -0.028 A 
ATOM     12  C   UNL     1      -7.790  -0.020  -8.562  0.00  0.00    +0.005 A 
ATOM     13  C   UNL     1      -7.764  -2.407  -8.207  0.00  0.00    +0.005 A 
ATOM     14  C   UNL     1      -7.676  -0.227  -9.939  0.00  0.00    +0.000 A 
ATOM     15  C   UNL     1      -7.652  -2.610  -9.583  0.00  0.00    +0.000 A 
ATOM     16  C   UNL     1      -7.605  -1.519 -10.448  0.00  0.00    +0.000 A 
ENDBRANCH  10  11
ENDBRANCH   1  10
TORSDOF 2
ENDMDL
