MODEL 1
REMARK VINA RESULT:    -5.093      0.000      0.000
REMARK INTER + INTRA:          -5.807
REMARK INTER:                  -5.689
REMARK INTRA:                  -0.118
REMARK UNBOUND:                -0.118
REMARK  Name = 1550473
REMARK  2 active torsions:
REMARK  status: ('A' for Active; 'I' for Inactive)
REMARK    1  A    between atoms: N_1  and  C_4
REMARK    2  A    between atoms: C_4  and  C_5
REMARK                            x       y       z     vdW  Elec       q    Type
REMARK                         _______ _______ _______ _____ _____    ______ ____
ROOT
ATOM      1  N   UNL     1      -5.495   3.786 -19.415  0.00  0.00    -0.354 N 
ATOM      2  N   UNL     1      -3.382   4.484 -20.055  0.00  0.00    -0.372 N 
ATOM      3  N   UNL     1      -3.802   4.118 -17.829  0.00  0.00    -0.372 N 
ATOM      4  C   UNL     1      -4.240   4.125 -19.093  0.00  0.00    +0.166 C 
ATOM      5  H   UNL     1      -5.774   3.841 -20.388  0.00  0.00    +0.163 HD
ATOM      6  H   UNL     1      -2.428   4.742 -19.843  0.00  0.00    +0.159 HD
ATOM      7  H   UNL     1      -3.651   4.494 -21.032  0.00  0.00    +0.159 HD
ATOM      8  H   UNL     1      -4.401   3.862 -17.056  0.00  0.00    +0.159 HD
ATOM      9  H   UNL     1      -2.853   4.384 -17.596  0.00  0.00    +0.159 HD
ENDROOT
BRANCH   1  10
ATOM     10  C   UNL     1      -6.492   3.328 -18.448  0.00  0.00    +0.151 C 
BRANCH  10  11
ATOM     11  C   UNL     1      -7.506   2.472 -19.156  0.00  0.00    -0.028 A 
ATOM     12  C   UNL     1      -8.183   1.454 -18.469  0.00  0.00    +0.005 A 
ATOM     13  C   UNL     1      -7.798   2.678 -20.513  0.00  0.00    +0.005 A 
ATOM     14  C   UNL     1      -9.146   0.679 -19.118  0.00  0.00    +0.000 A 
ATOM     15  C   UNL     1      -8.760   1.900 -21.158  0.00  0.00    +0.000 A 
ATOM     16  C   UNL     1      -9.435   0.903 -20.460  0.00  0.00    +0.000 A 
ENDBRANCH  10  11
ENDBRANCH   1  10
TORSDOF 2
ENDMDL
MODEL 2
REMARK VINA RESULT:    -4.534     17.790     20.430
REMARK INTER + INTRA:          -5.182
REMARK INTER:                  -5.061
REMARK INTRA:                  -0.121
REMARK UNBOUND:                -0.118
REMARK  Name = 1550473
REMARK  2 active torsions:
REMARK  status: ('A' for Active; 'I' for Inactive)
REMARK    1  A    between atoms: N_1  and  C_4
REMARK    2  A    between atoms: C_4  and  C_5
REMARK                            x       y       z     vdW  Elec       q    Type
REMARK                         _______ _______ _______ _____ _____    ______ ____
ROOT
ATOM      1  N   UNL     1       9.339   0.350 -10.772  0.00  0.00    -0.354 N 
ATOM      2  N   UNL     1       8.544  -0.387 -12.819  0.00  0.00    -0.372 N 
ATOM      3  N   UNL     1       7.833   1.643 -12.019  0.00  0.00    -0.372 N 
ATOM      4  C   UNL     1       8.576   0.543 -11.856  0.00  0.00    +0.166 C 
ATOM      5  H   UNL     1       9.854  -0.519 -10.695  0.00  0.00    +0.163 HD
ATOM      6  H   UNL     1       7.980  -0.268 -13.650  0.00  0.00    +0.159 HD
ATOM      7  H   UNL     1       9.096  -1.234 -12.760  0.00  0.00    +0.159 HD
ATOM      8  H   UNL     1       7.809   2.380 -11.327  0.00  0.00    +0.159 HD
ATOM      9  H   UNL     1       7.254   1.775 -12.839  0.00  0.00    +0.159 HD
ENDROOT
BRANCH   1  10
ATOM     10  C   UNL     1       9.485   1.325  -9.692  0.00  0.00    +0.151 C 
BRANCH  10  11
ATOM     11  C   UNL     1      10.660   0.937  -8.837  0.00  0.00    -0.028 A 
ATOM     12  C   UNL     1      11.180  -0.364  -8.890  0.00  0.00    +0.005 A 
ATOM     13  C   UNL     1      11.262   1.869  -7.977  0.00  0.00    +0.005 A 
ATOM     14  C   UNL     1      12.290  -0.716  -8.118  0.00  0.00    +0.000 A 
ATOM     15  C   UNL     1      12.369   1.513  -7.208  0.00  0.00    +0.000 A 
ATOM     16  C   UNL     1      12.885   0.221  -7.280  0.00  0.00    +0.000 A 
ENDBRANCH  10  11
ENDBRANCH   1  10
TORSDOF 2
ENDMDL
MODEL 3
REMARK VINA RESULT:    -4.533      2.594      4.462
REMARK INTER + INTRA:          -5.182
REMARK INTER:                  -5.044
REMARK INTRA:                  -0.137
REMARK UNBOUND:                -0.118
REMARK  Name = 1550473
REMARK  2 active torsions:
REMARK  status: ('A' for Active; 'I' for Inactive)
REMARK    1  A    between atoms: N_1  and  C_4
REMARK    2  A    between atoms: C_4  and  C_5
REMARK                            x       y       z     vdW  Elec       q    Type
REMARK                         _______ _______ _______ _____ _____    ______ ____
ROOT
ATOM      1  N   UNL     1      -8.242   2.809 -18.990  0.00  0.00    -0.354 N 
ATOM      2  N   UNL     1      -8.514   2.706 -16.693  0.00  0.00    -0.372 N 
ATOM      3  N   UNL     1      -6.794   1.536 -17.660  0.00  0.00    -0.372 N 
ATOM      4  C   UNL     1      -7.846   2.349 -17.796  0.00  0.00    +0.166 C 
ATOM      5  H   UNL     1      -9.066   3.398 -19.030  0.00  0.00    +0.163 HD
ATOM      6  H   UNL     1      -8.237   2.377 -15.778  0.00  0.00    +0.159 HD
ATOM      7  H   UNL     1      -9.310   3.332 -16.730  0.00  0.00    +0.159 HD
ATOM      8  H   UNL     1      -6.251   1.224 -18.454  0.00  0.00    +0.159 HD
ATOM      9  H   UNL     1      -6.508   1.187 -16.753  0.00  0.00    +0.159 HD
ENDROOT
BRANCH   1  10
ATOM     10  C   UNL     1      -7.552   2.524 -20.247  0.00  0.00    +0.151 C 
BRANCH  10  11
ATOM     11  C   UNL     1      -6.749   3.730 -20.651  0.00  0.00    -0.028 A 
ATOM     12  C   UNL     1      -5.539   4.028 -20.007  0.00  0.00    +0.005 A 
ATOM     13  C   UNL     1      -7.190   4.575 -21.681  0.00  0.00    +0.005 A 
ATOM     14  C   UNL     1      -4.778   5.131 -20.402  0.00  0.00    +0.000 A 
ATOM     15  C   UNL     1      -6.428   5.675 -22.072  0.00  0.00    +0.000 A 
ATOM     16  C   UNL     1      -5.221   5.952 -21.434  0.00  0.00    +0.000 A 
ENDBRANCH  10  11
ENDBRANCH   1  10
TORSDOF 2
ENDMDL
MODEL 4
REMARK VINA RESULT:    -4.199     30.978     32.393
REMARK INTER + INTRA:          -4.808
REMARK INTER:                  -4.698
REMARK INTRA:                  -0.110
REMARK UNBOUND:                -0.118
REMARK  Name = 1550473
REMARK  2 active torsions:
REMARK  status: ('A' for Active; 'I' for Inactive)
REMARK    1  A    between atoms: N_1  and  C_4
REMARK    2  A    between atoms: C_4  and  C_5
REMARK                            x       y       z     vdW  Elec       q    Type
REMARK                         _______ _______ _______ _____ _____    ______ ____
ROOT
ATOM      1  N   UNL     1      -4.464  13.149  12.210  0.00  0.00    -0.354 N 
ATOM      2  N   UNL     1      -3.484  11.513  13.524  0.00  0.00    -0.372 N 
ATOM      3  N   UNL     1      -2.492  13.578  13.401  0.00  0.00    -0.372 N 
ATOM      4  C   UNL     1      -3.484  12.759  13.037  0.00  0.00    +0.166 C 
ATOM      5  H   UNL     1      -5.171  12.471  11.948  0.00  0.00    +0.163 HD
ATOM      6  H   UNL     1      -2.760  11.192  14.153  0.00  0.00    +0.159 HD
ATOM      7  H   UNL     1      -4.217  10.852  13.297  0.00  0.00    +0.159 HD
ATOM      8  H   UNL     1      -2.432  14.530  13.064  0.00  0.00    +0.159 HD
ATOM      9  H   UNL     1      -1.752  13.272  14.020  0.00  0.00    +0.159 HD
ENDROOT
BRANCH   1  10
ATOM     10  C   UNL     1      -4.586  14.500  11.666  0.00  0.00    +0.151 C 
BRANCH  10  11
ATOM     11  C   UNL     1      -5.395  14.449  10.400  0.00  0.00    -0.028 A 
ATOM     12  C   UNL     1      -6.553  13.660  10.326  0.00  0.00    +0.005 A 
ATOM     13  C   UNL     1      -5.013  15.191   9.272  0.00  0.00    +0.005 A 
ATOM     14  C   UNL     1      -7.321  13.635   9.159  0.00  0.00    +0.000 A 
ATOM     15  C   UNL     1      -5.782  15.163   8.109  0.00  0.00    +0.000 A 
ATOM     16  C   UNL     1      -6.938  14.387   8.054  0.00  0.00    +0.000 A 
ENDBRANCH  10  11
ENDBRANCH   1  10
TORSDOF 2
ENDMDL
MODEL 5
REMARK VINA RESULT:    -4.133     22.323     24.753
REMARK INTER + INTRA:          -4.734
REMARK INTER:                  -4.606
REMARK INTRA:                  -0.128
REMARK UNBOUND:                -0.118
REMARK  Name = 1550473
REMARK  2 active torsions:
REMARK  status: ('A' for Active; 'I' for Inactive)
REMARK    1  A    between atoms: N_1  and  C_4
REMARK    2  A    between atoms: C_4  and  C_5
REMARK                            x       y       z     vdW  Elec       q    Type
REMARK                         _______ _______ _______ _____ _____    ______ ____
ROOT
ATOM      1  N   UNL     1       1.591  12.878  -0.864  0.00  0.00    -0.354 N 
ATOM      2  N   UNL     1       0.775  10.812  -1.518  0.00  0.00    -0.372 N 
ATOM      3  N   UNL     1       2.069  12.008  -2.987  0.00  0.00    -0.372 N 
ATOM      4  C   UNL     1       1.485  11.914  -1.788  0.00  0.00    +0.166 C 
ATOM      5  H   UNL     1       1.100  12.760   0.014  0.00  0.00    +0.163 HD
ATOM      6  H   UNL     1       0.679  10.066  -2.194  0.00  0.00    +0.159 HD
ATOM      7  H   UNL     1       0.322  10.676  -0.622  0.00  0.00    +0.159 HD
ATOM      8  H   UNL     1       2.614  12.817  -3.255  0.00  0.00    +0.159 HD
ATOM      9  H   UNL     1       1.976  11.277  -3.681  0.00  0.00    +0.159 HD
ENDROOT
BRANCH   1  10
ATOM     10  C   UNL     1       2.386  14.093  -1.038  0.00  0.00    +0.151 C 
BRANCH  10  11
ATOM     11  C   UNL     1       3.220  14.315   0.193  0.00  0.00    -0.028 A 
ATOM     12  C   UNL     1       4.513  14.849   0.090  0.00  0.00    +0.005 A 
ATOM     13  C   UNL     1       2.722  13.998   1.466  0.00  0.00    +0.005 A 
ATOM     14  C   UNL     1       5.277  15.083   1.236  0.00  0.00    +0.000 A 
ATOM     15  C   UNL     1       3.489  14.232   2.607  0.00  0.00    +0.000 A 
ATOM     16  C   UNL     1       4.765  14.777   2.492  0.00  0.00    +0.000 A 
ENDBRANCH  10  11
ENDBRANCH   1  10
TORSDOF 2
ENDMDL
MODEL 6
REMARK VINA RESULT:    -4.124     13.503     14.096
REMARK INTER + INTRA:          -4.724
REMARK INTER:                  -4.611
REMARK INTRA:                  -0.113
REMARK UNBOUND:                -0.118
REMARK  Name = 1550473
REMARK  2 active torsions:
REMARK  status: ('A' for Active; 'I' for Inactive)
REMARK    1  A    between atoms: N_1  and  C_4
REMARK    2  A    between atoms: C_4  and  C_5
REMARK                            x       y       z     vdW  Elec       q    Type
REMARK                         _______ _______ _______ _____ _____    ______ ____
ROOT
ATOM      1  N   UNL     1      -0.411  -8.420 -15.150  0.00  0.00    -0.354 N 
ATOM      2  N   UNL     1      -2.209  -8.228 -13.702  0.00  0.00    -0.372 N 
ATOM      3  N   UNL     1      -0.150  -8.772 -12.848  0.00  0.00    -0.372 N 
ATOM      4  C   UNL     1      -0.909  -8.475 -13.907  0.00  0.00    +0.166 C 
ATOM      5  H   UNL     1      -1.045  -8.219 -15.914  0.00  0.00    +0.163 HD
ATOM      6  H   UNL     1      -2.612  -8.259 -12.775  0.00  0.00    +0.159 HD
ATOM      7  H   UNL     1      -2.831  -7.982 -14.462  0.00  0.00    +0.159 HD
ATOM      8  H   UNL     1       0.837  -8.975 -12.936  0.00  0.00    +0.159 HD
ATOM      9  H   UNL     1      -0.538  -8.820 -11.914  0.00  0.00    +0.159 HD
ENDROOT
BRANCH   1  10
ATOM     10  C   UNL     1       1.000  -8.620 -15.474  0.00  0.00    +0.151 C 
BRANCH  10  11
ATOM     11  C   UNL     1       1.219  -8.305 -16.928  0.00  0.00    -0.028 A 
ATOM     12  C   UNL     1       0.244  -8.631 -17.882  0.00  0.00    +0.005 A 
ATOM     13  C   UNL     1       2.398  -7.676 -17.358  0.00  0.00    +0.005 A 
ATOM     14  C   UNL     1       0.434  -8.312 -19.229  0.00  0.00    +0.000 A 
ATOM     15  C   UNL     1       2.584  -7.360 -18.704  0.00  0.00    +0.000 A 
ATOM     16  C   UNL     1       1.601  -7.676 -19.638  0.00  0.00    +0.000 A 
ENDBRANCH  10  11
ENDBRANCH   1  10
TORSDOF 2
ENDMDL
MODEL 7
REMARK VINA RESULT:    -3.997     22.409     23.518
REMARK INTER + INTRA:          -4.582
REMARK INTER:                  -4.424
REMARK INTRA:                  -0.159
REMARK UNBOUND:                -0.118
REMARK  Name = 1550473
REMARK  2 active torsions:
REMARK  status: ('A' for Active; 'I' for Inactive)
REMARK    1  A    between atoms: N_1  and  C_4
REMARK    2  A    between atoms: C_4  and  C_5
REMARK                            x       y       z     vdW  Elec       q    Type
REMARK                         _______ _______ _______ _____ _____    ______ ____
ROOT
ATOM      1  N   UNL     1      -5.120   6.409   3.032  0.00  0.00    -0.354 N 
ATOM      2  N   UNL     1      -3.498   7.833   3.873  0.00  0.00    -0.372 N 
ATOM      3  N   UNL     1      -5.657   8.049   4.619  0.00  0.00    -0.372 N 
ATOM      4  C   UNL     1      -4.771   7.422   3.837  0.00  0.00    +0.166 C 
ATOM      5  H   UNL     1      -4.408   5.996   2.442  0.00  0.00    +0.163 HD
ATOM      6  H   UNL     1      -3.204   8.592   4.472  0.00  0.00    +0.159 HD
ATOM      7  H   UNL     1      -2.779   7.387   3.316  0.00  0.00    +0.159 HD
ATOM      8  H   UNL     1      -6.635   7.791   4.634  0.00  0.00    +0.159 HD
ATOM      9  H   UNL     1      -5.385   8.818   5.217  0.00  0.00    +0.159 HD
ENDROOT
BRANCH   1  10
ATOM     10  C   UNL     1      -6.469   5.851   2.959  0.00  0.00    +0.151 C 
BRANCH  10  11
ATOM     11  C   UNL     1      -6.448   4.444   3.490  0.00  0.00    -0.028 A 
ATOM     12  C   UNL     1      -5.980   3.389   2.693  0.00  0.00    +0.005 A 
ATOM     13  C   UNL     1      -6.889   4.160   4.792  0.00  0.00    +0.005 A 
ATOM     14  C   UNL     1      -5.932   2.087   3.197  0.00  0.00    +0.000 A 
ATOM     15  C   UNL     1      -6.840   2.858   5.291  0.00  0.00    +0.000 A 
ATOM     16  C   UNL     1      -6.359   1.822   4.494  0.00  0.00    +0.000 A 
ENDBRANCH  10  11
ENDBRANCH   1  10
TORSDOF 2
ENDMDL
MODEL 8
REMARK VINA RESULT:    -3.995     20.527     23.189
REMARK INTER + INTRA:          -4.580
REMARK INTER:                  -4.440
REMARK INTRA:                  -0.140
REMARK UNBOUND:                -0.118
REMARK  Name = 1550473
REMARK  2 active torsions:
REMARK  status: ('A' for Active; 'I' for Inactive)
REMARK    1  A    between atoms: N_1  and  C_4
REMARK    2  A    between atoms: C_4  and  C_5
REMARK                            x       y       z     vdW  Elec       q    Type
REMARK                         _______ _______ _______ _____ _____    ______ ____
ROOT
ATOM      1  N   UNL     1      10.728   0.616  -8.055  0.00  0.00    -0.354 N 
ATOM      2  N   UNL     1       9.393  -0.937  -9.135  0.00  0.00    -0.372 N 
ATOM      3  N   UNL     1      10.862   0.314 -10.375  0.00  0.00    -0.372 N 
ATOM      4  C   UNL     1      10.338   0.009  -9.184  0.00  0.00    +0.166 C 
ATOM      5  H   UNL     1      10.270   0.361  -7.188  0.00  0.00    +0.163 HD
ATOM      6  H   UNL     1       9.080  -1.416  -9.969  0.00  0.00    +0.159 HD
ATOM      7  H   UNL     1       8.969  -1.223  -8.260  0.00  0.00    +0.159 HD
ATOM      8  H   UNL     1      11.575   1.024 -10.481  0.00  0.00    +0.159 HD
ATOM      9  H   UNL     1      10.554  -0.145 -11.223  0.00  0.00    +0.159 HD
ENDROOT
BRANCH   1  10
ATOM     10  C   UNL     1      11.788   1.622  -7.992  0.00  0.00    +0.151 C 
BRANCH  10  11
ATOM     11  C   UNL     1      12.740   1.264  -6.885  0.00  0.00    -0.028 A 
ATOM     12  C   UNL     1      13.679   2.198  -6.423  0.00  0.00    +0.005 A 
ATOM     13  C   UNL     1      12.705  -0.007  -6.290  0.00  0.00    +0.005 A 
ATOM     14  C   UNL     1      14.543   1.875  -5.374  0.00  0.00    +0.000 A 
ATOM     15  C   UNL     1      13.570  -0.325  -5.243  0.00  0.00    +0.000 A 
ATOM     16  C   UNL     1      14.488   0.617  -4.784  0.00  0.00    +0.000 A 
ENDBRANCH  10  11
ENDBRANCH   1  10
TORSDOF 2
ENDMDL
MODEL 9
REMARK VINA RESULT:    -3.921     22.788     25.225
REMARK INTER + INTRA:          -4.497
REMARK INTER:                  -4.355
REMARK INTRA:                  -0.142
REMARK UNBOUND:                -0.118
REMARK  Name = 1550473
REMARK  2 active torsions:
REMARK  status: ('A' for Active; 'I' for Inactive)
REMARK    1  A    between atoms: N_1  and  C_4
REMARK    2  A    between atoms: C_4  and  C_5
REMARK                            x       y       z     vdW  Elec       q    Type
REMARK                         _______ _______ _______ _____ _____    ______ ____
ROOT
ATOM      1  N   UNL     1      12.925  -0.781  -7.494  0.00  0.00    -0.354 N 
ATOM      2  N   UNL     1      10.699  -0.713  -8.130  0.00  0.00    -0.372 N 
ATOM      3  N   UNL     1      11.587   1.079  -7.004  0.00  0.00    -0.372 N 
ATOM      4  C   UNL     1      11.752  -0.136  -7.537  0.00  0.00    +0.166 C 
ATOM      5  H   UNL     1      12.977  -1.713  -7.890  0.00  0.00    +0.163 HD
ATOM      6  H   UNL     1       9.802  -0.249  -8.180  0.00  0.00    +0.159 HD
ATOM      7  H   UNL     1      10.766  -1.625  -8.565  0.00  0.00    +0.159 HD
ATOM      8  H   UNL     1      12.341   1.566  -6.537  0.00  0.00    +0.159 HD
ATOM      9  H   UNL     1      10.694   1.554  -7.034  0.00  0.00    +0.159 HD
ENDROOT
BRANCH   1  10
ATOM     10  C   UNL     1      14.147  -0.219  -6.920  0.00  0.00    +0.151 C 
BRANCH  10  11
ATOM     11  C   UNL     1      14.587  -1.077  -5.766  0.00  0.00    -0.028 A 
ATOM     12  C   UNL     1      14.997  -2.402  -5.979  0.00  0.00    +0.005 A 
ATOM     13  C   UNL     1      14.601  -0.570  -4.458  0.00  0.00    +0.005 A 
ATOM     14  C   UNL     1      15.435  -3.189  -4.912  0.00  0.00    +0.000 A 
ATOM     15  C   UNL     1      15.038  -1.360  -3.394  0.00  0.00    +0.000 A 
ATOM     16  C   UNL     1      15.457  -2.669  -3.622  0.00  0.00    +0.000 A 
ENDBRANCH  10  11
ENDBRANCH   1  10
TORSDOF 2
ENDMDL
