MODEL 1
REMARK VINA RESULT:    -6.115      0.000      0.000
REMARK INTER + INTRA:          -7.008
REMARK INTER:                  -6.830
REMARK INTRA:                  -0.177
REMARK UNBOUND:                -0.177
REMARK  Name = 1550473
REMARK  2 active torsions:
REMARK  status: ('A' for Active; 'I' for Inactive)
REMARK    1  A    between atoms: N_1  and  C_4
REMARK    2  A    between atoms: C_4  and  C_5
REMARK                            x       y       z     vdW  Elec       q    Type
REMARK                         _______ _______ _______ _____ _____    ______ ____
ROOT
ATOM      1  N   UNL     1       4.238  -5.969  -0.196  0.00  0.00    -0.354 N 
ATOM      2  N   UNL     1       6.194  -6.983   0.517  0.00  0.00    -0.372 N 
ATOM      3  N   UNL     1       6.015  -4.699   0.653  0.00  0.00    -0.372 N 
ATOM      4  C   UNL     1       5.470  -5.874   0.320  0.00  0.00    +0.166 C 
ATOM      5  H   UNL     1       3.894  -6.887  -0.456  0.00  0.00    +0.163 HD
ATOM      6  H   UNL     1       7.126  -6.943   0.908  0.00  0.00    +0.159 HD
ATOM      7  H   UNL     1       5.831  -7.903   0.300  0.00  0.00    +0.159 HD
ATOM      8  H   UNL     1       5.523  -3.825   0.523  0.00  0.00    +0.159 HD
ATOM      9  H   UNL     1       6.951  -4.638   1.035  0.00  0.00    +0.159 HD
ENDROOT
BRANCH   1  10
ATOM     10  C   UNL     1       3.347  -4.828  -0.400  0.00  0.00    +0.151 C 
BRANCH  10  11
ATOM     11  C   UNL     1       2.296  -4.827   0.676  0.00  0.00    -0.028 A 
ATOM     12  C   UNL     1       2.288  -3.829   1.661  0.00  0.00    +0.005 A 
ATOM     13  C   UNL     1       1.303  -5.818   0.712  0.00  0.00    +0.005 A 
ATOM     14  C   UNL     1       1.294  -3.810   2.643  0.00  0.00    +0.000 A 
ATOM     15  C   UNL     1       0.314  -5.796   1.695  0.00  0.00    +0.000 A 
ATOM     16  C   UNL     1       0.308  -4.790   2.658  0.00  0.00    +0.000 A 
ENDBRANCH  10  11
ENDBRANCH   1  10
TORSDOF 2
ENDMDL
MODEL 2
REMARK VINA RESULT:    -6.008      2.543      5.743
REMARK INTER + INTRA:          -6.888
REMARK INTER:                  -6.766
REMARK INTRA:                  -0.122
REMARK UNBOUND:                -0.177
REMARK  Name = 1550473
REMARK  2 active torsions:
REMARK  status: ('A' for Active; 'I' for Inactive)
REMARK    1  A    between atoms: N_1  and  C_4
REMARK    2  A    between atoms: C_4  and  C_5
REMARK                            x       y       z     vdW  Elec       q    Type
REMARK                         _______ _______ _______ _____ _____    ______ ____
ROOT
ATOM      1  N   UNL     1       4.472  -4.271   0.855  0.00  0.00    -0.354 N 
ATOM      2  N   UNL     1       3.324  -2.620   2.004  0.00  0.00    -0.372 N 
ATOM      3  N   UNL     1       2.674  -4.806   2.260  0.00  0.00    -0.372 N 
ATOM      4  C   UNL     1       3.496  -3.912   1.700  0.00  0.00    +0.166 C 
ATOM      5  H   UNL     1       5.042  -3.543   0.440  0.00  0.00    +0.163 HD
ATOM      6  H   UNL     1       2.598  -2.319   2.641  0.00  0.00    +0.159 HD
ATOM      7  H   UNL     1       3.924  -1.899   1.624  0.00  0.00    +0.159 HD
ATOM      8  H   UNL     1       2.748  -5.796   2.067  0.00  0.00    +0.159 HD
ATOM      9  H   UNL     1       1.934  -4.523   2.891  0.00  0.00    +0.159 HD
ENDROOT
BRANCH   1  10
ATOM     10  C   UNL     1       4.777  -5.656   0.500  0.00  0.00    +0.151 C 
BRANCH  10  11
ATOM     11  C   UNL     1       5.941  -5.674  -0.453  0.00  0.00    -0.028 A 
ATOM     12  C   UNL     1       6.255  -6.836  -1.171  0.00  0.00    +0.005 A 
ATOM     13  C   UNL     1       6.729  -4.529  -0.646  0.00  0.00    +0.005 A 
ATOM     14  C   UNL     1       7.318  -6.844  -2.078  0.00  0.00    +0.000 A 
ATOM     15  C   UNL     1       7.789  -4.541  -1.552  0.00  0.00    +0.000 A 
ATOM     16  C   UNL     1       8.081  -5.698  -2.270  0.00  0.00    +0.000 A 
ENDBRANCH  10  11
ENDBRANCH   1  10
TORSDOF 2
ENDMDL
MODEL 3
REMARK VINA RESULT:    -5.885      1.419      2.392
REMARK INTER + INTRA:          -6.750
REMARK INTER:                  -6.628
REMARK INTRA:                  -0.122
REMARK UNBOUND:                -0.177
REMARK  Name = 1550473
REMARK  2 active torsions:
REMARK  status: ('A' for Active; 'I' for Inactive)
REMARK    1  A    between atoms: N_1  and  C_4
REMARK    2  A    between atoms: C_4  and  C_5
REMARK                            x       y       z     vdW  Elec       q    Type
REMARK                         _______ _______ _______ _____ _____    ______ ____
ROOT
ATOM      1  N   UNL     1       5.447  -4.103   0.158  0.00  0.00    -0.354 N 
ATOM      2  N   UNL     1       7.459  -2.975  -0.048  0.00  0.00    -0.372 N 
ATOM      3  N   UNL     1       7.219  -5.012  -1.078  0.00  0.00    -0.372 N 
ATOM      4  C   UNL     1       6.696  -4.040  -0.323  0.00  0.00    +0.166 C 
ATOM      5  H   UNL     1       5.120  -3.348   0.749  0.00  0.00    +0.163 HD
ATOM      6  H   UNL     1       8.404  -2.898  -0.400  0.00  0.00    +0.159 HD
ATOM      7  H   UNL     1       7.114  -2.200   0.505  0.00  0.00    +0.159 HD
ATOM      8  H   UNL     1       6.697  -5.844  -1.316  0.00  0.00    +0.159 HD
ATOM      9  H   UNL     1       8.167  -4.958  -1.429  0.00  0.00    +0.159 HD
ENDROOT
BRANCH   1  10
ATOM     10  C   UNL     1       4.516  -5.193  -0.127  0.00  0.00    +0.151 C 
BRANCH  10  11
ATOM     11  C   UNL     1       3.192  -4.890   0.519  0.00  0.00    -0.028 A 
ATOM     12  C   UNL     1       2.072  -5.692   0.258  0.00  0.00    +0.005 A 
ATOM     13  C   UNL     1       3.054  -3.806   1.399  0.00  0.00    +0.005 A 
ATOM     14  C   UNL     1       0.850  -5.429   0.881  0.00  0.00    +0.000 A 
ATOM     15  C   UNL     1       1.831  -3.546   2.019  0.00  0.00    +0.000 A 
ATOM     16  C   UNL     1       0.731  -4.360   1.762  0.00  0.00    +0.000 A 
ENDBRANCH  10  11
ENDBRANCH   1  10
TORSDOF 2
ENDMDL
MODEL 4
REMARK VINA RESULT:    -5.794      5.204      6.464
REMARK INTER + INTRA:          -6.649
REMARK INTER:                  -6.520
REMARK INTRA:                  -0.130
REMARK UNBOUND:                -0.177
REMARK  Name = 1550473
REMARK  2 active torsions:
REMARK  status: ('A' for Active; 'I' for Inactive)
REMARK    1  A    between atoms: N_1  and  C_4
REMARK    2  A    between atoms: C_4  and  C_5
REMARK                            x       y       z     vdW  Elec       q    Type
REMARK                         _______ _______ _______ _____ _____    ______ ____
ROOT
ATOM      1  N   UNL     1       7.571  -7.727  -2.145  0.00  0.00    -0.354 N 
ATOM      2  N   UNL     1       8.526  -9.806  -2.502  0.00  0.00    -0.372 N 
ATOM      3  N   UNL     1       7.178  -9.504  -0.669  0.00  0.00    -0.372 N 
ATOM      4  C   UNL     1       7.751  -8.999  -1.767  0.00  0.00    +0.166 C 
ATOM      5  H   UNL     1       8.057  -7.396  -2.971  0.00  0.00    +0.163 HD
ATOM      6  H   UNL     1       8.677 -10.772  -2.244  0.00  0.00    +0.159 HD
ATOM      7  H   UNL     1       8.973  -9.486  -3.352  0.00  0.00    +0.159 HD
ATOM      8  H   UNL     1       6.587  -8.946  -0.068  0.00  0.00    +0.159 HD
ATOM      9  H   UNL     1       7.328 -10.465  -0.388  0.00  0.00    +0.159 HD
ENDROOT
BRANCH   1  10
ATOM     10  C   UNL     1       6.704  -6.781  -1.445  0.00  0.00    +0.151 C 
BRANCH  10  11
ATOM     11  C   UNL     1       7.331  -5.414  -1.488  0.00  0.00    -0.028 A 
ATOM     12  C   UNL     1       8.313  -5.112  -2.443  0.00  0.00    +0.005 A 
ATOM     13  C   UNL     1       6.943  -4.416  -0.582  0.00  0.00    +0.005 A 
ATOM     14  C   UNL     1       8.874  -3.834  -2.503  0.00  0.00    +0.000 A 
ATOM     15  C   UNL     1       7.506  -3.141  -0.645  0.00  0.00    +0.000 A 
ATOM     16  C   UNL     1       8.470  -2.850  -1.607  0.00  0.00    +0.000 A 
ENDBRANCH  10  11
ENDBRANCH   1  10
TORSDOF 2
ENDMDL
MODEL 5
REMARK VINA RESULT:    -5.609      4.716      6.278
REMARK INTER + INTRA:          -6.442
REMARK INTER:                  -6.315
REMARK INTRA:                  -0.127
REMARK UNBOUND:                -0.177
REMARK  Name = 1550473
REMARK  2 active torsions:
REMARK  status: ('A' for Active; 'I' for Inactive)
REMARK    1  A    between atoms: N_1  and  C_4
REMARK    2  A    between atoms: C_4  and  C_5
REMARK                            x       y       z     vdW  Elec       q    Type
REMARK                         _______ _______ _______ _____ _____    ______ ____
ROOT
ATOM      1  N   UNL     1       7.527  -2.643  -0.278  0.00  0.00    -0.354 N 
ATOM      2  N   UNL     1       9.006  -0.874  -0.497  0.00  0.00    -0.372 N 
ATOM      3  N   UNL     1       7.253  -1.042  -1.967  0.00  0.00    -0.372 N 
ATOM      4  C   UNL     1       7.917  -1.531  -0.915  0.00  0.00    +0.166 C 
ATOM      5  H   UNL     1       8.091  -2.979   0.494  0.00  0.00    +0.163 HD
ATOM      6  H   UNL     1       9.322  -0.030  -0.955  0.00  0.00    +0.159 HD
ATOM      7  H   UNL     1       9.542  -1.186   0.304  0.00  0.00    +0.159 HD
ATOM      8  H   UNL     1       6.427  -1.494  -2.336  0.00  0.00    +0.159 HD
ATOM      9  H   UNL     1       7.561  -0.205  -2.447  0.00  0.00    +0.159 HD
ENDROOT
BRANCH   1  10
ATOM     10  C   UNL     1       6.326  -3.403  -0.621  0.00  0.00    +0.151 C 
BRANCH  10  11
ATOM     11  C   UNL     1       6.729  -4.769  -1.103  0.00  0.00    -0.028 A 
ATOM     12  C   UNL     1       6.102  -5.917  -0.598  0.00  0.00    +0.005 A 
ATOM     13  C   UNL     1       7.734  -4.921  -2.071  0.00  0.00    +0.005 A 
ATOM     14  C   UNL     1       6.455  -7.184  -1.068  0.00  0.00    +0.000 A 
ATOM     15  C   UNL     1       8.085  -6.188  -2.537  0.00  0.00    +0.000 A 
ATOM     16  C   UNL     1       7.443  -7.319  -2.037  0.00  0.00    +0.000 A 
ENDBRANCH  10  11
ENDBRANCH   1  10
TORSDOF 2
ENDMDL
MODEL 6
REMARK VINA RESULT:    -5.536      5.122      6.648
REMARK INTER + INTRA:          -6.361
REMARK INTER:                  -6.236
REMARK INTRA:                  -0.124
REMARK UNBOUND:                -0.177
REMARK  Name = 1550473
REMARK  2 active torsions:
REMARK  status: ('A' for Active; 'I' for Inactive)
REMARK    1  A    between atoms: N_1  and  C_4
REMARK    2  A    between atoms: C_4  and  C_5
REMARK                            x       y       z     vdW  Elec       q    Type
REMARK                         _______ _______ _______ _____ _____    ______ ____
ROOT
ATOM      1  N   UNL     1       7.457  -1.671  -1.412  0.00  0.00    -0.354 N 
ATOM      2  N   UNL     1       7.856   0.230  -2.674  0.00  0.00    -0.372 N 
ATOM      3  N   UNL     1       9.239  -0.237  -0.904  0.00  0.00    -0.372 N 
ATOM      4  C   UNL     1       8.183  -0.571  -1.653  0.00  0.00    +0.166 C 
ATOM      5  H   UNL     1       6.650  -1.853  -1.998  0.00  0.00    +0.163 HD
ATOM      6  H   UNL     1       8.387   1.064  -2.882  0.00  0.00    +0.159 HD
ATOM      7  H   UNL     1       7.077   0.021  -3.286  0.00  0.00    +0.159 HD
ATOM      8  H   UNL     1       9.535  -0.796  -0.115  0.00  0.00    +0.159 HD
ATOM      9  H   UNL     1       9.777   0.601  -1.089  0.00  0.00    +0.159 HD
ENDROOT
BRANCH   1  10
ATOM     10  C   UNL     1       7.762  -2.637  -0.358  0.00  0.00    +0.151 C 
BRANCH  10  11
ATOM     11  C   UNL     1       7.503  -4.026  -0.876  0.00  0.00    -0.028 A 
ATOM     12  C   UNL     1       8.202  -4.512  -1.990  0.00  0.00    +0.005 A 
ATOM     13  C   UNL     1       6.564  -4.861  -0.253  0.00  0.00    +0.005 A 
ATOM     14  C   UNL     1       7.984  -5.812  -2.452  0.00  0.00    +0.000 A 
ATOM     15  C   UNL     1       6.348  -6.159  -0.718  0.00  0.00    +0.000 A 
ATOM     16  C   UNL     1       7.060  -6.634  -1.816  0.00  0.00    +0.000 A 
ENDBRANCH  10  11
ENDBRANCH   1  10
TORSDOF 2
ENDMDL
MODEL 7
REMARK VINA RESULT:    -5.329     19.510     20.952
REMARK INTER + INTRA:          -6.129
REMARK INTER:                  -6.002
REMARK INTRA:                  -0.127
REMARK UNBOUND:                -0.177
REMARK  Name = 1550473
REMARK  2 active torsions:
REMARK  status: ('A' for Active; 'I' for Inactive)
REMARK    1  A    between atoms: N_1  and  C_4
REMARK    2  A    between atoms: C_4  and  C_5
REMARK                            x       y       z     vdW  Elec       q    Type
REMARK                         _______ _______ _______ _____ _____    ______ ____
ROOT
ATOM      1  N   UNL     1      19.464   9.264  -1.882  0.00  0.00    -0.354 N 
ATOM      2  N   UNL     1      21.409  10.368  -2.482  0.00  0.00    -0.372 N 
ATOM      3  N   UNL     1      20.483   8.873  -3.956  0.00  0.00    -0.372 N 
ATOM      4  C   UNL     1      20.439   9.492  -2.772  0.00  0.00    +0.166 C 
ATOM      5  H   UNL     1      19.504   9.743  -0.990  0.00  0.00    +0.163 HD
ATOM      6  H   UNL     1      22.157  10.563  -3.134  0.00  0.00    +0.159 HD
ATOM      7  H   UNL     1      21.422  10.879  -1.608  0.00  0.00    +0.159 HD
ATOM      8  H   UNL     1      19.784   8.197  -4.233  0.00  0.00    +0.159 HD
ATOM      9  H   UNL     1      21.229   9.047  -4.618  0.00  0.00    +0.159 HD
ENDROOT
BRANCH   1  10
ATOM     10  C   UNL     1      18.332   8.370  -2.122  0.00  0.00    +0.151 C 
BRANCH  10  11
ATOM     11  C   UNL     1      17.143   8.864  -1.344  0.00  0.00    -0.028 A 
ATOM     12  C   UNL     1      16.964  10.235  -1.112  0.00  0.00    +0.005 A 
ATOM     13  C   UNL     1      16.190   7.965  -0.841  0.00  0.00    +0.005 A 
ATOM     14  C   UNL     1      15.844  10.696  -0.415  0.00  0.00    +0.000 A 
ATOM     15  C   UNL     1      15.074   8.429  -0.145  0.00  0.00    +0.000 A 
ATOM     16  C   UNL     1      14.900   9.795   0.066  0.00  0.00    +0.000 A 
ENDBRANCH  10  11
ENDBRANCH   1  10
TORSDOF 2
ENDMDL
MODEL 8
REMARK VINA RESULT:    -5.264      2.919      5.797
REMARK INTER + INTRA:          -6.057
REMARK INTER:                  -5.940
REMARK INTRA:                  -0.117
REMARK UNBOUND:                -0.177
REMARK  Name = 1550473
REMARK  2 active torsions:
REMARK  status: ('A' for Active; 'I' for Inactive)
REMARK    1  A    between atoms: N_1  and  C_4
REMARK    2  A    between atoms: C_4  and  C_5
REMARK                            x       y       z     vdW  Elec       q    Type
REMARK                         _______ _______ _______ _____ _____    ______ ____
ROOT
ATOM      1  N   UNL     1       4.910  -4.648   0.114  0.00  0.00    -0.354 N 
ATOM      2  N   UNL     1       3.660  -4.143   1.998  0.00  0.00    -0.372 N 
ATOM      3  N   UNL     1       4.236  -2.449   0.562  0.00  0.00    -0.372 N 
ATOM      4  C   UNL     1       4.277  -3.747   0.878  0.00  0.00    +0.166 C 
ATOM      5  H   UNL     1       4.931  -5.612   0.425  0.00  0.00    +0.163 HD
ATOM      6  H   UNL     1       3.171  -3.487   2.592  0.00  0.00    +0.159 HD
ATOM      7  H   UNL     1       3.643  -5.115   2.281  0.00  0.00    +0.159 HD
ATOM      8  H   UNL     1       4.687  -2.084  -0.267  0.00  0.00    +0.159 HD
ATOM      9  H   UNL     1       3.762  -1.775   1.150  0.00  0.00    +0.159 HD
ENDROOT
BRANCH   1  10
ATOM     10  C   UNL     1       5.568  -4.329  -1.152  0.00  0.00    +0.151 C 
BRANCH  10  11
ATOM     11  C   UNL     1       6.385  -5.511  -1.592  0.00  0.00    -0.028 A 
ATOM     12  C   UNL     1       7.521  -5.332  -2.395  0.00  0.00    +0.005 A 
ATOM     13  C   UNL     1       6.033  -6.813  -1.206  0.00  0.00    +0.005 A 
ATOM     14  C   UNL     1       8.299  -6.427  -2.780  0.00  0.00    +0.000 A 
ATOM     15  C   UNL     1       6.811  -7.904  -1.593  0.00  0.00    +0.000 A 
ATOM     16  C   UNL     1       7.945  -7.711  -2.378  0.00  0.00    +0.000 A 
ENDBRANCH  10  11
ENDBRANCH   1  10
TORSDOF 2
ENDMDL
MODEL 9
REMARK VINA RESULT:    -5.235     19.137     21.053
REMARK INTER + INTRA:          -6.024
REMARK INTER:                  -5.910
REMARK INTRA:                  -0.115
REMARK UNBOUND:                -0.177
REMARK  Name = 1550473
REMARK  2 active torsions:
REMARK  status: ('A' for Active; 'I' for Inactive)
REMARK    1  A    between atoms: N_1  and  C_4
REMARK    2  A    between atoms: C_4  and  C_5
REMARK                            x       y       z     vdW  Elec       q    Type
REMARK                         _______ _______ _______ _____ _____    ______ ____
ROOT
ATOM      1  N   UNL     1      15.967   9.456  -0.774  0.00  0.00    -0.354 N 
ATOM      2  N   UNL     1      14.180  10.635   0.111  0.00  0.00    -0.372 N 
ATOM      3  N   UNL     1      14.325   8.380   0.507  0.00  0.00    -0.372 N 
ATOM      4  C   UNL     1      14.835   9.480  -0.057  0.00  0.00    +0.166 C 
ATOM      5  H   UNL     1      16.284  10.318  -1.201  0.00  0.00    +0.163 HD
ATOM      6  H   UNL     1      13.326  10.685   0.649  0.00  0.00    +0.159 HD
ATOM      7  H   UNL     1      14.525  11.504  -0.279  0.00  0.00    +0.159 HD
ATOM      8  H   UNL     1      14.768   7.476   0.413  0.00  0.00    +0.159 HD
ATOM      9  H   UNL     1      13.465   8.408   1.040  0.00  0.00    +0.159 HD
ENDROOT
BRANCH   1  10
ATOM     10  C   UNL     1      16.784   8.260  -0.971  0.00  0.00    +0.151 C 
BRANCH  10  11
ATOM     11  C   UNL     1      18.089   8.656  -1.604  0.00  0.00    -0.028 A 
ATOM     12  C   UNL     1      18.735   9.841  -1.221  0.00  0.00    +0.005 A 
ATOM     13  C   UNL     1      18.689   7.848  -2.582  0.00  0.00    +0.005 A 
ATOM     14  C   UNL     1      19.963  10.194  -1.786  0.00  0.00    +0.000 A 
ATOM     15  C   UNL     1      19.914   8.205  -3.145  0.00  0.00    +0.000 A 
ATOM     16  C   UNL     1      20.552   9.377  -2.745  0.00  0.00    +0.000 A 
ENDBRANCH  10  11
ENDBRANCH   1  10
TORSDOF 2
ENDMDL
