MODEL 1
REMARK VINA RESULT:    -5.090      0.000      0.000
REMARK INTER + INTRA:          -5.805
REMARK INTER:                  -5.686
REMARK INTRA:                  -0.120
REMARK UNBOUND:                -0.120
REMARK  Name = 1550473
REMARK  2 active torsions:
REMARK  status: ('A' for Active; 'I' for Inactive)
REMARK    1  A    between atoms: N_1  and  C_4
REMARK    2  A    between atoms: C_4  and  C_5
REMARK                            x       y       z     vdW  Elec       q    Type
REMARK                         _______ _______ _______ _____ _____    ______ ____
ROOT
ATOM      1  N   UNL     1       4.701  -9.932  -8.594  0.00  0.00    -0.354 N 
ATOM      2  N   UNL     1       5.483 -10.288 -10.745  0.00  0.00    -0.372 N 
ATOM      3  N   UNL     1       3.552  -9.084 -10.452  0.00  0.00    -0.372 N 
ATOM      4  C   UNL     1       4.571  -9.764  -9.917  0.00  0.00    +0.166 C 
ATOM      5  H   UNL     1       5.479 -10.484  -8.253  0.00  0.00    +0.163 HD
ATOM      6  H   UNL     1       5.413 -10.175 -11.747  0.00  0.00    +0.159 HD
ATOM      7  H   UNL     1       6.285 -10.800 -10.398  0.00  0.00    +0.159 HD
ATOM      8  H   UNL     1       2.827  -8.669  -9.882  0.00  0.00    +0.159 HD
ATOM      9  H   UNL     1       3.458  -8.970 -11.453  0.00  0.00    +0.159 HD
ENDROOT
BRANCH   1  10
ATOM     10  C   UNL     1       3.792  -9.357  -7.604  0.00  0.00    +0.151 C 
BRANCH  10  11
ATOM     11  C   UNL     1       4.232  -9.779  -6.229  0.00  0.00    -0.028 A 
ATOM     12  C   UNL     1       5.012 -10.932  -6.054  0.00  0.00    +0.005 A 
ATOM     13  C   UNL     1       3.878  -9.028  -5.098  0.00  0.00    +0.005 A 
ATOM     14  C   UNL     1       5.446 -11.308  -4.781  0.00  0.00    +0.000 A 
ATOM     15  C   UNL     1       4.313  -9.407  -3.828  0.00  0.00    +0.000 A 
ATOM     16  C   UNL     1       5.099 -10.546  -3.670  0.00  0.00    +0.000 A 
ENDBRANCH  10  11
ENDBRANCH   1  10
TORSDOF 2
ENDMDL
MODEL 2
REMARK VINA RESULT:    -4.424      7.598      9.324
REMARK INTER + INTRA:          -5.061
REMARK INTER:                  -4.926
REMARK INTRA:                  -0.136
REMARK UNBOUND:                -0.120
REMARK  Name = 1550473
REMARK  2 active torsions:
REMARK  status: ('A' for Active; 'I' for Inactive)
REMARK    1  A    between atoms: N_1  and  C_4
REMARK    2  A    between atoms: C_4  and  C_5
REMARK                            x       y       z     vdW  Elec       q    Type
REMARK                         _______ _______ _______ _____ _____    ______ ____
ROOT
ATOM      1  N   UNL     1      -0.254  -6.384 -11.379  0.00  0.00    -0.354 N 
ATOM      2  N   UNL     1       1.768  -6.937 -10.395  0.00  0.00    -0.372 N 
ATOM      3  N   UNL     1       1.545  -4.883 -11.393  0.00  0.00    -0.372 N 
ATOM      4  C   UNL     1       1.007  -6.062 -11.063  0.00  0.00    +0.166 C 
ATOM      5  H   UNL     1      -0.593  -7.305 -11.127  0.00  0.00    +0.163 HD
ATOM      6  H   UNL     1       2.722  -6.720 -10.140  0.00  0.00    +0.159 HD
ATOM      7  H   UNL     1       1.412  -7.839 -10.104  0.00  0.00    +0.159 HD
ATOM      8  H   UNL     1       1.025  -4.181 -11.903  0.00  0.00    +0.159 HD
ATOM      9  H   UNL     1       2.502  -4.652 -11.157  0.00  0.00    +0.159 HD
ENDROOT
BRANCH   1  10
ATOM     10  C   UNL     1      -1.183  -5.482 -12.058  0.00  0.00    +0.151 C 
BRANCH  10  11
ATOM     11  C   UNL     1      -2.513  -5.528 -11.357  0.00  0.00    -0.028 A 
ATOM     12  C   UNL     1      -2.586  -5.417  -9.961  0.00  0.00    +0.005 A 
ATOM     13  C   UNL     1      -3.704  -5.677 -12.084  0.00  0.00    +0.005 A 
ATOM     14  C   UNL     1      -3.823  -5.429  -9.312  0.00  0.00    +0.000 A 
ATOM     15  C   UNL     1      -4.937  -5.690 -11.433  0.00  0.00    +0.000 A 
ATOM     16  C   UNL     1      -4.996  -5.563 -10.047  0.00  0.00    +0.000 A 
ENDBRANCH  10  11
ENDBRANCH   1  10
TORSDOF 2
ENDMDL
MODEL 3
REMARK VINA RESULT:    -4.315     12.547     13.604
REMARK INTER + INTRA:          -4.940
REMARK INTER:                  -4.820
REMARK INTRA:                  -0.120
REMARK UNBOUND:                -0.120
REMARK  Name = 1550473
REMARK  2 active torsions:
REMARK  status: ('A' for Active; 'I' for Inactive)
REMARK    1  A    between atoms: N_1  and  C_4
REMARK    2  A    between atoms: C_4  and  C_5
REMARK                            x       y       z     vdW  Elec       q    Type
REMARK                         _______ _______ _______ _____ _____    ______ ____
ROOT
ATOM      1  N   UNL     1      -8.608  -4.645  -4.651  0.00  0.00    -0.354 N 
ATOM      2  N   UNL     1     -10.690  -3.677  -4.352  0.00  0.00    -0.372 N 
ATOM      3  N   UNL     1      -8.972  -3.063  -2.961  0.00  0.00    -0.372 N 
ATOM      4  C   UNL     1      -9.409  -3.800  -3.988  0.00  0.00    +0.166 C 
ATOM      5  H   UNL     1      -9.007  -5.198  -5.401  0.00  0.00    +0.163 HD
ATOM      6  H   UNL     1     -11.318  -3.045  -3.873  0.00  0.00    +0.159 HD
ATOM      7  H   UNL     1     -11.075  -4.197  -5.132  0.00  0.00    +0.159 HD
ATOM      8  H   UNL     1      -8.017  -3.114  -2.632  0.00  0.00    +0.159 HD
ATOM      9  H   UNL     1      -9.588  -2.433  -2.461  0.00  0.00    +0.159 HD
ENDROOT
BRANCH   1  10
ATOM     10  C   UNL     1      -7.183  -4.813  -4.368  0.00  0.00    +0.151 C 
BRANCH  10  11
ATOM     11  C   UNL     1      -6.819  -6.263  -4.528  0.00  0.00    -0.028 A 
ATOM     12  C   UNL     1      -7.391  -7.033  -5.551  0.00  0.00    +0.005 A 
ATOM     13  C   UNL     1      -5.897  -6.873  -3.662  0.00  0.00    +0.005 A 
ATOM     14  C   UNL     1      -7.031  -8.372  -5.719  0.00  0.00    +0.000 A 
ATOM     15  C   UNL     1      -5.540  -8.210  -3.832  0.00  0.00    +0.000 A 
ATOM     16  C   UNL     1      -6.105  -8.959  -4.862  0.00  0.00    +0.000 A 
ENDBRANCH  10  11
ENDBRANCH   1  10
TORSDOF 2
ENDMDL
MODEL 4
REMARK VINA RESULT:    -4.218     33.330     34.801
REMARK INTER + INTRA:          -4.831
REMARK INTER:                  -4.703
REMARK INTRA:                  -0.128
REMARK UNBOUND:                -0.120
REMARK  Name = 1550473
REMARK  2 active torsions:
REMARK  status: ('A' for Active; 'I' for Inactive)
REMARK    1  A    between atoms: N_1  and  C_4
REMARK    2  A    between atoms: C_4  and  C_5
REMARK                            x       y       z     vdW  Elec       q    Type
REMARK                         _______ _______ _______ _____ _____    ______ ____
ROOT
ATOM      1  N   UNL     1     -27.498  -3.026 -15.375  0.00  0.00    -0.354 N 
ATOM      2  N   UNL     1     -27.523  -3.654 -13.146  0.00  0.00    -0.372 N 
ATOM      3  N   UNL     1     -25.502  -3.363 -14.194  0.00  0.00    -0.372 N 
ATOM      4  C   UNL     1     -26.838  -3.344 -14.253  0.00  0.00    +0.166 C 
ATOM      5  H   UNL     1     -28.511  -3.058 -15.364  0.00  0.00    +0.163 HD
ATOM      6  H   UNL     1     -27.053  -3.894 -12.284  0.00  0.00    +0.159 HD
ATOM      7  H   UNL     1     -28.535  -3.641 -13.125  0.00  0.00    +0.159 HD
ATOM      8  H   UNL     1     -24.927  -3.145 -14.996  0.00  0.00    +0.159 HD
ATOM      9  H   UNL     1     -25.013  -3.613 -13.343  0.00  0.00    +0.159 HD
ENDROOT
BRANCH   1  10
ATOM     10  C   UNL     1     -26.847  -2.620 -16.620  0.00  0.00    +0.151 C 
BRANCH  10  11
ATOM     11  C   UNL     1     -27.672  -3.095 -17.783  0.00  0.00    -0.028 A 
ATOM     12  C   UNL     1     -29.017  -3.453 -17.604  0.00  0.00    +0.005 A 
ATOM     13  C   UNL     1     -27.118  -3.184 -19.070  0.00  0.00    +0.005 A 
ATOM     14  C   UNL     1     -29.793  -3.865 -18.690  0.00  0.00    +0.000 A 
ATOM     15  C   UNL     1     -27.896  -3.597 -20.151  0.00  0.00    +0.000 A 
ATOM     16  C   UNL     1     -29.234  -3.935 -19.961  0.00  0.00    +0.000 A 
ENDBRANCH  10  11
ENDBRANCH   1  10
TORSDOF 2
ENDMDL
MODEL 5
REMARK VINA RESULT:    -4.090     17.729     19.524
REMARK INTER + INTRA:          -4.688
REMARK INTER:                  -4.547
REMARK INTRA:                  -0.141
REMARK UNBOUND:                -0.120
REMARK  Name = 1550473
REMARK  2 active torsions:
REMARK  status: ('A' for Active; 'I' for Inactive)
REMARK    1  A    between atoms: N_1  and  C_4
REMARK    2  A    between atoms: C_4  and  C_5
REMARK                            x       y       z     vdW  Elec       q    Type
REMARK                         _______ _______ _______ _____ _____    ______ ____
ROOT
ATOM      1  N   UNL     1       0.227   1.277 -21.200  0.00  0.00    -0.354 N 
ATOM      2  N   UNL     1       1.956   0.314 -19.998  0.00  0.00    -0.372 N 
ATOM      3  N   UNL     1       1.456   2.526 -19.644  0.00  0.00    -0.372 N 
ATOM      4  C   UNL     1       1.202   1.381 -20.287  0.00  0.00    +0.166 C 
ATOM      5  H   UNL     1       0.105   0.390 -21.675  0.00  0.00    +0.163 HD
ATOM      6  H   UNL     1       2.697   0.362 -19.311  0.00  0.00    +0.159 HD
ATOM      7  H   UNL     1       1.802  -0.583 -20.440  0.00  0.00    +0.159 HD
ATOM      8  H   UNL     1       0.926   3.369 -19.821  0.00  0.00    +0.159 HD
ATOM      9  H   UNL     1       2.201   2.596 -18.961  0.00  0.00    +0.159 HD
ENDROOT
BRANCH   1  10
ATOM     10  C   UNL     1      -0.686   2.365 -21.549  0.00  0.00    +0.151 C 
BRANCH  10  11
ATOM     11  C   UNL     1      -2.101   1.858 -21.485  0.00  0.00    -0.028 A 
ATOM     12  C   UNL     1      -3.164   2.658 -21.928  0.00  0.00    +0.005 A 
ATOM     13  C   UNL     1      -2.383   0.576 -20.989  0.00  0.00    +0.005 A 
ATOM     14  C   UNL     1      -4.475   2.177 -21.896  0.00  0.00    +0.000 A 
ATOM     15  C   UNL     1      -3.694   0.100 -20.958  0.00  0.00    +0.000 A 
ATOM     16  C   UNL     1      -4.739   0.899 -21.415  0.00  0.00    +0.000 A 
ENDBRANCH  10  11
ENDBRANCH   1  10
TORSDOF 2
ENDMDL
MODEL 6
REMARK VINA RESULT:    -4.083     18.867     19.970
REMARK INTER + INTRA:          -4.680
REMARK INTER:                  -4.557
REMARK INTRA:                  -0.123
REMARK UNBOUND:                -0.120
REMARK  Name = 1550473
REMARK  2 active torsions:
REMARK  status: ('A' for Active; 'I' for Inactive)
REMARK    1  A    between atoms: N_1  and  C_4
REMARK    2  A    between atoms: C_4  and  C_5
REMARK                            x       y       z     vdW  Elec       q    Type
REMARK                         _______ _______ _______ _____ _____    ______ ____
ROOT
ATOM      1  N   UNL     1      -9.450 -13.299   7.451  0.00  0.00    -0.354 N 
ATOM      2  N   UNL     1     -10.518 -13.022   9.487  0.00  0.00    -0.372 N 
ATOM      3  N   UNL     1      -8.829 -11.578   8.915  0.00  0.00    -0.372 N 
ATOM      4  C   UNL     1      -9.590 -12.633   8.604  0.00  0.00    +0.166 C 
ATOM      5  H   UNL     1     -10.038 -14.109   7.288  0.00  0.00    +0.163 HD
ATOM      6  H   UNL     1     -10.649 -12.536  10.365  0.00  0.00    +0.159 HD
ATOM      7  H   UNL     1     -11.135 -13.803   9.302  0.00  0.00    +0.159 HD
ATOM      8  H   UNL     1      -8.107 -11.237   8.294  0.00  0.00    +0.159 HD
ATOM      9  H   UNL     1      -8.937 -11.086   9.793  0.00  0.00    +0.159 HD
ENDROOT
BRANCH   1  10
ATOM     10  C   UNL     1      -8.507 -12.924   6.399  0.00  0.00    +0.151 C 
BRANCH  10  11
ATOM     11  C   UNL     1      -9.183 -13.055   5.062  0.00  0.00    -0.028 A 
ATOM     12  C   UNL     1      -8.826 -14.087   4.182  0.00  0.00    +0.005 A 
ATOM     13  C   UNL     1     -10.186 -12.154   4.672  0.00  0.00    +0.005 A 
ATOM     14  C   UNL     1      -9.475 -14.228   2.953  0.00  0.00    +0.000 A 
ATOM     15  C   UNL     1     -10.831 -12.297   3.444  0.00  0.00    +0.000 A 
ATOM     16  C   UNL     1     -10.477 -13.335   2.586  0.00  0.00    +0.000 A 
ENDBRANCH  10  11
ENDBRANCH   1  10
TORSDOF 2
ENDMDL
MODEL 7
REMARK VINA RESULT:    -4.068     29.921     31.481
REMARK INTER + INTRA:          -4.663
REMARK INTER:                  -4.522
REMARK INTRA:                  -0.141
REMARK UNBOUND:                -0.120
REMARK  Name = 1550473
REMARK  2 active torsions:
REMARK  status: ('A' for Active; 'I' for Inactive)
REMARK    1  A    between atoms: N_1  and  C_4
REMARK    2  A    between atoms: C_4  and  C_5
REMARK                            x       y       z     vdW  Elec       q    Type
REMARK                         _______ _______ _______ _____ _____    ______ ____
ROOT
ATOM      1  N   UNL     1       3.958  12.053  12.892  0.00  0.00    -0.354 N 
ATOM      2  N   UNL     1       5.182  11.126  11.158  0.00  0.00    -0.372 N 
ATOM      3  N   UNL     1       6.284  11.811  13.051  0.00  0.00    -0.372 N 
ATOM      4  C   UNL     1       5.136  11.670  12.380  0.00  0.00    +0.166 C 
ATOM      5  H   UNL     1       3.128  11.947  12.320  0.00  0.00    +0.163 HD
ATOM      6  H   UNL     1       6.056  10.824  10.747  0.00  0.00    +0.159 HD
ATOM      7  H   UNL     1       4.345  10.979  10.608  0.00  0.00    +0.159 HD
ATOM      8  H   UNL     1       6.317  12.220  13.975  0.00  0.00    +0.159 HD
ATOM      9  H   UNL     1       7.169  11.526  12.652  0.00  0.00    +0.159 HD
ENDROOT
BRANCH   1  10
ATOM     10  C   UNL     1       3.791  12.607  14.234  0.00  0.00    +0.151 C 
BRANCH  10  11
ATOM     11  C   UNL     1       3.232  13.999  14.125  0.00  0.00    -0.028 A 
ATOM     12  C   UNL     1       1.932  14.208  13.644  0.00  0.00    +0.005 A 
ATOM     13  C   UNL     1       3.997  15.113  14.507  0.00  0.00    +0.005 A 
ATOM     14  C   UNL     1       1.401  15.499  13.571  0.00  0.00    +0.000 A 
ATOM     15  C   UNL     1       3.464  16.399  14.432  0.00  0.00    +0.000 A 
ATOM     16  C   UNL     1       2.165  16.592  13.966  0.00  0.00    +0.000 A 
ENDBRANCH  10  11
ENDBRANCH   1  10
TORSDOF 2
ENDMDL
MODEL 8
REMARK VINA RESULT:    -4.032      3.241      4.963
REMARK INTER + INTRA:          -4.624
REMARK INTER:                  -4.447
REMARK INTRA:                  -0.176
REMARK UNBOUND:                -0.120
REMARK  Name = 1550473
REMARK  2 active torsions:
REMARK  status: ('A' for Active; 'I' for Inactive)
REMARK    1  A    between atoms: N_1  and  C_4
REMARK    2  A    between atoms: C_4  and  C_5
REMARK                            x       y       z     vdW  Elec       q    Type
REMARK                         _______ _______ _______ _____ _____    ______ ____
ROOT
ATOM      1  N   UNL     1       5.679  -8.073  -4.925  0.00  0.00    -0.354 N 
ATOM      2  N   UNL     1       4.594  -6.877  -3.266  0.00  0.00    -0.372 N 
ATOM      3  N   UNL     1       4.446  -9.167  -3.260  0.00  0.00    -0.372 N 
ATOM      4  C   UNL     1       4.912  -8.049  -3.827  0.00  0.00    +0.166 C 
ATOM      5  H   UNL     1       5.976  -7.190  -5.324  0.00  0.00    +0.163 HD
ATOM      6  H   UNL     1       4.020  -6.828  -2.435  0.00  0.00    +0.159 HD
ATOM      7  H   UNL     1       4.930  -5.998  -3.640  0.00  0.00    +0.159 HD
ATOM      8  H   UNL     1       4.645 -10.083  -3.638  0.00  0.00    +0.159 HD
ATOM      9  H   UNL     1       3.860  -9.137  -2.434  0.00  0.00    +0.159 HD
ENDROOT
BRANCH   1  10
ATOM     10  C   UNL     1       6.128  -9.299  -5.583  0.00  0.00    +0.151 C 
BRANCH  10  11
ATOM     11  C   UNL     1       5.221  -9.593  -6.746  0.00  0.00    -0.028 A 
ATOM     12  C   UNL     1       4.258 -10.610  -6.659  0.00  0.00    +0.005 A 
ATOM     13  C   UNL     1       5.314  -8.854  -7.935  0.00  0.00    +0.005 A 
ATOM     14  C   UNL     1       3.396 -10.863  -7.728  0.00  0.00    +0.000 A 
ATOM     15  C   UNL     1       4.451  -9.111  -9.001  0.00  0.00    +0.000 A 
ATOM     16  C   UNL     1       3.491 -10.114  -8.896  0.00  0.00    +0.000 A 
ENDBRANCH  10  11
ENDBRANCH   1  10
TORSDOF 2
ENDMDL
MODEL 9
REMARK VINA RESULT:    -3.959     25.460     26.412
REMARK INTER + INTRA:          -4.541
REMARK INTER:                  -4.407
REMARK INTRA:                  -0.134
REMARK UNBOUND:                -0.120
REMARK  Name = 1550473
REMARK  2 active torsions:
REMARK  status: ('A' for Active; 'I' for Inactive)
REMARK    1  A    between atoms: N_1  and  C_4
REMARK    2  A    between atoms: C_4  and  C_5
REMARK                            x       y       z     vdW  Elec       q    Type
REMARK                         _______ _______ _______ _____ _____    ______ ____
ROOT
ATOM      1  N   UNL     1     -20.129  -4.450   0.900  0.00  0.00    -0.354 N 
ATOM      2  N   UNL     1     -19.538  -2.567  -0.312  0.00  0.00    -0.372 N 
ATOM      3  N   UNL     1     -21.701  -3.326  -0.426  0.00  0.00    -0.372 N 
ATOM      4  C   UNL     1     -20.462  -3.460   0.061  0.00  0.00    +0.166 C 
ATOM      5  H   UNL     1     -19.166  -4.515   1.210  0.00  0.00    +0.163 HD
ATOM      6  H   UNL     1     -19.761  -1.808  -0.941  0.00  0.00    +0.159 HD
ATOM      7  H   UNL     1     -18.587  -2.607   0.035  0.00  0.00    +0.159 HD
ATOM      8  H   UNL     1     -22.443  -3.970  -0.187  0.00  0.00    +0.159 HD
ATOM      9  H   UNL     1     -21.940  -2.579  -1.066  0.00  0.00    +0.159 HD
ENDROOT
BRANCH   1  10
ATOM     10  C   UNL     1     -21.073  -5.442   1.410  0.00  0.00    +0.151 C 
BRANCH  10  11
ATOM     11  C   UNL     1     -20.435  -6.803   1.354  0.00  0.00    -0.028 A 
ATOM     12  C   UNL     1     -20.410  -7.626   2.489  0.00  0.00    +0.005 A 
ATOM     13  C   UNL     1     -19.858  -7.277   0.165  0.00  0.00    +0.005 A 
ATOM     14  C   UNL     1     -19.844  -8.901   2.429  0.00  0.00    +0.000 A 
ATOM     15  C   UNL     1     -19.293  -8.551   0.109  0.00  0.00    +0.000 A 
ATOM     16  C   UNL     1     -19.288  -9.364   1.240  0.00  0.00    +0.000 A 
ENDBRANCH  10  11
ENDBRANCH   1  10
TORSDOF 2
ENDMDL
