MODEL 1
REMARK VINA RESULT:    -5.110      0.000      0.000
REMARK INTER + INTRA:          -5.814
REMARK INTER:                  -5.708
REMARK INTRA:                  -0.106
REMARK UNBOUND:                -0.106
REMARK  Name = 1550473
REMARK  2 active torsions:
REMARK  status: ('A' for Active; 'I' for Inactive)
REMARK    1  A    between atoms: N_1  and  C_4
REMARK    2  A    between atoms: C_4  and  C_5
REMARK                            x       y       z     vdW  Elec       q    Type
REMARK                         _______ _______ _______ _____ _____    ______ ____
ROOT
ATOM      1  N   UNL     1       5.310  17.609   9.636  0.00  0.00    -0.354 N 
ATOM      2  N   UNL     1       7.539  17.661   9.012  0.00  0.00    -0.372 N 
ATOM      3  N   UNL     1       5.928  17.736   7.380  0.00  0.00    -0.372 N 
ATOM      4  C   UNL     1       6.243  17.668   8.677  0.00  0.00    +0.166 C 
ATOM      5  H   UNL     1       5.614  17.529  10.600  0.00  0.00    +0.163 HD
ATOM      6  H   UNL     1       8.266  17.708   8.311  0.00  0.00    +0.159 HD
ATOM      7  H   UNL     1       7.840  17.628   9.978  0.00  0.00    +0.159 HD
ATOM      8  H   UNL     1       4.969  17.739   7.061  0.00  0.00    +0.159 HD
ATOM      9  H   UNL     1       6.642  17.772   6.662  0.00  0.00    +0.159 HD
ENDROOT
BRANCH   1  10
ATOM     10  C   UNL     1       3.871  17.665   9.382  0.00  0.00    +0.151 C 
BRANCH  10  11
ATOM     11  C   UNL     1       3.167  18.105  10.636  0.00  0.00    -0.028 A 
ATOM     12  C   UNL     1       3.373  19.391  11.154  0.00  0.00    +0.005 A 
ATOM     13  C   UNL     1       2.288  17.241  11.307  0.00  0.00    +0.005 A 
ATOM     14  C   UNL     1       2.696  19.811  12.302  0.00  0.00    +0.000 A 
ATOM     15  C   UNL     1       1.615  17.663  12.453  0.00  0.00    +0.000 A 
ATOM     16  C   UNL     1       1.817  18.948  12.949  0.00  0.00    +0.000 A 
ENDBRANCH  10  11
ENDBRANCH   1  10
TORSDOF 2
ENDMDL
MODEL 2
REMARK VINA RESULT:    -5.022      1.050      2.004
REMARK INTER + INTRA:          -5.715
REMARK INTER:                  -5.580
REMARK INTRA:                  -0.135
REMARK UNBOUND:                -0.106
REMARK  Name = 1550473
REMARK  2 active torsions:
REMARK  status: ('A' for Active; 'I' for Inactive)
REMARK    1  A    between atoms: N_1  and  C_4
REMARK    2  A    between atoms: C_4  and  C_5
REMARK                            x       y       z     vdW  Elec       q    Type
REMARK                         _______ _______ _______ _____ _____    ______ ____
ROOT
ATOM      1  N   UNL     1       4.375  18.118   9.026  0.00  0.00    -0.354 N 
ATOM      2  N   UNL     1       4.799  16.680   7.261  0.00  0.00    -0.372 N 
ATOM      3  N   UNL     1       6.429  17.005   8.844  0.00  0.00    -0.372 N 
ATOM      4  C   UNL     1       5.201  17.277   8.390  0.00  0.00    +0.166 C 
ATOM      5  H   UNL     1       3.468  18.306   8.614  0.00  0.00    +0.163 HD
ATOM      6  H   UNL     1       5.399  16.038   6.761  0.00  0.00    +0.159 HD
ATOM      7  H   UNL     1       3.875  16.834   6.876  0.00  0.00    +0.159 HD
ATOM      8  H   UNL     1       6.794  17.427   9.687  0.00  0.00    +0.159 HD
ATOM      9  H   UNL     1       7.048  16.374   8.351  0.00  0.00    +0.159 HD
ENDROOT
BRANCH   1  10
ATOM     10  C   UNL     1       4.695  18.778  10.291  0.00  0.00    +0.151 C 
BRANCH  10  11
ATOM     11  C   UNL     1       3.500  18.701  11.201  0.00  0.00    -0.028 A 
ATOM     12  C   UNL     1       2.790  17.500  11.343  0.00  0.00    +0.005 A 
ATOM     13  C   UNL     1       3.077  19.823  11.929  0.00  0.00    +0.005 A 
ATOM     14  C   UNL     1       1.698  17.419  12.211  0.00  0.00    +0.000 A 
ATOM     15  C   UNL     1       1.987  19.739  12.795  0.00  0.00    +0.000 A 
ATOM     16  C   UNL     1       1.299  18.537  12.937  0.00  0.00    +0.000 A 
ENDBRANCH  10  11
ENDBRANCH   1  10
TORSDOF 2
ENDMDL
MODEL 3
REMARK VINA RESULT:    -5.007      9.493     10.710
REMARK INTER + INTRA:          -5.698
REMARK INTER:                  -5.557
REMARK INTRA:                  -0.142
REMARK UNBOUND:                -0.106
REMARK  Name = 1550473
REMARK  2 active torsions:
REMARK  status: ('A' for Active; 'I' for Inactive)
REMARK    1  A    between atoms: N_1  and  C_4
REMARK    2  A    between atoms: C_4  and  C_5
REMARK                            x       y       z     vdW  Elec       q    Type
REMARK                         _______ _______ _______ _____ _____    ______ ____
ROOT
ATOM      1  N   UNL     1       3.076  10.869  16.770  0.00  0.00    -0.354 N 
ATOM      2  N   UNL     1       2.544  11.487  14.602  0.00  0.00    -0.372 N 
ATOM      3  N   UNL     1       4.524  12.212  15.508  0.00  0.00    -0.372 N 
ATOM      4  C   UNL     1       3.387  11.520  15.641  0.00  0.00    +0.166 C 
ATOM      5  H   UNL     1       2.185  10.389  16.818  0.00  0.00    +0.163 HD
ATOM      6  H   UNL     1       2.754  11.966  13.736  0.00  0.00    +0.159 HD
ATOM      7  H   UNL     1       1.676  10.968  14.636  0.00  0.00    +0.159 HD
ATOM      8  H   UNL     1       5.200  12.280  16.257  0.00  0.00    +0.159 HD
ATOM      9  H   UNL     1       4.746  12.707  14.653  0.00  0.00    +0.159 HD
ENDROOT
BRANCH   1  10
ATOM     10  C   UNL     1       3.949  10.798  17.940  0.00  0.00    +0.151 C 
BRANCH  10  11
ATOM     11  C   UNL     1       3.147  11.118  19.171  0.00  0.00    -0.028 A 
ATOM     12  C   UNL     1       1.854  11.651  19.060  0.00  0.00    +0.005 A 
ATOM     13  C   UNL     1       3.673  10.885  20.452  0.00  0.00    +0.005 A 
ATOM     14  C   UNL     1       1.098  11.920  20.204  0.00  0.00    +0.000 A 
ATOM     15  C   UNL     1       2.914  11.157  21.590  0.00  0.00    +0.000 A 
ATOM     16  C   UNL     1       1.626  11.672  21.466  0.00  0.00    +0.000 A 
ENDBRANCH  10  11
ENDBRANCH   1  10
TORSDOF 2
ENDMDL
MODEL 4
REMARK VINA RESULT:    -4.641     50.108     51.274
REMARK INTER + INTRA:          -5.290
REMARK INTER:                  -5.123
REMARK INTRA:                  -0.168
REMARK UNBOUND:                -0.106
REMARK  Name = 1550473
REMARK  2 active torsions:
REMARK  status: ('A' for Active; 'I' for Inactive)
REMARK    1  A    between atoms: N_1  and  C_4
REMARK    2  A    between atoms: C_4  and  C_5
REMARK                            x       y       z     vdW  Elec       q    Type
REMARK                         _______ _______ _______ _____ _____    ______ ____
ROOT
ATOM      1  N   UNL     1      -1.378 -26.771 -15.604  0.00  0.00    -0.354 N 
ATOM      2  N   UNL     1      -3.305 -27.187 -16.820  0.00  0.00    -0.372 N 
ATOM      3  N   UNL     1      -3.057 -25.148 -15.797  0.00  0.00    -0.372 N 
ATOM      4  C   UNL     1      -2.568 -26.364 -16.064  0.00  0.00    +0.166 C 
ATOM      5  H   UNL     1      -1.077 -27.716 -15.817  0.00  0.00    +0.163 HD
ATOM      6  H   UNL     1      -4.205 -26.906 -17.185  0.00  0.00    +0.159 HD
ATOM      7  H   UNL     1      -2.981 -28.113 -17.070  0.00  0.00    +0.159 HD
ATOM      8  H   UNL     1      -2.553 -24.482 -15.227  0.00  0.00    +0.159 HD
ATOM      9  H   UNL     1      -3.962 -24.853 -16.143  0.00  0.00    +0.159 HD
ENDROOT
BRANCH   1  10
ATOM     10  C   UNL     1      -0.475 -25.933 -14.818  0.00  0.00    +0.151 C 
BRANCH  10  11
ATOM     11  C   UNL     1      -0.435 -26.445 -13.404  0.00  0.00    -0.028 A 
ATOM     12  C   UNL     1       0.251 -27.628 -13.094  0.00  0.00    +0.005 A 
ATOM     13  C   UNL     1      -1.077 -25.747 -12.369  0.00  0.00    +0.005 A 
ATOM     14  C   UNL     1       0.313 -28.087 -11.776  0.00  0.00    +0.000 A 
ATOM     15  C   UNL     1      -1.014 -26.210 -11.055  0.00  0.00    +0.000 A 
ATOM     16  C   UNL     1      -0.316 -27.378 -10.758  0.00  0.00    +0.000 A 
ENDBRANCH  10  11
ENDBRANCH   1  10
TORSDOF 2
ENDMDL
MODEL 5
REMARK VINA RESULT:    -4.596     48.291     49.532
REMARK INTER + INTRA:          -5.239
REMARK INTER:                  -5.074
REMARK INTRA:                  -0.165
REMARK UNBOUND:                -0.106
REMARK  Name = 1550473
REMARK  2 active torsions:
REMARK  status: ('A' for Active; 'I' for Inactive)
REMARK    1  A    between atoms: N_1  and  C_4
REMARK    2  A    between atoms: C_4  and  C_5
REMARK                            x       y       z     vdW  Elec       q    Type
REMARK                         _______ _______ _______ _____ _____    ______ ____
ROOT
ATOM      1  N   UNL     1       2.671 -18.197 -21.054  0.00  0.00    -0.354 N 
ATOM      2  N   UNL     1       4.943 -18.636 -21.153  0.00  0.00    -0.372 N 
ATOM      3  N   UNL     1       3.793 -18.290 -23.109  0.00  0.00    -0.372 N 
ATOM      4  C   UNL     1       3.787 -18.371 -21.774  0.00  0.00    +0.166 C 
ATOM      5  H   UNL     1       2.726 -18.302 -20.047  0.00  0.00    +0.163 HD
ATOM      6  H   UNL     1       5.802 -18.769 -21.670  0.00  0.00    +0.159 HD
ATOM      7  H   UNL     1       5.004 -18.695 -20.144  0.00  0.00    +0.159 HD
ATOM      8  H   UNL     1       2.953 -18.098 -23.638  0.00  0.00    +0.159 HD
ATOM      9  H   UNL     1       4.641 -18.431 -23.645  0.00  0.00    +0.159 HD
ENDROOT
BRANCH   1  10
ATOM     10  C   UNL     1       1.372 -17.852 -21.629  0.00  0.00    +0.151 C 
BRANCH  10  11
ATOM     11  C   UNL     1       0.510 -19.083 -21.669  0.00  0.00    -0.028 A 
ATOM     12  C   UNL     1      -0.368 -19.303 -22.741  0.00  0.00    +0.005 A 
ATOM     13  C   UNL     1       0.570 -20.036 -20.641  0.00  0.00    +0.005 A 
ATOM     14  C   UNL     1      -1.147 -20.461 -22.794  0.00  0.00    +0.000 A 
ATOM     15  C   UNL     1      -0.211 -21.191 -20.698  0.00  0.00    +0.000 A 
ATOM     16  C   UNL     1      -1.067 -21.404 -21.775  0.00  0.00    +0.000 A 
ENDBRANCH  10  11
ENDBRANCH   1  10
TORSDOF 2
ENDMDL
MODEL 6
REMARK VINA RESULT:    -4.560     10.274     11.334
REMARK INTER + INTRA:          -5.199
REMARK INTER:                  -5.160
REMARK INTRA:                  -0.039
REMARK UNBOUND:                -0.106
REMARK  Name = 1550473
REMARK  2 active torsions:
REMARK  status: ('A' for Active; 'I' for Inactive)
REMARK    1  A    between atoms: N_1  and  C_4
REMARK    2  A    between atoms: C_4  and  C_5
REMARK                            x       y       z     vdW  Elec       q    Type
REMARK                         _______ _______ _______ _____ _____    ______ ____
ROOT
ATOM      1  N   UNL     1       3.288  10.128  16.530  0.00  0.00    -0.354 N 
ATOM      2  N   UNL     1       2.594  12.154  17.411  0.00  0.00    -0.372 N 
ATOM      3  N   UNL     1       3.684  12.138  15.392  0.00  0.00    -0.372 N 
ATOM      4  C   UNL     1       3.195  11.461  16.437  0.00  0.00    +0.166 C 
ATOM      5  H   UNL     1       2.924   9.677  17.362  0.00  0.00    +0.163 HD
ATOM      6  H   UNL     1       2.505  13.160  17.366  0.00  0.00    +0.159 HD
ATOM      7  H   UNL     1       2.190  11.697  18.219  0.00  0.00    +0.159 HD
ATOM      8  H   UNL     1       4.155  11.674  14.626  0.00  0.00    +0.159 HD
ATOM      9  H   UNL     1       3.616  13.146  15.335  0.00  0.00    +0.159 HD
ENDROOT
BRANCH   1  10
ATOM     10  C   UNL     1       3.875   9.275  15.499  0.00  0.00    +0.151 C 
BRANCH  10  11
ATOM     11  C   UNL     1       5.220   8.792  15.967  0.00  0.00    -0.028 A 
ATOM     12  C   UNL     1       6.035   9.614  16.760  0.00  0.00    +0.005 A 
ATOM     13  C   UNL     1       5.683   7.512  15.627  0.00  0.00    +0.005 A 
ATOM     14  C   UNL     1       7.271   9.154  17.220  0.00  0.00    +0.000 A 
ATOM     15  C   UNL     1       6.919   7.057  16.088  0.00  0.00    +0.000 A 
ATOM     16  C   UNL     1       7.711   7.878  16.887  0.00  0.00    +0.000 A 
ENDBRANCH  10  11
ENDBRANCH   1  10
TORSDOF 2
ENDMDL
MODEL 7
REMARK VINA RESULT:    -4.339      2.193      2.664
REMARK INTER + INTRA:          -4.952
REMARK INTER:                  -4.834
REMARK INTRA:                  -0.118
REMARK UNBOUND:                -0.106
REMARK  Name = 1550473
REMARK  2 active torsions:
REMARK  status: ('A' for Active; 'I' for Inactive)
REMARK    1  A    between atoms: N_1  and  C_4
REMARK    2  A    between atoms: C_4  and  C_5
REMARK                            x       y       z     vdW  Elec       q    Type
REMARK                         _______ _______ _______ _____ _____    ______ ____
ROOT
ATOM      1  N   UNL     1       6.595  19.012   9.434  0.00  0.00    -0.354 N 
ATOM      2  N   UNL     1       8.294  17.761   8.477  0.00  0.00    -0.372 N 
ATOM      3  N   UNL     1       6.224  16.806   8.736  0.00  0.00    -0.372 N 
ATOM      4  C   UNL     1       7.024  17.866   8.888  0.00  0.00    +0.166 C 
ATOM      5  H   UNL     1       7.260  19.768   9.549  0.00  0.00    +0.163 HD
ATOM      6  H   UNL     1       8.645  16.910   8.058  0.00  0.00    +0.159 HD
ATOM      7  H   UNL     1       8.944  18.534   8.551  0.00  0.00    +0.159 HD
ATOM      8  H   UNL     1       5.257  16.818   9.031  0.00  0.00    +0.159 HD
ATOM      9  H   UNL     1       6.560  15.941   8.330  0.00  0.00    +0.159 HD
ENDROOT
BRANCH   1  10
ATOM     10  C   UNL     1       5.219  19.247   9.865  0.00  0.00    +0.151 C 
BRANCH  10  11
ATOM     11  C   UNL     1       5.130  19.052  11.354  0.00  0.00    -0.028 A 
ATOM     12  C   UNL     1       3.892  18.811  11.968  0.00  0.00    +0.005 A 
ATOM     13  C   UNL     1       6.281  19.101  12.155  0.00  0.00    +0.005 A 
ATOM     14  C   UNL     1       3.814  18.600  13.346  0.00  0.00    +0.000 A 
ATOM     15  C   UNL     1       6.198  18.891  13.531  0.00  0.00    +0.000 A 
ATOM     16  C   UNL     1       4.965  18.638  14.126  0.00  0.00    +0.000 A 
ENDBRANCH  10  11
ENDBRANCH   1  10
TORSDOF 2
ENDMDL
MODEL 8
REMARK VINA RESULT:    -4.271     10.103     11.237
REMARK INTER + INTRA:          -4.877
REMARK INTER:                  -4.728
REMARK INTRA:                  -0.148
REMARK UNBOUND:                -0.106
REMARK  Name = 1550473
REMARK  2 active torsions:
REMARK  status: ('A' for Active; 'I' for Inactive)
REMARK    1  A    between atoms: N_1  and  C_4
REMARK    2  A    between atoms: C_4  and  C_5
REMARK                            x       y       z     vdW  Elec       q    Type
REMARK                         _______ _______ _______ _____ _____    ______ ____
ROOT
ATOM      1  N   UNL     1       1.605   7.711  14.052  0.00  0.00    -0.354 N 
ATOM      2  N   UNL     1      -0.676   7.313  14.085  0.00  0.00    -0.372 N 
ATOM      3  N   UNL     1       0.657   6.247  15.618  0.00  0.00    -0.372 N 
ATOM      4  C   UNL     1       0.544   7.091  14.587  0.00  0.00    +0.166 C 
ATOM      5  H   UNL     1       1.457   8.316  13.253  0.00  0.00    +0.163 HD
ATOM      6  H   UNL     1      -1.496   6.863  14.470  0.00  0.00    +0.159 HD
ATOM      7  H   UNL     1      -0.827   7.954  13.315  0.00  0.00    +0.159 HD
ATOM      8  H   UNL     1       1.551   6.033  16.039  0.00  0.00    +0.159 HD
ATOM      9  H   UNL     1      -0.150   5.778  16.009  0.00  0.00    +0.159 HD
ENDROOT
BRANCH   1  10
ATOM     10  C   UNL     1       2.970   7.580  14.559  0.00  0.00    +0.151 C 
BRANCH  10  11
ATOM     11  C   UNL     1       3.478   8.937  14.961  0.00  0.00    -0.028 A 
ATOM     12  C   UNL     1       2.874  10.100  14.460  0.00  0.00    +0.005 A 
ATOM     13  C   UNL     1       4.558   9.067  15.847  0.00  0.00    +0.005 A 
ATOM     14  C   UNL     1       3.326  11.361  14.856  0.00  0.00    +0.000 A 
ATOM     15  C   UNL     1       5.007  10.328  16.240  0.00  0.00    +0.000 A 
ATOM     16  C   UNL     1       4.389  11.474  15.746  0.00  0.00    +0.000 A 
ENDBRANCH  10  11
ENDBRANCH   1  10
TORSDOF 2
ENDMDL
MODEL 9
REMARK VINA RESULT:    -4.258      2.634      3.485
REMARK INTER + INTRA:          -4.862
REMARK INTER:                  -4.720
REMARK INTRA:                  -0.141
REMARK UNBOUND:                -0.106
REMARK  Name = 1550473
REMARK  2 active torsions:
REMARK  status: ('A' for Active; 'I' for Inactive)
REMARK    1  A    between atoms: N_1  and  C_4
REMARK    2  A    between atoms: C_4  and  C_5
REMARK                            x       y       z     vdW  Elec       q    Type
REMARK                         _______ _______ _______ _____ _____    ______ ____
ROOT
ATOM      1  N   UNL     1       5.292  20.310  11.703  0.00  0.00    -0.354 N 
ATOM      2  N   UNL     1       7.479  19.609  12.005  0.00  0.00    -0.372 N 
ATOM      3  N   UNL     1       6.294  20.360  13.821  0.00  0.00    -0.372 N 
ATOM      4  C   UNL     1       6.340  20.098  12.511  0.00  0.00    +0.166 C 
ATOM      5  H   UNL     1       5.401  20.120  10.713  0.00  0.00    +0.163 HD
ATOM      6  H   UNL     1       8.285  19.436  12.591  0.00  0.00    +0.159 HD
ATOM      7  H   UNL     1       7.570  19.377  11.024  0.00  0.00    +0.159 HD
ATOM      8  H   UNL     1       5.466  20.736  14.263  0.00  0.00    +0.159 HD
ATOM      9  H   UNL     1       7.094  20.204  14.421  0.00  0.00    +0.159 HD
ENDROOT
BRANCH   1  10
ATOM     10  C   UNL     1       3.990  20.789  12.162  0.00  0.00    +0.151 C 
BRANCH  10  11
ATOM     11  C   UNL     1       3.051  19.620  12.285  0.00  0.00    -0.028 A 
ATOM     12  C   UNL     1       1.956  19.675  13.158  0.00  0.00    +0.005 A 
ATOM     13  C   UNL     1       3.250  18.457  11.526  0.00  0.00    +0.005 A 
ATOM     14  C   UNL     1       1.067  18.601  13.250  0.00  0.00    +0.000 A 
ATOM     15  C   UNL     1       2.360  17.386  11.621  0.00  0.00    +0.000 A 
ATOM     16  C   UNL     1       1.268  17.460  12.481  0.00  0.00    +0.000 A 
ENDBRANCH  10  11
ENDBRANCH   1  10
TORSDOF 2
ENDMDL
