MODEL 1
REMARK VINA RESULT:    -4.948      0.000      0.000
REMARK INTER + INTRA:          -5.648
REMARK INTER:                  -5.527
REMARK INTRA:                  -0.121
REMARK UNBOUND:                -0.121
REMARK  Name = 1550473
REMARK  2 active torsions:
REMARK  status: ('A' for Active; 'I' for Inactive)
REMARK    1  A    between atoms: N_1  and  C_4
REMARK    2  A    between atoms: C_4  and  C_5
REMARK                            x       y       z     vdW  Elec       q    Type
REMARK                         _______ _______ _______ _____ _____    ______ ____
ROOT
ATOM      1  N   UNL     1       6.579   8.674 -17.255  0.00  0.00    -0.354 N 
ATOM      2  N   UNL     1       7.835   9.199 -15.381  0.00  0.00    -0.372 N 
ATOM      3  N   UNL     1       8.902   8.956 -17.398  0.00  0.00    -0.372 N 
ATOM      4  C   UNL     1       7.766   8.939 -16.692  0.00  0.00    +0.166 C 
ATOM      5  H   UNL     1       5.760   8.647 -16.660  0.00  0.00    +0.163 HD
ATOM      6  H   UNL     1       8.715   9.406 -14.929  0.00  0.00    +0.159 HD
ATOM      7  H   UNL     1       7.008   9.216 -14.797  0.00  0.00    +0.159 HD
ATOM      8  H   UNL     1       8.918   8.763 -18.390  0.00  0.00    +0.159 HD
ATOM      9  H   UNL     1       9.794   9.150 -16.961  0.00  0.00    +0.159 HD
ENDROOT
BRANCH   1  10
ATOM     10  C   UNL     1       6.389   8.431 -18.684  0.00  0.00    +0.151 C 
BRANCH  10  11
ATOM     11  C   UNL     1       5.112   9.090 -19.128  0.00  0.00    -0.028 A 
ATOM     12  C   UNL     1       4.016   8.316 -19.538  0.00  0.00    +0.005 A 
ATOM     13  C   UNL     1       4.989  10.488 -19.136  0.00  0.00    +0.005 A 
ATOM     14  C   UNL     1       2.820   8.927 -19.922  0.00  0.00    +0.000 A 
ATOM     15  C   UNL     1       3.793  11.094 -19.520  0.00  0.00    +0.000 A 
ATOM     16  C   UNL     1       2.708  10.313 -19.911  0.00  0.00    +0.000 A 
ENDBRANCH  10  11
ENDBRANCH   1  10
TORSDOF 2
ENDMDL
MODEL 2
REMARK VINA RESULT:    -4.842     17.057     18.304
REMARK INTER + INTRA:          -5.530
REMARK INTER:                  -5.429
REMARK INTRA:                  -0.101
REMARK UNBOUND:                -0.121
REMARK  Name = 1550473
REMARK  2 active torsions:
REMARK  status: ('A' for Active; 'I' for Inactive)
REMARK    1  A    between atoms: N_1  and  C_4
REMARK    2  A    between atoms: C_4  and  C_5
REMARK                            x       y       z     vdW  Elec       q    Type
REMARK                         _______ _______ _______ _____ _____    ______ ____
ROOT
ATOM      1  N   UNL     1      -0.280   3.586  -1.916  0.00  0.00    -0.354 N 
ATOM      2  N   UNL     1      -1.998   3.886  -3.439  0.00  0.00    -0.372 N 
ATOM      3  N   UNL     1      -0.573   2.109  -3.712  0.00  0.00    -0.372 N 
ATOM      4  C   UNL     1      -0.938   3.190  -3.014  0.00  0.00    +0.166 C 
ATOM      5  H   UNL     1      -0.588   4.431  -1.449  0.00  0.00    +0.163 HD
ATOM      6  H   UNL     1      -2.517   3.610  -4.262  0.00  0.00    +0.159 HD
ATOM      7  H   UNL     1      -2.332   4.704  -2.944  0.00  0.00    +0.159 HD
ATOM      8  H   UNL     1       0.222   1.543  -3.447  0.00  0.00    +0.159 HD
ATOM      9  H   UNL     1      -1.072   1.823  -4.545  0.00  0.00    +0.159 HD
ENDROOT
BRANCH   1  10
ATOM     10  C   UNL     1       0.855   2.867  -1.339  0.00  0.00    +0.151 C 
BRANCH  10  11
ATOM     11  C   UNL     1       2.087   3.721  -1.453  0.00  0.00    -0.028 A 
ATOM     12  C   UNL     1       3.109   3.627  -0.497  0.00  0.00    +0.005 A 
ATOM     13  C   UNL     1       2.241   4.621  -2.518  0.00  0.00    +0.005 A 
ATOM     14  C   UNL     1       4.268   4.398  -0.619  0.00  0.00    +0.000 A 
ATOM     15  C   UNL     1       3.399   5.390  -2.636  0.00  0.00    +0.000 A 
ATOM     16  C   UNL     1       4.413   5.276  -1.688  0.00  0.00    +0.000 A 
ENDBRANCH  10  11
ENDBRANCH   1  10
TORSDOF 2
ENDMDL
MODEL 3
REMARK VINA RESULT:    -4.821      1.446      2.283
REMARK INTER + INTRA:          -5.506
REMARK INTER:                  -5.334
REMARK INTRA:                  -0.171
REMARK UNBOUND:                -0.121
REMARK  Name = 1550473
REMARK  2 active torsions:
REMARK  status: ('A' for Active; 'I' for Inactive)
REMARK    1  A    between atoms: N_1  and  C_4
REMARK    2  A    between atoms: C_4  and  C_5
REMARK                            x       y       z     vdW  Elec       q    Type
REMARK                         _______ _______ _______ _____ _____    ______ ____
ROOT
ATOM      1  N   UNL     1       6.809  10.951 -16.211  0.00  0.00    -0.354 N 
ATOM      2  N   UNL     1       7.325  10.373 -14.029  0.00  0.00    -0.372 N 
ATOM      3  N   UNL     1       8.622   9.547 -15.732  0.00  0.00    -0.372 N 
ATOM      4  C   UNL     1       7.584  10.292 -15.340  0.00  0.00    +0.166 C 
ATOM      5  H   UNL     1       6.018  11.475 -15.852  0.00  0.00    +0.163 HD
ATOM      6  H   UNL     1       7.895   9.889 -13.347  0.00  0.00    +0.159 HD
ATOM      7  H   UNL     1       6.562  10.934 -13.670  0.00  0.00    +0.159 HD
ATOM      8  H   UNL     1       8.867   9.441 -16.707  0.00  0.00    +0.159 HD
ATOM      9  H   UNL     1       9.197   9.046 -15.066  0.00  0.00    +0.159 HD
ENDROOT
BRANCH   1  10
ATOM     10  C   UNL     1       7.037  10.973 -17.655  0.00  0.00    +0.151 C 
BRANCH  10  11
ATOM     11  C   UNL     1       5.968  10.162 -18.334  0.00  0.00    -0.028 A 
ATOM     12  C   UNL     1       4.857  10.791 -18.913  0.00  0.00    +0.005 A 
ATOM     13  C   UNL     1       6.064   8.764 -18.407  0.00  0.00    +0.005 A 
ATOM     14  C   UNL     1       3.879  10.041 -19.570  0.00  0.00    +0.000 A 
ATOM     15  C   UNL     1       5.086   8.018 -19.063  0.00  0.00    +0.000 A 
ATOM     16  C   UNL     1       3.994   8.657 -19.646  0.00  0.00    +0.000 A 
ENDBRANCH  10  11
ENDBRANCH   1  10
TORSDOF 2
ENDMDL
MODEL 4
REMARK VINA RESULT:    -4.743     22.443     24.356
REMARK INTER + INTRA:          -5.418
REMARK INTER:                  -5.296
REMARK INTRA:                  -0.122
REMARK UNBOUND:                -0.121
REMARK  Name = 1550473
REMARK  2 active torsions:
REMARK  status: ('A' for Active; 'I' for Inactive)
REMARK    1  A    between atoms: N_1  and  C_4
REMARK    2  A    between atoms: C_4  and  C_5
REMARK                            x       y       z     vdW  Elec       q    Type
REMARK                         _______ _______ _______ _____ _____    ______ ____
ROOT
ATOM      1  N   UNL     1       3.023  -2.504   0.601  0.00  0.00    -0.354 N 
ATOM      2  N   UNL     1       3.074  -2.670  -1.709  0.00  0.00    -0.372 N 
ATOM      3  N   UNL     1       1.081  -2.198  -0.675  0.00  0.00    -0.372 N 
ATOM      4  C   UNL     1       2.390  -2.456  -0.579  0.00  0.00    +0.166 C 
ATOM      5  H   UNL     1       4.010  -2.734   0.608  0.00  0.00    +0.163 HD
ATOM      6  H   UNL     1       2.624  -2.636  -2.614  0.00  0.00    +0.159 HD
ATOM      7  H   UNL     1       4.070  -2.854  -1.702  0.00  0.00    +0.159 HD
ATOM      8  H   UNL     1       0.506  -2.034   0.141  0.00  0.00    +0.159 HD
ATOM      9  H   UNL     1       0.610  -2.172  -1.570  0.00  0.00    +0.159 HD
ENDROOT
BRANCH   1  10
ATOM     10  C   UNL     1       2.381  -2.233   1.885  0.00  0.00    +0.151 C 
BRANCH  10  11
ATOM     11  C   UNL     1       3.382  -2.441   2.988  0.00  0.00    -0.028 A 
ATOM     12  C   UNL     1       3.089  -2.040   4.300  0.00  0.00    +0.005 A 
ATOM     13  C   UNL     1       4.623  -3.042   2.729  0.00  0.00    +0.005 A 
ATOM     14  C   UNL     1       4.006  -2.260   5.331  0.00  0.00    +0.000 A 
ATOM     15  C   UNL     1       5.536  -3.259   3.761  0.00  0.00    +0.000 A 
ATOM     16  C   UNL     1       5.227  -2.870   5.062  0.00  0.00    +0.000 A 
ENDBRANCH  10  11
ENDBRANCH   1  10
TORSDOF 2
ENDMDL
MODEL 5
REMARK VINA RESULT:    -4.729     58.075     60.082
REMARK INTER + INTRA:          -5.403
REMARK INTER:                  -5.284
REMARK INTRA:                  -0.119
REMARK UNBOUND:                -0.121
REMARK  Name = 1550473
REMARK  2 active torsions:
REMARK  status: ('A' for Active; 'I' for Inactive)
REMARK    1  A    between atoms: N_1  and  C_4
REMARK    2  A    between atoms: C_4  and  C_5
REMARK                            x       y       z     vdW  Elec       q    Type
REMARK                         _______ _______ _______ _____ _____    ______ ____
ROOT
ATOM      1  N   UNL     1      13.473   1.119  38.962  0.00  0.00    -0.354 N 
ATOM      2  N   UNL     1      15.431   1.689  37.865  0.00  0.00    -0.372 N 
ATOM      3  N   UNL     1      14.266   3.324  38.976  0.00  0.00    -0.372 N 
ATOM      4  C   UNL     1      14.376   2.043  38.609  0.00  0.00    +0.166 C 
ATOM      5  H   UNL     1      13.598   0.170  38.626  0.00  0.00    +0.163 HD
ATOM      6  H   UNL     1      16.131   2.363  37.586  0.00  0.00    +0.159 HD
ATOM      7  H   UNL     1      15.578   0.731  37.569  0.00  0.00    +0.159 HD
ATOM      8  H   UNL     1      13.490   3.656  39.533  0.00  0.00    +0.159 HD
ATOM      9  H   UNL     1      14.950   4.016  38.697  0.00  0.00    +0.159 HD
ENDROOT
BRANCH   1  10
ATOM     10  C   UNL     1      12.317   1.389  39.815  0.00  0.00    +0.151 C 
BRANCH  10  11
ATOM     11  C   UNL     1      12.161   0.265  40.802  0.00  0.00    -0.028 A 
ATOM     12  C   UNL     1      11.863   0.534  42.146  0.00  0.00    +0.005 A 
ATOM     13  C   UNL     1      12.305  -1.071  40.398  0.00  0.00    +0.005 A 
ATOM     14  C   UNL     1      11.688  -0.510  43.057  0.00  0.00    +0.000 A 
ATOM     15  C   UNL     1      12.131  -2.111  41.311  0.00  0.00    +0.000 A 
ATOM     16  C   UNL     1      11.820  -1.831  42.639  0.00  0.00    +0.000 A 
ENDBRANCH  10  11
ENDBRANCH   1  10
TORSDOF 2
ENDMDL
MODEL 6
REMARK VINA RESULT:    -4.543     13.421     13.917
REMARK INTER + INTRA:          -5.195
REMARK INTER:                  -5.053
REMARK INTRA:                  -0.142
REMARK UNBOUND:                -0.121
REMARK  Name = 1550473
REMARK  2 active torsions:
REMARK  status: ('A' for Active; 'I' for Inactive)
REMARK    1  A    between atoms: N_1  and  C_4
REMARK    2  A    between atoms: C_4  and  C_5
REMARK                            x       y       z     vdW  Elec       q    Type
REMARK                         _______ _______ _______ _____ _____    ______ ____
ROOT
ATOM      1  N   UNL     1      -2.813  -1.889 -22.288  0.00  0.00    -0.354 N 
ATOM      2  N   UNL     1      -1.012  -3.337 -22.439  0.00  0.00    -0.372 N 
ATOM      3  N   UNL     1      -0.981  -1.397 -23.665  0.00  0.00    -0.372 N 
ATOM      4  C   UNL     1      -1.613  -2.196 -22.799  0.00  0.00    +0.166 C 
ATOM      5  H   UNL     1      -3.252  -2.551 -21.659  0.00  0.00    +0.163 HD
ATOM      6  H   UNL     1      -0.105  -3.594 -22.805  0.00  0.00    +0.159 HD
ATOM      7  H   UNL     1      -1.433  -3.975 -21.775  0.00  0.00    +0.159 HD
ATOM      8  H   UNL     1      -1.384  -0.525 -23.981  0.00  0.00    +0.159 HD
ATOM      9  H   UNL     1      -0.078  -1.643 -24.051  0.00  0.00    +0.159 HD
ENDROOT
BRANCH   1  10
ATOM     10  C   UNL     1      -3.528  -0.646 -22.573  0.00  0.00    +0.151 C 
BRANCH  10  11
ATOM     11  C   UNL     1      -3.973  -0.027 -21.276  0.00  0.00    -0.028 A 
ATOM     12  C   UNL     1      -3.649  -0.630 -20.052  0.00  0.00    +0.005 A 
ATOM     13  C   UNL     1      -4.713   1.165 -21.265  0.00  0.00    +0.005 A 
ATOM     14  C   UNL     1      -4.036  -0.040 -18.846  0.00  0.00    +0.000 A 
ATOM     15  C   UNL     1      -5.098   1.751 -20.059  0.00  0.00    +0.000 A 
ATOM     16  C   UNL     1      -4.757   1.150 -18.850  0.00  0.00    +0.000 A 
ENDBRANCH  10  11
ENDBRANCH   1  10
TORSDOF 2
ENDMDL
MODEL 7
REMARK VINA RESULT:    -4.404     29.006     30.443
REMARK INTER + INTRA:          -5.040
REMARK INTER:                  -4.891
REMARK INTRA:                  -0.148
REMARK UNBOUND:                -0.121
REMARK  Name = 1550473
REMARK  2 active torsions:
REMARK  status: ('A' for Active; 'I' for Inactive)
REMARK    1  A    between atoms: N_1  and  C_4
REMARK    2  A    between atoms: C_4  and  C_5
REMARK                            x       y       z     vdW  Elec       q    Type
REMARK                         _______ _______ _______ _____ _____    ______ ____
ROOT
ATOM      1  N   UNL     1     -23.058   8.928 -31.755  0.00  0.00    -0.354 N 
ATOM      2  N   UNL     1     -23.107   6.895 -32.863  0.00  0.00    -0.372 N 
ATOM      3  N   UNL     1     -21.110   8.012 -32.682  0.00  0.00    -0.372 N 
ATOM      4  C   UNL     1     -22.422   7.959 -32.426  0.00  0.00    +0.166 C 
ATOM      5  H   UNL     1     -24.059   8.843 -31.620  0.00  0.00    +0.163 HD
ATOM      6  H   UNL     1     -22.653   6.147 -33.370  0.00  0.00    +0.159 HD
ATOM      7  H   UNL     1     -24.098   6.791 -32.687  0.00  0.00    +0.159 HD
ATOM      8  H   UNL     1     -20.538   8.791 -32.385  0.00  0.00    +0.159 HD
ATOM      9  H   UNL     1     -20.641   7.278 -33.198  0.00  0.00    +0.159 HD
ENDROOT
BRANCH   1  10
ATOM     10  C   UNL     1     -22.394  10.102 -31.190  0.00  0.00    +0.151 C 
BRANCH  10  11
ATOM     11  C   UNL     1     -22.238   9.912 -29.706  0.00  0.00    -0.028 A 
ATOM     12  C   UNL     1     -23.111  10.547 -28.811  0.00  0.00    +0.005 A 
ATOM     13  C   UNL     1     -21.223   9.092 -29.189  0.00  0.00    +0.005 A 
ATOM     14  C   UNL     1     -22.985  10.347 -27.434  0.00  0.00    +0.000 A 
ATOM     15  C   UNL     1     -21.100   8.896 -27.814  0.00  0.00    +0.000 A 
ATOM     16  C   UNL     1     -21.983   9.521 -26.937  0.00  0.00    +0.000 A 
ENDBRANCH  10  11
ENDBRANCH   1  10
TORSDOF 2
ENDMDL
MODEL 8
REMARK VINA RESULT:    -4.306     30.998     32.548
REMARK INTER + INTRA:          -4.931
REMARK INTER:                  -4.788
REMARK INTRA:                  -0.142
REMARK UNBOUND:                -0.121
REMARK  Name = 1550473
REMARK  2 active torsions:
REMARK  status: ('A' for Active; 'I' for Inactive)
REMARK    1  A    between atoms: N_1  and  C_4
REMARK    2  A    between atoms: C_4  and  C_5
REMARK                            x       y       z     vdW  Elec       q    Type
REMARK                         _______ _______ _______ _____ _____    ______ ____
ROOT
ATOM      1  N   UNL     1       4.222  -1.334  13.380  0.00  0.00    -0.354 N 
ATOM      2  N   UNL     1       4.235  -2.134  15.554  0.00  0.00    -0.372 N 
ATOM      3  N   UNL     1       5.465  -0.263  15.053  0.00  0.00    -0.372 N 
ATOM      4  C   UNL     1       4.642  -1.236  14.648  0.00  0.00    +0.166 C 
ATOM      5  H   UNL     1       3.624  -2.113  13.130  0.00  0.00    +0.163 HD
ATOM      6  H   UNL     1       4.532  -2.084  16.519  0.00  0.00    +0.159 HD
ATOM      7  H   UNL     1       3.600  -2.885  15.311  0.00  0.00    +0.159 HD
ATOM      8  H   UNL     1       5.813   0.443  14.418  0.00  0.00    +0.159 HD
ATOM      9  H   UNL     1       5.783  -0.202  16.012  0.00  0.00    +0.159 HD
ENDROOT
BRANCH   1  10
ATOM     10  C   UNL     1       4.564  -0.378  12.329  0.00  0.00    +0.151 C 
BRANCH  10  11
ATOM     11  C   UNL     1       3.304   0.271  11.826  0.00  0.00    -0.028 A 
ATOM     12  C   UNL     1       3.366   1.339  10.919  0.00  0.00    +0.005 A 
ATOM     13  C   UNL     1       2.045  -0.181  12.248  0.00  0.00    +0.005 A 
ATOM     14  C   UNL     1       2.196   1.922  10.428  0.00  0.00    +0.000 A 
ATOM     15  C   UNL     1       0.878   0.404  11.757  0.00  0.00    +0.000 A 
ATOM     16  C   UNL     1       0.954   1.454  10.845  0.00  0.00    +0.000 A 
ENDBRANCH  10  11
ENDBRANCH   1  10
TORSDOF 2
ENDMDL
MODEL 9
REMARK VINA RESULT:    -4.291     22.886     24.854
REMARK INTER + INTRA:          -4.914
REMARK INTER:                  -4.821
REMARK INTRA:                  -0.093
REMARK UNBOUND:                -0.121
REMARK  Name = 1550473
REMARK  2 active torsions:
REMARK  status: ('A' for Active; 'I' for Inactive)
REMARK    1  A    between atoms: N_1  and  C_4
REMARK    2  A    between atoms: C_4  and  C_5
REMARK                            x       y       z     vdW  Elec       q    Type
REMARK                         _______ _______ _______ _____ _____    ______ ____
ROOT
ATOM      1  N   UNL     1       2.355  -2.373   1.925  0.00  0.00    -0.354 N 
ATOM      2  N   UNL     1       1.072  -3.530   0.382  0.00  0.00    -0.372 N 
ATOM      3  N   UNL     1       1.801  -1.419  -0.143  0.00  0.00    -0.372 N 
ATOM      4  C   UNL     1       1.751  -2.431   0.730  0.00  0.00    +0.166 C 
ATOM      5  H   UNL     1       2.254  -3.162   2.553  0.00  0.00    +0.163 HD
ATOM      6  H   UNL     1       0.609  -3.604  -0.514  0.00  0.00    +0.159 HD
ATOM      7  H   UNL     1       1.011  -4.335   0.994  0.00  0.00    +0.159 HD
ATOM      8  H   UNL     1       2.293  -0.559   0.062  0.00  0.00    +0.159 HD
ATOM      9  H   UNL     1       1.334  -1.469  -1.040  0.00  0.00    +0.159 HD
ENDROOT
BRANCH   1  10
ATOM     10  C   UNL     1       3.165  -1.244   2.378  0.00  0.00    +0.151 C 
BRANCH  10  11
ATOM     11  C   UNL     1       4.053  -1.697   3.504  0.00  0.00    -0.028 A 
ATOM     12  C   UNL     1       5.406  -1.982   3.272  0.00  0.00    +0.005 A 
ATOM     13  C   UNL     1       3.548  -1.837   4.806  0.00  0.00    +0.005 A 
ATOM     14  C   UNL     1       6.239  -2.374   4.324  0.00  0.00    +0.000 A 
ATOM     15  C   UNL     1       4.382  -2.230   5.852  0.00  0.00    +0.000 A 
ATOM     16  C   UNL     1       5.728  -2.495   5.611  0.00  0.00    +0.000 A 
ENDBRANCH  10  11
ENDBRANCH   1  10
TORSDOF 2
ENDMDL
