MODEL 1
REMARK VINA RESULT:    -6.076      0.000      0.000
REMARK INTER + INTRA:          -6.902
REMARK INTER:                  -6.786
REMARK INTRA:                  -0.115
REMARK UNBOUND:                -0.115
REMARK  Name = 1550473
REMARK  2 active torsions:
REMARK  status: ('A' for Active; 'I' for Inactive)
REMARK    1  A    between atoms: N_1  and  C_4
REMARK    2  A    between atoms: C_4  and  C_5
REMARK                            x       y       z     vdW  Elec       q    Type
REMARK                         _______ _______ _______ _____ _____    ______ ____
ROOT
ATOM      1  N   UNL     1      -5.694   0.134 -12.850  0.00  0.00    -0.354 N 
ATOM      2  N   UNL     1      -5.452   2.372 -13.398  0.00  0.00    -0.372 N 
ATOM      3  N   UNL     1      -7.464   1.645 -12.566  0.00  0.00    -0.372 N 
ATOM      4  C   UNL     1      -6.208   1.369 -12.934  0.00  0.00    +0.166 C 
ATOM      5  H   UNL     1      -4.745  -0.015 -13.173  0.00  0.00    +0.163 HD
ATOM      6  H   UNL     1      -5.811   3.314 -13.469  0.00  0.00    +0.159 HD
ATOM      7  H   UNL     1      -4.489   2.228 -13.676  0.00  0.00    +0.159 HD
ATOM      8  H   UNL     1      -8.087   0.931 -12.213  0.00  0.00    +0.159 HD
ATOM      9  H   UNL     1      -7.845   2.579 -12.641  0.00  0.00    +0.159 HD
ENDROOT
BRANCH   1  10
ATOM     10  C   UNL     1      -6.415  -1.016 -12.308  0.00  0.00    +0.151 C 
BRANCH  10  11
ATOM     11  C   UNL     1      -5.427  -1.976 -11.706  0.00  0.00    -0.028 A 
ATOM     12  C   UNL     1      -5.328  -3.291 -12.185  0.00  0.00    +0.005 A 
ATOM     13  C   UNL     1      -4.583  -1.576 -10.659  0.00  0.00    +0.005 A 
ATOM     14  C   UNL     1      -4.390  -4.174 -11.646  0.00  0.00    +0.000 A 
ATOM     15  C   UNL     1      -3.647  -2.460 -10.122  0.00  0.00    +0.000 A 
ATOM     16  C   UNL     1      -3.550  -3.758 -10.618  0.00  0.00    +0.000 A 
ENDBRANCH  10  11
ENDBRANCH   1  10
TORSDOF 2
ENDMDL
MODEL 2
REMARK VINA RESULT:    -5.756      2.032      2.975
REMARK INTER + INTRA:          -6.545
REMARK INTER:                  -6.428
REMARK INTRA:                  -0.116
REMARK UNBOUND:                -0.115
REMARK  Name = 1550473
REMARK  2 active torsions:
REMARK  status: ('A' for Active; 'I' for Inactive)
REMARK    1  A    between atoms: N_1  and  C_4
REMARK    2  A    between atoms: C_4  and  C_5
REMARK                            x       y       z     vdW  Elec       q    Type
REMARK                         _______ _______ _______ _____ _____    ______ ____
ROOT
ATOM      1  N   UNL     1      -8.233  -0.330 -12.513  0.00  0.00    -0.354 N 
ATOM      2  N   UNL     1      -9.792   0.701 -11.145  0.00  0.00    -0.372 N 
ATOM      3  N   UNL     1      -9.838  -1.584 -11.354  0.00  0.00    -0.372 N 
ATOM      4  C   UNL     1      -9.279  -0.414 -11.680  0.00  0.00    +0.166 C 
ATOM      5  H   UNL     1      -7.873   0.589 -12.743  0.00  0.00    +0.163 HD
ATOM      6  H   UNL     1     -10.579   0.669 -10.510  0.00  0.00    +0.159 HD
ATOM      7  H   UNL     1      -9.402   1.615 -11.341  0.00  0.00    +0.159 HD
ATOM      8  H   UNL     1      -9.502  -2.461 -11.728  0.00  0.00    +0.159 HD
ATOM      9  H   UNL     1     -10.634  -1.635 -10.730  0.00  0.00    +0.159 HD
ENDROOT
BRANCH   1  10
ATOM     10  C   UNL     1      -7.566  -1.487 -13.106  0.00  0.00    +0.151 C 
BRANCH  10  11
ATOM     11  C   UNL     1      -6.420  -1.900 -12.224  0.00  0.00    -0.028 A 
ATOM     12  C   UNL     1      -5.740  -0.949 -11.448  0.00  0.00    +0.005 A 
ATOM     13  C   UNL     1      -6.014  -3.241 -12.154  0.00  0.00    +0.005 A 
ATOM     14  C   UNL     1      -4.696  -1.337 -10.605  0.00  0.00    +0.000 A 
ATOM     15  C   UNL     1      -4.970  -3.624 -11.311  0.00  0.00    +0.000 A 
ATOM     16  C   UNL     1      -4.313  -2.672 -10.536  0.00  0.00    +0.000 A 
ENDBRANCH  10  11
ENDBRANCH   1  10
TORSDOF 2
ENDMDL
MODEL 3
REMARK VINA RESULT:    -5.303      7.800      8.817
REMARK INTER + INTRA:          -6.038
REMARK INTER:                  -5.912
REMARK INTRA:                  -0.126
REMARK UNBOUND:                -0.115
REMARK  Name = 1550473
REMARK  2 active torsions:
REMARK  status: ('A' for Active; 'I' for Inactive)
REMARK    1  A    between atoms: N_1  and  C_4
REMARK    2  A    between atoms: C_4  and  C_5
REMARK                            x       y       z     vdW  Elec       q    Type
REMARK                         _______ _______ _______ _____ _____    ______ ____
ROOT
ATOM      1  N   UNL     1     -12.007  -1.060 -18.886  0.00  0.00    -0.354 N 
ATOM      2  N   UNL     1     -13.658   0.218 -17.883  0.00  0.00    -0.372 N 
ATOM      3  N   UNL     1     -14.101  -1.979 -18.377  0.00  0.00    -0.372 N 
ATOM      4  C   UNL     1     -13.246  -0.951 -18.389  0.00  0.00    +0.166 C 
ATOM      5  H   UNL     1     -11.417  -0.235 -18.894  0.00  0.00    +0.163 HD
ATOM      6  H   UNL     1     -14.586   0.329 -17.498  0.00  0.00    +0.159 HD
ATOM      7  H   UNL     1     -13.051   1.027 -17.850  0.00  0.00    +0.159 HD
ATOM      8  H   UNL     1     -13.854  -2.886 -18.749  0.00  0.00    +0.159 HD
ATOM      9  H   UNL     1     -15.039  -1.884 -18.006  0.00  0.00    +0.159 HD
ENDROOT
BRANCH   1  10
ATOM     10  C   UNL     1     -11.442  -2.302 -19.412  0.00  0.00    +0.151 C 
BRANCH  10  11
ATOM     11  C   UNL     1     -10.044  -2.468 -18.883  0.00  0.00    -0.028 A 
ATOM     12  C   UNL     1      -8.938  -2.297 -19.729  0.00  0.00    +0.005 A 
ATOM     13  C   UNL     1      -9.818  -2.790 -17.536  0.00  0.00    +0.005 A 
ATOM     14  C   UNL     1      -7.639  -2.422 -19.232  0.00  0.00    +0.000 A 
ATOM     15  C   UNL     1      -8.519  -2.915 -17.044  0.00  0.00    +0.000 A 
ATOM     16  C   UNL     1      -7.430  -2.728 -17.892  0.00  0.00    +0.000 A 
ENDBRANCH  10  11
ENDBRANCH   1  10
TORSDOF 2
ENDMDL
MODEL 4
REMARK VINA RESULT:    -5.242      1.167      2.043
REMARK INTER + INTRA:          -5.970
REMARK INTER:                  -5.848
REMARK INTRA:                  -0.122
REMARK UNBOUND:                -0.115
REMARK  Name = 1550473
REMARK  2 active torsions:
REMARK  status: ('A' for Active; 'I' for Inactive)
REMARK    1  A    between atoms: N_1  and  C_4
REMARK    2  A    between atoms: C_4  and  C_5
REMARK                            x       y       z     vdW  Elec       q    Type
REMARK                         _______ _______ _______ _____ _____    ______ ____
ROOT
ATOM      1  N   UNL     1      -5.386  -0.692 -11.770  0.00  0.00    -0.354 N 
ATOM      2  N   UNL     1      -5.758   1.002 -13.304  0.00  0.00    -0.372 N 
ATOM      3  N   UNL     1      -7.501  -0.373 -12.726  0.00  0.00    -0.372 N 
ATOM      4  C   UNL     1      -6.215  -0.034 -12.590  0.00  0.00    +0.166 C 
ATOM      5  H   UNL     1      -4.414  -0.405 -11.734  0.00  0.00    +0.163 HD
ATOM      6  H   UNL     1      -6.361   1.521 -13.928  0.00  0.00    +0.159 HD
ATOM      7  H   UNL     1      -4.798   1.317 -13.232  0.00  0.00    +0.159 HD
ATOM      8  H   UNL     1      -7.906  -1.149 -12.220  0.00  0.00    +0.159 HD
ATOM      9  H   UNL     1      -8.118   0.126 -13.355  0.00  0.00    +0.159 HD
ENDROOT
BRANCH   1  10
ATOM     10  C   UNL     1      -5.796  -1.800 -10.909  0.00  0.00    +0.151 C 
BRANCH  10  11
ATOM     11  C   UNL     1      -4.783  -2.906 -11.014  0.00  0.00    -0.028 A 
ATOM     12  C   UNL     1      -3.762  -3.030 -10.061  0.00  0.00    +0.005 A 
ATOM     13  C   UNL     1      -4.843  -3.838 -12.062  0.00  0.00    +0.005 A 
ATOM     14  C   UNL     1      -2.839  -4.075 -10.142  0.00  0.00    +0.000 A 
ATOM     15  C   UNL     1      -3.918  -4.879 -12.140  0.00  0.00    +0.000 A 
ATOM     16  C   UNL     1      -2.918  -4.999 -11.178  0.00  0.00    +0.000 A 
ENDBRANCH  10  11
ENDBRANCH   1  10
TORSDOF 2
ENDMDL
MODEL 5
REMARK VINA RESULT:    -5.161      2.839      3.207
REMARK INTER + INTRA:          -5.880
REMARK INTER:                  -5.717
REMARK INTRA:                  -0.163
REMARK UNBOUND:                -0.115
REMARK  Name = 1550473
REMARK  2 active torsions:
REMARK  status: ('A' for Active; 'I' for Inactive)
REMARK    1  A    between atoms: N_1  and  C_4
REMARK    2  A    between atoms: C_4  and  C_5
REMARK                            x       y       z     vdW  Elec       q    Type
REMARK                         _______ _______ _______ _____ _____    ______ ____
ROOT
ATOM      1  N   UNL     1      -8.839  -2.164 -10.654  0.00  0.00    -0.354 N 
ATOM      2  N   UNL     1     -10.069  -0.950 -12.195  0.00  0.00    -0.372 N 
ATOM      3  N   UNL     1      -9.226   0.128 -10.354  0.00  0.00    -0.372 N 
ATOM      4  C   UNL     1      -9.370  -1.002 -11.055  0.00  0.00    +0.166 C 
ATOM      5  H   UNL     1      -9.009  -2.991 -11.215  0.00  0.00    +0.163 HD
ATOM      6  H   UNL     1     -10.479  -0.087 -12.526  0.00  0.00    +0.159 HD
ATOM      7  H   UNL     1     -10.199  -1.769 -12.778  0.00  0.00    +0.159 HD
ATOM      8  H   UNL     1      -8.714   0.155  -9.482  0.00  0.00    +0.159 HD
ATOM      9  H   UNL     1      -9.638   0.999 -10.662  0.00  0.00    +0.159 HD
ENDROOT
BRANCH   1  10
ATOM     10  C   UNL     1      -8.014  -2.316  -9.456  0.00  0.00    +0.151 C 
BRANCH  10  11
ATOM     11  C   UNL     1      -6.621  -2.707  -9.865  0.00  0.00    -0.028 A 
ATOM     12  C   UNL     1      -6.213  -4.048  -9.811  0.00  0.00    +0.005 A 
ATOM     13  C   UNL     1      -5.706  -1.742 -10.313  0.00  0.00    +0.005 A 
ATOM     14  C   UNL     1      -4.929  -4.416 -10.219  0.00  0.00    +0.000 A 
ATOM     15  C   UNL     1      -4.424  -2.114 -10.718  0.00  0.00    +0.000 A 
ATOM     16  C   UNL     1      -4.037  -3.451 -10.674  0.00  0.00    +0.000 A 
ENDBRANCH  10  11
ENDBRANCH   1  10
TORSDOF 2
ENDMDL
MODEL 6
REMARK VINA RESULT:    -5.160      2.098      3.141
REMARK INTER + INTRA:          -5.879
REMARK INTER:                  -6.025
REMARK INTRA:                   0.146
REMARK UNBOUND:                -0.115
REMARK  Name = 1550473
REMARK  2 active torsions:
REMARK  status: ('A' for Active; 'I' for Inactive)
REMARK    1  A    between atoms: N_1  and  C_4
REMARK    2  A    between atoms: C_4  and  C_5
REMARK                            x       y       z     vdW  Elec       q    Type
REMARK                         _______ _______ _______ _____ _____    ______ ____
ROOT
ATOM      1  N   UNL     1      -8.590   0.802 -12.503  0.00  0.00    -0.354 N 
ATOM      2  N   UNL     1     -10.842   0.807 -11.960  0.00  0.00    -0.372 N 
ATOM      3  N   UNL     1      -9.317   0.182 -10.363  0.00  0.00    -0.372 N 
ATOM      4  C   UNL     1      -9.567   0.596 -11.610  0.00  0.00    +0.166 C 
ATOM      5  H   UNL     1      -8.848   1.087 -13.441  0.00  0.00    +0.163 HD
ATOM      6  H   UNL     1     -11.600   0.664 -11.306  0.00  0.00    +0.159 HD
ATOM      7  H   UNL     1     -11.093   1.136 -12.884  0.00  0.00    +0.159 HD
ATOM      8  H   UNL     1      -8.377  -0.001 -10.038  0.00  0.00    +0.159 HD
ATOM      9  H   UNL     1     -10.063   0.021  -9.698  0.00  0.00    +0.159 HD
ENDROOT
BRANCH   1  10
ATOM     10  C   UNL     1      -7.167   0.653 -12.206  0.00  0.00    +0.151 C 
BRANCH  10  11
ATOM     11  C   UNL     1      -6.819  -0.810 -12.190  0.00  0.00    -0.028 A 
ATOM     12  C   UNL     1      -7.552  -1.725 -12.960  0.00  0.00    +0.005 A 
ATOM     13  C   UNL     1      -5.753  -1.287 -11.412  0.00  0.00    +0.005 A 
ATOM     14  C   UNL     1      -7.211  -3.079 -12.969  0.00  0.00    +0.000 A 
ATOM     15  C   UNL     1      -5.416  -2.641 -11.423  0.00  0.00    +0.000 A 
ATOM     16  C   UNL     1      -6.143  -3.536 -12.204  0.00  0.00    +0.000 A 
ENDBRANCH  10  11
ENDBRANCH   1  10
TORSDOF 2
ENDMDL
MODEL 7
REMARK VINA RESULT:    -5.134      2.926      3.623
REMARK INTER + INTRA:          -5.849
REMARK INTER:                  -5.667
REMARK INTRA:                  -0.182
REMARK UNBOUND:                -0.115
REMARK  Name = 1550473
REMARK  2 active torsions:
REMARK  status: ('A' for Active; 'I' for Inactive)
REMARK    1  A    between atoms: N_1  and  C_4
REMARK    2  A    between atoms: C_4  and  C_5
REMARK                            x       y       z     vdW  Elec       q    Type
REMARK                         _______ _______ _______ _____ _____    ______ ____
ROOT
ATOM      1  N   UNL     1      -5.908  -2.215  -9.605  0.00  0.00    -0.354 N 
ATOM      2  N   UNL     1      -8.036  -2.718  -8.842  0.00  0.00    -0.372 N 
ATOM      3  N   UNL     1      -7.714  -2.381 -11.089  0.00  0.00    -0.372 N 
ATOM      4  C   UNL     1      -7.206  -2.434  -9.853  0.00  0.00    +0.166 C 
ATOM      5  H   UNL     1      -5.590  -2.240  -8.643  0.00  0.00    +0.163 HD
ATOM      6  H   UNL     1      -9.020  -2.891  -8.998  0.00  0.00    +0.159 HD
ATOM      7  H   UNL     1      -7.707  -2.787  -7.886  0.00  0.00    +0.159 HD
ATOM      8  H   UNL     1      -7.142  -2.167 -11.894  0.00  0.00    +0.159 HD
ATOM      9  H   UNL     1      -8.699  -2.541 -11.264  0.00  0.00    +0.159 HD
ENDROOT
BRANCH   1  10
ATOM     10  C   UNL     1      -4.911  -1.952 -10.641  0.00  0.00    +0.151 C 
BRANCH  10  11
ATOM     11  C   UNL     1      -4.121  -3.206 -10.893  0.00  0.00    -0.028 A 
ATOM     12  C   UNL     1      -4.343  -3.968 -12.050  0.00  0.00    +0.005 A 
ATOM     13  C   UNL     1      -3.144  -3.636  -9.981  0.00  0.00    +0.005 A 
ATOM     14  C   UNL     1      -3.589  -5.117 -12.299  0.00  0.00    +0.000 A 
ATOM     15  C   UNL     1      -2.394  -4.785 -10.233  0.00  0.00    +0.000 A 
ATOM     16  C   UNL     1      -2.615  -5.523 -11.393  0.00  0.00    +0.000 A 
ENDBRANCH  10  11
ENDBRANCH   1  10
TORSDOF 2
ENDMDL
MODEL 8
REMARK VINA RESULT:    -5.067     10.542     12.153
REMARK INTER + INTRA:          -5.775
REMARK INTER:                  -5.681
REMARK INTRA:                  -0.094
REMARK UNBOUND:                -0.115
REMARK  Name = 1550473
REMARK  2 active torsions:
REMARK  status: ('A' for Active; 'I' for Inactive)
REMARK    1  A    between atoms: N_1  and  C_4
REMARK    2  A    between atoms: C_4  and  C_5
REMARK                            x       y       z     vdW  Elec       q    Type
REMARK                         _______ _______ _______ _____ _____    ______ ____
ROOT
ATOM      1  N   UNL     1       5.440  -7.508 -13.729  0.00  0.00    -0.354 N 
ATOM      2  N   UNL     1       7.717  -7.932 -13.715  0.00  0.00    -0.372 N 
ATOM      3  N   UNL     1       6.613  -7.737 -11.713  0.00  0.00    -0.372 N 
ATOM      4  C   UNL     1       6.575  -7.723 -13.050  0.00  0.00    +0.166 C 
ATOM      5  H   UNL     1       5.484  -7.479 -14.741  0.00  0.00    +0.163 HD
ATOM      6  H   UNL     1       8.588  -8.100 -13.229  0.00  0.00    +0.159 HD
ATOM      7  H   UNL     1       7.749  -7.949 -14.727  0.00  0.00    +0.159 HD
ATOM      8  H   UNL     1       5.786  -7.580 -11.152  0.00  0.00    +0.159 HD
ATOM      9  H   UNL     1       7.477  -7.892 -11.209  0.00  0.00    +0.159 HD
ENDROOT
BRANCH   1  10
ATOM     10  C   UNL     1       4.134  -7.322 -13.101  0.00  0.00    +0.151 C 
BRANCH  10  11
ATOM     11  C   UNL     1       3.197  -6.691 -14.093  0.00  0.00    -0.028 A 
ATOM     12  C   UNL     1       2.853  -5.336 -13.986  0.00  0.00    +0.005 A 
ATOM     13  C   UNL     1       2.653  -7.442 -15.147  0.00  0.00    +0.005 A 
ATOM     14  C   UNL     1       2.006  -4.742 -14.925  0.00  0.00    +0.000 A 
ATOM     15  C   UNL     1       1.808  -6.845 -16.082  0.00  0.00    +0.000 A 
ATOM     16  C   UNL     1       1.486  -5.495 -15.972  0.00  0.00    +0.000 A 
ENDBRANCH  10  11
ENDBRANCH   1  10
TORSDOF 2
ENDMDL
MODEL 9
REMARK VINA RESULT:    -5.028      3.594      5.329
REMARK INTER + INTRA:          -5.731
REMARK INTER:                  -5.626
REMARK INTRA:                  -0.106
REMARK UNBOUND:                -0.115
REMARK  Name = 1550473
REMARK  2 active torsions:
REMARK  status: ('A' for Active; 'I' for Inactive)
REMARK    1  A    between atoms: N_1  and  C_4
REMARK    2  A    between atoms: C_4  and  C_5
REMARK                            x       y       z     vdW  Elec       q    Type
REMARK                         _______ _______ _______ _____ _____    ______ ____
ROOT
ATOM      1  N   UNL     1      -6.660  -3.140  -9.375  0.00  0.00    -0.354 N 
ATOM      2  N   UNL     1      -5.114  -4.821  -8.991  0.00  0.00    -0.372 N 
ATOM      3  N   UNL     1      -6.973  -5.291 -10.252  0.00  0.00    -0.372 N 
ATOM      4  C   UNL     1      -6.261  -4.408  -9.543  0.00  0.00    +0.166 C 
ATOM      5  H   UNL     1      -6.091  -2.528  -8.802  0.00  0.00    +0.163 HD
ATOM      6  H   UNL     1      -4.785  -5.771  -9.104  0.00  0.00    +0.159 HD
ATOM      7  H   UNL     1      -4.524  -4.195  -8.457  0.00  0.00    +0.159 HD
ATOM      8  H   UNL     1      -7.850  -5.044 -10.689  0.00  0.00    +0.159 HD
ATOM      9  H   UNL     1      -6.666  -6.249 -10.366  0.00  0.00    +0.159 HD
ENDROOT
BRANCH   1  10
ATOM     10  C   UNL     1      -7.866  -2.576  -9.979  0.00  0.00    +0.151 C 
BRANCH  10  11
ATOM     11  C   UNL     1      -7.471  -1.489 -10.941  0.00  0.00    -0.028 A 
ATOM     12  C   UNL     1      -8.385  -0.486 -11.296  0.00  0.00    +0.005 A 
ATOM     13  C   UNL     1      -6.183  -1.454 -11.497  0.00  0.00    +0.005 A 
ATOM     14  C   UNL     1      -8.009   0.540 -12.166  0.00  0.00    +0.000 A 
ATOM     15  C   UNL     1      -5.812  -0.428 -12.366  0.00  0.00    +0.000 A 
ATOM     16  C   UNL     1      -6.724   0.570 -12.698  0.00  0.00    +0.000 A 
ENDBRANCH  10  11
ENDBRANCH   1  10
TORSDOF 2
ENDMDL
