MODEL 1
REMARK VINA RESULT:    -5.599      0.000      0.000
REMARK INTER + INTRA:          -6.375
REMARK INTER:                  -6.254
REMARK INTRA:                  -0.121
REMARK UNBOUND:                -0.121
REMARK  Name = 1550473
REMARK  2 active torsions:
REMARK  status: ('A' for Active; 'I' for Inactive)
REMARK    1  A    between atoms: N_1  and  C_4
REMARK    2  A    between atoms: C_4  and  C_5
REMARK                            x       y       z     vdW  Elec       q    Type
REMARK                         _______ _______ _______ _____ _____    ______ ____
ROOT
ATOM      1  N   UNL     1       0.506  -4.288  -1.545  0.00  0.00    -0.354 N 
ATOM      2  N   UNL     1      -0.439  -6.234  -2.372  0.00  0.00    -0.372 N 
ATOM      3  N   UNL     1      -1.686  -4.898  -0.985  0.00  0.00    -0.372 N 
ATOM      4  C   UNL     1      -0.536  -5.126  -1.627  0.00  0.00    +0.166 C 
ATOM      5  H   UNL     1       1.361  -4.533  -2.031  0.00  0.00    +0.163 HD
ATOM      6  H   UNL     1      -1.209  -6.883  -2.456  0.00  0.00    +0.159 HD
ATOM      7  H   UNL     1       0.401  -6.453  -2.894  0.00  0.00    +0.159 HD
ATOM      8  H   UNL     1      -1.822  -4.083  -0.402  0.00  0.00    +0.159 HD
ATOM      9  H   UNL     1      -2.465  -5.542  -1.047  0.00  0.00    +0.159 HD
ENDROOT
BRANCH   1  10
ATOM     10  C   UNL     1       0.485  -3.028  -0.804  0.00  0.00    +0.151 C 
BRANCH  10  11
ATOM     11  C   UNL     1       1.429  -2.057  -1.458  0.00  0.00    -0.028 A 
ATOM     12  C   UNL     1       2.371  -1.354  -0.693  0.00  0.00    +0.005 A 
ATOM     13  C   UNL     1       1.391  -1.841  -2.844  0.00  0.00    +0.005 A 
ATOM     14  C   UNL     1       3.268  -0.475  -1.304  0.00  0.00    +0.000 A 
ATOM     15  C   UNL     1       2.288  -0.962  -3.451  0.00  0.00    +0.000 A 
ATOM     16  C   UNL     1       3.228  -0.281  -2.680  0.00  0.00    +0.000 A 
ENDBRANCH  10  11
ENDBRANCH   1  10
TORSDOF 2
ENDMDL
MODEL 2
REMARK VINA RESULT:    -5.366      0.770      1.931
REMARK INTER + INTRA:          -6.115
REMARK INTER:                  -5.986
REMARK INTRA:                  -0.129
REMARK UNBOUND:                -0.121
REMARK  Name = 1550473
REMARK  2 active torsions:
REMARK  status: ('A' for Active; 'I' for Inactive)
REMARK    1  A    between atoms: N_1  and  C_4
REMARK    2  A    between atoms: C_4  and  C_5
REMARK                            x       y       z     vdW  Elec       q    Type
REMARK                         _______ _______ _______ _____ _____    ______ ____
ROOT
ATOM      1  N   UNL     1      -0.245  -3.747  -2.074  0.00  0.00    -0.354 N 
ATOM      2  N   UNL     1      -1.832  -4.966  -0.910  0.00  0.00    -0.372 N 
ATOM      3  N   UNL     1      -0.307  -6.085  -2.207  0.00  0.00    -0.372 N 
ATOM      4  C   UNL     1      -0.783  -4.927  -1.740  0.00  0.00    +0.166 C 
ATOM      5  H   UNL     1      -0.671  -2.902  -1.710  0.00  0.00    +0.163 HD
ATOM      6  H   UNL     1      -2.258  -5.842  -0.636  0.00  0.00    +0.159 HD
ATOM      7  H   UNL     1      -2.228  -4.123  -0.510  0.00  0.00    +0.159 HD
ATOM      8  H   UNL     1       0.479  -6.124  -2.842  0.00  0.00    +0.159 HD
ATOM      9  H   UNL     1      -0.726  -6.972  -1.955  0.00  0.00    +0.159 HD
ENDROOT
BRANCH   1  10
ATOM     10  C   UNL     1       0.933  -3.598  -2.928  0.00  0.00    +0.151 C 
BRANCH  10  11
ATOM     11  C   UNL     1       1.761  -2.447  -2.426  0.00  0.00    -0.028 A 
ATOM     12  C   UNL     1       2.318  -1.525  -3.324  0.00  0.00    +0.005 A 
ATOM     13  C   UNL     1       1.989  -2.271  -1.052  0.00  0.00    +0.005 A 
ATOM     14  C   UNL     1       3.062  -0.440  -2.857  0.00  0.00    +0.000 A 
ATOM     15  C   UNL     1       2.733  -1.186  -0.590  0.00  0.00    +0.000 A 
ATOM     16  C   UNL     1       3.268  -0.269  -1.492  0.00  0.00    +0.000 A 
ENDBRANCH  10  11
ENDBRANCH   1  10
TORSDOF 2
ENDMDL
MODEL 3
REMARK VINA RESULT:    -5.234      1.539      2.237
REMARK INTER + INTRA:          -5.967
REMARK INTER:                  -5.816
REMARK INTRA:                  -0.151
REMARK UNBOUND:                -0.121
REMARK  Name = 1550473
REMARK  2 active torsions:
REMARK  status: ('A' for Active; 'I' for Inactive)
REMARK    1  A    between atoms: N_1  and  C_4
REMARK    2  A    between atoms: C_4  and  C_5
REMARK                            x       y       z     vdW  Elec       q    Type
REMARK                         _______ _______ _______ _____ _____    ______ ____
ROOT
ATOM      1  N   UNL     1      -0.955  -4.190  -1.754  0.00  0.00    -0.354 N 
ATOM      2  N   UNL     1      -1.836  -5.033  -3.723  0.00  0.00    -0.372 N 
ATOM      3  N   UNL     1      -0.466  -6.371  -2.460  0.00  0.00    -0.372 N 
ATOM      4  C   UNL     1      -1.078  -5.195  -2.632  0.00  0.00    +0.166 C 
ATOM      5  H   UNL     1      -1.421  -3.313  -1.958  0.00  0.00    +0.163 HD
ATOM      6  H   UNL     1      -1.951  -5.774  -4.402  0.00  0.00    +0.159 HD
ATOM      7  H   UNL     1      -2.338  -4.171  -3.901  0.00  0.00    +0.159 HD
ATOM      8  H   UNL     1       0.125  -6.554  -1.660  0.00  0.00    +0.159 HD
ATOM      9  H   UNL     1      -0.559  -7.121  -3.133  0.00  0.00    +0.159 HD
ENDROOT
BRANCH   1  10
ATOM     10  C   UNL     1      -0.197  -4.282  -0.508  0.00  0.00    +0.151 C 
BRANCH  10  11
ATOM     11  C   UNL     1       0.986  -3.357  -0.583  0.00  0.00    -0.028 A 
ATOM     12  C   UNL     1       0.802  -1.979  -0.771  0.00  0.00    +0.005 A 
ATOM     13  C   UNL     1       2.294  -3.851  -0.462  0.00  0.00    +0.005 A 
ATOM     14  C   UNL     1       1.900  -1.116  -0.811  0.00  0.00    +0.000 A 
ATOM     15  C   UNL     1       3.387  -2.986  -0.504  0.00  0.00    +0.000 A 
ATOM     16  C   UNL     1       3.189  -1.618  -0.675  0.00  0.00    +0.000 A 
ENDBRANCH  10  11
ENDBRANCH   1  10
TORSDOF 2
ENDMDL
MODEL 4
REMARK VINA RESULT:    -5.113      1.489      2.107
REMARK INTER + INTRA:          -5.832
REMARK INTER:                  -5.658
REMARK INTRA:                  -0.175
REMARK UNBOUND:                -0.121
REMARK  Name = 1550473
REMARK  2 active torsions:
REMARK  status: ('A' for Active; 'I' for Inactive)
REMARK    1  A    between atoms: N_1  and  C_4
REMARK    2  A    between atoms: C_4  and  C_5
REMARK                            x       y       z     vdW  Elec       q    Type
REMARK                         _______ _______ _______ _____ _____    ______ ____
ROOT
ATOM      1  N   UNL     1      -0.135  -4.732  -2.603  0.00  0.00    -0.354 N 
ATOM      2  N   UNL     1      -1.713  -4.966  -0.924  0.00  0.00    -0.372 N 
ATOM      3  N   UNL     1       0.469  -4.557  -0.345  0.00  0.00    -0.372 N 
ATOM      4  C   UNL     1      -0.447  -4.750  -1.300  0.00  0.00    +0.166 C 
ATOM      5  H   UNL     1      -0.869  -4.916  -3.277  0.00  0.00    +0.163 HD
ATOM      6  H   UNL     1      -1.980  -4.981   0.051  0.00  0.00    +0.159 HD
ATOM      7  H   UNL     1      -2.454  -5.103  -1.601  0.00  0.00    +0.159 HD
ATOM      8  H   UNL     1       1.443  -4.395  -0.562  0.00  0.00    +0.159 HD
ATOM      9  H   UNL     1       0.224  -4.580   0.637  0.00  0.00    +0.159 HD
ENDROOT
BRANCH   1  10
ATOM     10  C   UNL     1       1.204  -4.453  -3.119  0.00  0.00    +0.151 C 
BRANCH  10  11
ATOM     11  C   UNL     1       1.306  -2.990  -3.454  0.00  0.00    -0.028 A 
ATOM     12  C   UNL     1       2.362  -2.216  -2.951  0.00  0.00    +0.005 A 
ATOM     13  C   UNL     1       0.353  -2.374  -4.279  0.00  0.00    +0.005 A 
ATOM     14  C   UNL     1       2.474  -0.865  -3.286  0.00  0.00    +0.000 A 
ATOM     15  C   UNL     1       0.468  -1.024  -4.611  0.00  0.00    +0.000 A 
ATOM     16  C   UNL     1       1.529  -0.271  -4.117  0.00  0.00    +0.000 A 
ENDBRANCH  10  11
ENDBRANCH   1  10
TORSDOF 2
ENDMDL
MODEL 5
REMARK VINA RESULT:    -5.105     17.985     18.879
REMARK INTER + INTRA:          -5.823
REMARK INTER:                  -5.680
REMARK INTRA:                  -0.143
REMARK UNBOUND:                -0.121
REMARK  Name = 1550473
REMARK  2 active torsions:
REMARK  status: ('A' for Active; 'I' for Inactive)
REMARK    1  A    between atoms: N_1  and  C_4
REMARK    2  A    between atoms: C_4  and  C_5
REMARK                            x       y       z     vdW  Elec       q    Type
REMARK                         _______ _______ _______ _____ _____    ______ ____
ROOT
ATOM      1  N   UNL     1      -3.036 -20.625  -6.890  0.00  0.00    -0.354 N 
ATOM      2  N   UNL     1      -1.033 -20.795  -5.740  0.00  0.00    -0.372 N 
ATOM      3  N   UNL     1      -2.848 -21.979  -4.986  0.00  0.00    -0.372 N 
ATOM      4  C   UNL     1      -2.321 -21.133  -5.878  0.00  0.00    +0.166 C 
ATOM      5  H   UNL     1      -2.586 -19.965  -7.514  0.00  0.00    +0.163 HD
ATOM      6  H   UNL     1      -0.467 -21.165  -4.988  0.00  0.00    +0.159 HD
ATOM      7  H   UNL     1      -0.573 -20.171  -6.392  0.00  0.00    +0.159 HD
ATOM      8  H   UNL     1      -3.816 -22.269  -5.031  0.00  0.00    +0.159 HD
ATOM      9  H   UNL     1      -2.301 -22.351  -4.220  0.00  0.00    +0.159 HD
ENDROOT
BRANCH   1  10
ATOM     10  C   UNL     1      -4.430 -20.971  -7.160  0.00  0.00    +0.151 C 
BRANCH  10  11
ATOM     11  C   UNL     1      -5.272 -19.729  -7.065  0.00  0.00    -0.028 A 
ATOM     12  C   UNL     1      -5.202 -18.743  -8.060  0.00  0.00    +0.005 A 
ATOM     13  C   UNL     1      -6.147 -19.534  -5.985  0.00  0.00    +0.005 A 
ATOM     14  C   UNL     1      -6.006 -17.603  -7.987  0.00  0.00    +0.000 A 
ATOM     15  C   UNL     1      -6.948 -18.394  -5.915  0.00  0.00    +0.000 A 
ATOM     16  C   UNL     1      -6.879 -17.430  -6.918  0.00  0.00    +0.000 A 
ENDBRANCH  10  11
ENDBRANCH   1  10
TORSDOF 2
ENDMDL
MODEL 6
REMARK VINA RESULT:    -5.050     18.340     18.953
REMARK INTER + INTRA:          -5.761
REMARK INTER:                  -5.669
REMARK INTRA:                  -0.092
REMARK UNBOUND:                -0.121
REMARK  Name = 1550473
REMARK  2 active torsions:
REMARK  status: ('A' for Active; 'I' for Inactive)
REMARK    1  A    between atoms: N_1  and  C_4
REMARK    2  A    between atoms: C_4  and  C_5
REMARK                            x       y       z     vdW  Elec       q    Type
REMARK                         _______ _______ _______ _____ _____    ______ ____
ROOT
ATOM      1  N   UNL     1      -9.572  10.084   6.347  0.00  0.00    -0.354 N 
ATOM      2  N   UNL     1      -8.005   9.515   7.955  0.00  0.00    -0.372 N 
ATOM      3  N   UNL     1     -10.047  10.315   8.630  0.00  0.00    -0.372 N 
ATOM      4  C   UNL     1      -9.220   9.976   7.635  0.00  0.00    +0.166 C 
ATOM      5  H   UNL     1      -8.889   9.839   5.639  0.00  0.00    +0.163 HD
ATOM      6  H   UNL     1      -7.713   9.420   8.918  0.00  0.00    +0.159 HD
ATOM      7  H   UNL     1      -7.341   9.228   7.246  0.00  0.00    +0.159 HD
ATOM      8  H   UNL     1     -10.976  10.675   8.456  0.00  0.00    +0.159 HD
ATOM      9  H   UNL     1      -9.768  10.238   9.600  0.00  0.00    +0.159 HD
ENDROOT
BRANCH   1  10
ATOM     10  C   UNL     1     -10.890  10.524   5.893  0.00  0.00    +0.151 C 
BRANCH  10  11
ATOM     11  C   UNL     1     -10.982  10.345   4.403  0.00  0.00    -0.028 A 
ATOM     12  C   UNL     1     -11.267   9.086   3.853  0.00  0.00    +0.005 A 
ATOM     13  C   UNL     1     -10.790  11.431   3.535  0.00  0.00    +0.005 A 
ATOM     14  C   UNL     1     -11.382   8.926   2.470  0.00  0.00    +0.000 A 
ATOM     15  C   UNL     1     -10.905  11.266   2.155  0.00  0.00    +0.000 A 
ATOM     16  C   UNL     1     -11.203  10.014   1.623  0.00  0.00    +0.000 A 
ENDBRANCH  10  11
ENDBRANCH   1  10
TORSDOF 2
ENDMDL
MODEL 7
REMARK VINA RESULT:    -5.043      1.579      2.824
REMARK INTER + INTRA:          -5.753
REMARK INTER:                  -5.603
REMARK INTRA:                  -0.150
REMARK UNBOUND:                -0.121
REMARK  Name = 1550473
REMARK  2 active torsions:
REMARK  status: ('A' for Active; 'I' for Inactive)
REMARK    1  A    between atoms: N_1  and  C_4
REMARK    2  A    between atoms: C_4  and  C_5
REMARK                            x       y       z     vdW  Elec       q    Type
REMARK                         _______ _______ _______ _____ _____    ______ ____
ROOT
ATOM      1  N   UNL     1      -0.635  -5.939  -2.446  0.00  0.00    -0.354 N 
ATOM      2  N   UNL     1      -2.790  -6.786  -2.414  0.00  0.00    -0.372 N 
ATOM      3  N   UNL     1      -2.034  -5.750  -4.317  0.00  0.00    -0.372 N 
ATOM      4  C   UNL     1      -1.806  -6.151  -3.062  0.00  0.00    +0.166 C 
ATOM      5  H   UNL     1      -0.535  -6.241  -1.484  0.00  0.00    +0.163 HD
ATOM      6  H   UNL     1      -3.683  -6.964  -2.854  0.00  0.00    +0.159 HD
ATOM      7  H   UNL     1      -2.672  -7.128  -1.468  0.00  0.00    +0.159 HD
ATOM      8  H   UNL     1      -1.335  -5.260  -4.858  0.00  0.00    +0.159 HD
ATOM      9  H   UNL     1      -2.926  -5.908  -4.770  0.00  0.00    +0.159 HD
ENDROOT
BRANCH   1  10
ATOM     10  C   UNL     1       0.519  -5.305  -3.081  0.00  0.00    +0.151 C 
BRANCH  10  11
ATOM     11  C   UNL     1       0.849  -4.036  -2.344  0.00  0.00    -0.028 A 
ATOM     12  C   UNL     1       1.523  -2.991  -2.993  0.00  0.00    +0.005 A 
ATOM     13  C   UNL     1       0.486  -3.871  -0.999  0.00  0.00    +0.005 A 
ATOM     14  C   UNL     1       1.804  -1.801  -2.317  0.00  0.00    +0.000 A 
ATOM     15  C   UNL     1       0.769  -2.681  -0.328  0.00  0.00    +0.000 A 
ATOM     16  C   UNL     1       1.425  -1.645  -0.988  0.00  0.00    +0.000 A 
ENDBRANCH  10  11
ENDBRANCH   1  10
TORSDOF 2
ENDMDL
MODEL 8
REMARK VINA RESULT:    -5.042     26.562     27.838
REMARK INTER + INTRA:          -5.752
REMARK INTER:                  -5.618
REMARK INTRA:                  -0.134
REMARK UNBOUND:                -0.121
REMARK  Name = 1550473
REMARK  2 active torsions:
REMARK  status: ('A' for Active; 'I' for Inactive)
REMARK    1  A    between atoms: N_1  and  C_4
REMARK    2  A    between atoms: C_4  and  C_5
REMARK                            x       y       z     vdW  Elec       q    Type
REMARK                         _______ _______ _______ _____ _____    ______ ____
ROOT
ATOM      1  N   UNL     1      -7.105  -7.493 -26.249  0.00  0.00    -0.354 N 
ATOM      2  N   UNL     1      -7.942  -5.858 -24.839  0.00  0.00    -0.372 N 
ATOM      3  N   UNL     1      -8.004  -5.506 -27.106  0.00  0.00    -0.372 N 
ATOM      4  C   UNL     1      -7.679  -6.295 -26.077  0.00  0.00    +0.166 C 
ATOM      5  H   UNL     1      -6.855  -8.030 -25.427  0.00  0.00    +0.163 HD
ATOM      6  H   UNL     1      -8.378  -4.960 -24.678  0.00  0.00    +0.159 HD
ATOM      7  H   UNL     1      -7.733  -6.417 -24.021  0.00  0.00    +0.159 HD
ATOM      8  H   UNL     1      -7.826  -5.775 -28.064  0.00  0.00    +0.159 HD
ATOM      9  H   UNL     1      -8.430  -4.599 -26.964  0.00  0.00    +0.159 HD
ENDROOT
BRANCH   1  10
ATOM     10  C   UNL     1      -6.825  -8.085 -27.556  0.00  0.00    +0.151 C 
BRANCH  10  11
ATOM     11  C   UNL     1      -7.305  -9.510 -27.563  0.00  0.00    -0.028 A 
ATOM     12  C   UNL     1      -7.664 -10.135 -28.766  0.00  0.00    +0.005 A 
ATOM     13  C   UNL     1      -7.397 -10.244 -26.370  0.00  0.00    +0.005 A 
ATOM     14  C   UNL     1      -8.082 -11.468 -28.777  0.00  0.00    +0.000 A 
ATOM     15  C   UNL     1      -7.815 -11.574 -26.385  0.00  0.00    +0.000 A 
ATOM     16  C   UNL     1      -8.154 -12.187 -27.589  0.00  0.00    +0.000 A 
ENDBRANCH  10  11
ENDBRANCH   1  10
TORSDOF 2
ENDMDL
MODEL 9
REMARK VINA RESULT:    -5.041      9.094     10.800
REMARK INTER + INTRA:          -5.751
REMARK INTER:                  -5.635
REMARK INTRA:                  -0.116
REMARK UNBOUND:                -0.121
REMARK  Name = 1550473
REMARK  2 active torsions:
REMARK  status: ('A' for Active; 'I' for Inactive)
REMARK    1  A    between atoms: N_1  and  C_4
REMARK    2  A    between atoms: C_4  and  C_5
REMARK                            x       y       z     vdW  Elec       q    Type
REMARK                         _______ _______ _______ _____ _____    ______ ____
ROOT
ATOM      1  N   UNL     1       6.511 -12.343  -4.580  0.00  0.00    -0.354 N 
ATOM      2  N   UNL     1       7.928 -13.613  -3.259  0.00  0.00    -0.372 N 
ATOM      3  N   UNL     1       8.685 -11.614  -4.093  0.00  0.00    -0.372 N 
ATOM      4  C   UNL     1       7.701 -12.513  -3.987  0.00  0.00    +0.166 C 
ATOM      5  H   UNL     1       5.818 -13.076  -4.486  0.00  0.00    +0.163 HD
ATOM      6  H   UNL     1       8.814 -13.767  -2.797  0.00  0.00    +0.159 HD
ATOM      7  H   UNL     1       7.217 -14.322  -3.129  0.00  0.00    +0.159 HD
ATOM      8  H   UNL     1       8.579 -10.765  -4.632  0.00  0.00    +0.159 HD
ATOM      9  H   UNL     1       9.582 -11.755  -3.647  0.00  0.00    +0.159 HD
ENDROOT
BRANCH   1  10
ATOM     10  C   UNL     1       6.144 -11.156  -5.350  0.00  0.00    +0.151 C 
BRANCH  10  11
ATOM     11  C   UNL     1       4.665 -10.918  -5.210  0.00  0.00    -0.028 A 
ATOM     12  C   UNL     1       3.769 -11.997  -5.193  0.00  0.00    +0.005 A 
ATOM     13  C   UNL     1       4.155  -9.617  -5.088  0.00  0.00    +0.005 A 
ATOM     14  C   UNL     1       2.399 -11.779  -5.033  0.00  0.00    +0.000 A 
ATOM     15  C   UNL     1       2.785  -9.403  -4.930  0.00  0.00    +0.000 A 
ATOM     16  C   UNL     1       1.908 -10.485  -4.900  0.00  0.00    +0.000 A 
ENDBRANCH  10  11
ENDBRANCH   1  10
TORSDOF 2
ENDMDL
