MODEL 1
REMARK VINA RESULT:    -4.590      0.000      0.000
REMARK INTER + INTRA:          -5.280
REMARK INTER:                  -5.127
REMARK INTRA:                  -0.153
REMARK UNBOUND:                -0.153
REMARK  Name = 1550473
REMARK  2 active torsions:
REMARK  status: ('A' for Active; 'I' for Inactive)
REMARK    1  A    between atoms: N_1  and  C_4
REMARK    2  A    between atoms: C_4  and  C_5
REMARK                            x       y       z     vdW  Elec       q    Type
REMARK                         _______ _______ _______ _____ _____    ______ ____
ROOT
ATOM      1  N   UNL     1       4.613   9.458  -6.314  0.00  0.00    -0.354 N 
ATOM      2  N   UNL     1       2.916   8.354  -7.440  0.00  0.00    -0.372 N 
ATOM      3  N   UNL     1       2.914  10.648  -7.404  0.00  0.00    -0.372 N 
ATOM      4  C   UNL     1       3.491   9.497  -7.045  0.00  0.00    +0.166 C 
ATOM      5  H   UNL     1       4.984   8.552  -6.049  0.00  0.00    +0.163 HD
ATOM      6  H   UNL     1       2.071   8.352  -7.995  0.00  0.00    +0.159 HD
ATOM      7  H   UNL     1       3.315   7.451  -7.213  0.00  0.00    +0.159 HD
ATOM      8  H   UNL     1       3.295  11.545  -7.133  0.00  0.00    +0.159 HD
ATOM      9  H   UNL     1       2.062  10.667  -7.950  0.00  0.00    +0.159 HD
ENDROOT
BRANCH   1  10
ATOM     10  C   UNL     1       5.347  10.645  -5.879  0.00  0.00    +0.151 C 
BRANCH  10  11
ATOM     11  C   UNL     1       6.721  10.623  -6.491  0.00  0.00    -0.028 A 
ATOM     12  C   UNL     1       7.783   9.983  -5.834  0.00  0.00    +0.005 A 
ATOM     13  C   UNL     1       6.967  11.236  -7.729  0.00  0.00    +0.005 A 
ATOM     14  C   UNL     1       9.052   9.937  -6.415  0.00  0.00    +0.000 A 
ATOM     15  C   UNL     1       8.236  11.189  -8.306  0.00  0.00    +0.000 A 
ATOM     16  C   UNL     1       9.277  10.537  -7.650  0.00  0.00    +0.000 A 
ENDBRANCH  10  11
ENDBRANCH   1  10
TORSDOF 2
ENDMDL
MODEL 2
REMARK VINA RESULT:    -4.547     32.703     33.646
REMARK INTER + INTRA:          -5.231
REMARK INTER:                  -5.095
REMARK INTRA:                  -0.136
REMARK UNBOUND:                -0.153
REMARK  Name = 1550473
REMARK  2 active torsions:
REMARK  status: ('A' for Active; 'I' for Inactive)
REMARK    1  A    between atoms: N_1  and  C_4
REMARK    2  A    between atoms: C_4  and  C_5
REMARK                            x       y       z     vdW  Elec       q    Type
REMARK                         _______ _______ _______ _____ _____    ______ ____
ROOT
ATOM      1  N   UNL     1     -20.860  -9.570 -11.027  0.00  0.00    -0.354 N 
ATOM      2  N   UNL     1     -20.508  -7.765 -12.434  0.00  0.00    -0.372 N 
ATOM      3  N   UNL     1     -20.557  -7.411 -10.168  0.00  0.00    -0.372 N 
ATOM      4  C   UNL     1     -20.644  -8.259 -11.198  0.00  0.00    +0.166 C 
ATOM      5  H   UNL     1     -20.946 -10.155 -11.850  0.00  0.00    +0.163 HD
ATOM      6  H   UNL     1     -20.341  -6.780 -12.594  0.00  0.00    +0.159 HD
ATOM      7  H   UNL     1     -20.549  -8.359 -13.253  0.00  0.00    +0.159 HD
ATOM      8  H   UNL     1     -20.656  -7.720  -9.210  0.00  0.00    +0.159 HD
ATOM      9  H   UNL     1     -20.402  -6.420 -10.308  0.00  0.00    +0.159 HD
ENDROOT
BRANCH   1  10
ATOM     10  C   UNL     1     -20.969 -10.217  -9.721  0.00  0.00    +0.151 C 
BRANCH  10  11
ATOM     11  C   UNL     1     -20.002 -11.368  -9.661  0.00  0.00    -0.028 A 
ATOM     12  C   UNL     1     -18.717 -11.248 -10.209  0.00  0.00    +0.005 A 
ATOM     13  C   UNL     1     -20.364 -12.579  -9.051  0.00  0.00    +0.005 A 
ATOM     14  C   UNL     1     -17.809 -12.306 -10.128  0.00  0.00    +0.000 A 
ATOM     15  C   UNL     1     -19.455 -13.634  -8.972  0.00  0.00    +0.000 A 
ATOM     16  C   UNL     1     -18.177 -13.496  -9.508  0.00  0.00    +0.000 A 
ENDBRANCH  10  11
ENDBRANCH   1  10
TORSDOF 2
ENDMDL
MODEL 3
REMARK VINA RESULT:    -4.480     34.255     35.601
REMARK INTER + INTRA:          -5.157
REMARK INTER:                  -5.014
REMARK INTRA:                  -0.143
REMARK UNBOUND:                -0.153
REMARK  Name = 1550473
REMARK  2 active torsions:
REMARK  status: ('A' for Active; 'I' for Inactive)
REMARK    1  A    between atoms: N_1  and  C_4
REMARK    2  A    between atoms: C_4  and  C_5
REMARK                            x       y       z     vdW  Elec       q    Type
REMARK                         _______ _______ _______ _____ _____    ______ ____
ROOT
ATOM      1  N   UNL     1     -23.467 -10.120 -11.813  0.00  0.00    -0.354 N 
ATOM      2  N   UNL     1     -25.565 -10.848 -12.470  0.00  0.00    -0.372 N 
ATOM      3  N   UNL     1     -23.809 -11.065 -13.931  0.00  0.00    -0.372 N 
ATOM      4  C   UNL     1     -24.265 -10.673 -12.736  0.00  0.00    +0.166 C 
ATOM      5  H   UNL     1     -23.880  -9.817 -10.939  0.00  0.00    +0.163 HD
ATOM      6  H   UNL     1     -26.191 -11.265 -13.146  0.00  0.00    +0.159 HD
ATOM      7  H   UNL     1     -25.966 -10.586 -11.578  0.00  0.00    +0.159 HD
ATOM      8  H   UNL     1     -22.839 -10.955 -14.195  0.00  0.00    +0.159 HD
ATOM      9  H   UNL     1     -24.422 -11.474 -14.624  0.00  0.00    +0.159 HD
ENDROOT
BRANCH   1  10
ATOM     10  C   UNL     1     -22.026  -9.935 -11.983  0.00  0.00    +0.151 C 
BRANCH  10  11
ATOM     11  C   UNL     1     -21.303 -10.698 -10.907  0.00  0.00    -0.028 A 
ATOM     12  C   UNL     1     -19.904 -10.789 -10.917  0.00  0.00    +0.005 A 
ATOM     13  C   UNL     1     -22.012 -11.326  -9.871  0.00  0.00    +0.005 A 
ATOM     14  C   UNL     1     -19.230 -11.471  -9.901  0.00  0.00    +0.000 A 
ATOM     15  C   UNL     1     -21.335 -12.008  -8.860  0.00  0.00    +0.000 A 
ATOM     16  C   UNL     1     -19.944 -12.078  -8.874  0.00  0.00    +0.000 A 
ENDBRANCH  10  11
ENDBRANCH   1  10
TORSDOF 2
ENDMDL
MODEL 4
REMARK VINA RESULT:    -4.413      3.494      4.976
REMARK INTER + INTRA:          -5.082
REMARK INTER:                  -4.912
REMARK INTRA:                  -0.171
REMARK UNBOUND:                -0.153
REMARK  Name = 1550473
REMARK  2 active torsions:
REMARK  status: ('A' for Active; 'I' for Inactive)
REMARK    1  A    between atoms: N_1  and  C_4
REMARK    2  A    between atoms: C_4  and  C_5
REMARK                            x       y       z     vdW  Elec       q    Type
REMARK                         _______ _______ _______ _____ _____    ______ ____
ROOT
ATOM      1  N   UNL     1       9.618   8.928  -8.155  0.00  0.00    -0.354 N 
ATOM      2  N   UNL     1      10.254   6.766  -7.622  0.00  0.00    -0.372 N 
ATOM      3  N   UNL     1      10.461   8.408  -6.032  0.00  0.00    -0.372 N 
ATOM      4  C   UNL     1      10.108   8.050  -7.271  0.00  0.00    +0.166 C 
ATOM      5  H   UNL     1       9.397   8.600  -9.088  0.00  0.00    +0.163 HD
ATOM      6  H   UNL     1      10.618   6.080  -6.975  0.00  0.00    +0.159 HD
ATOM      7  H   UNL     1       9.990   6.432  -8.540  0.00  0.00    +0.159 HD
ATOM      8  H   UNL     1      10.380   9.362  -5.706  0.00  0.00    +0.159 HD
ATOM      9  H   UNL     1      10.838   7.737  -5.373  0.00  0.00    +0.159 HD
ENDROOT
BRANCH   1  10
ATOM     10  C   UNL     1       9.368  10.337  -7.856  0.00  0.00    +0.151 C 
BRANCH  10  11
ATOM     11  C   UNL     1       7.925  10.509  -7.469  0.00  0.00    -0.028 A 
ATOM     12  C   UNL     1       6.930  10.597  -8.453  0.00  0.00    +0.005 A 
ATOM     13  C   UNL     1       7.546  10.580  -6.119  0.00  0.00    +0.005 A 
ATOM     14  C   UNL     1       5.586  10.727  -8.093  0.00  0.00    +0.000 A 
ATOM     15  C   UNL     1       6.204  10.710  -5.764  0.00  0.00    +0.000 A 
ATOM     16  C   UNL     1       5.224  10.781  -6.752  0.00  0.00    +0.000 A 
ENDBRANCH  10  11
ENDBRANCH   1  10
TORSDOF 2
ENDMDL
MODEL 5
REMARK VINA RESULT:    -4.352      3.110      4.302
REMARK INTER + INTRA:          -5.014
REMARK INTER:                  -4.884
REMARK INTRA:                  -0.129
REMARK UNBOUND:                -0.153
REMARK  Name = 1550473
REMARK  2 active torsions:
REMARK  status: ('A' for Active; 'I' for Inactive)
REMARK    1  A    between atoms: N_1  and  C_4
REMARK    2  A    between atoms: C_4  and  C_5
REMARK                            x       y       z     vdW  Elec       q    Type
REMARK                         _______ _______ _______ _____ _____    ______ ____
ROOT
ATOM      1  N   UNL     1       8.231   8.989  -6.190  0.00  0.00    -0.354 N 
ATOM      2  N   UNL     1       6.154   9.008  -5.166  0.00  0.00    -0.372 N 
ATOM      3  N   UNL     1       6.947  10.947  -6.101  0.00  0.00    -0.372 N 
ATOM      4  C   UNL     1       7.125   9.651  -5.826  0.00  0.00    +0.166 C 
ATOM      5  H   UNL     1       8.319   8.015  -5.925  0.00  0.00    +0.163 HD
ATOM      6  H   UNL     1       5.307   9.480  -4.881  0.00  0.00    +0.159 HD
ATOM      7  H   UNL     1       6.224   8.022  -4.943  0.00  0.00    +0.159 HD
ATOM      8  H   UNL     1       7.644  11.491  -6.592  0.00  0.00    +0.159 HD
ATOM      9  H   UNL     1       6.110  11.440  -5.814  0.00  0.00    +0.159 HD
ENDROOT
BRANCH   1  10
ATOM     10  C   UNL     1       9.323   9.583  -6.960  0.00  0.00    +0.151 C 
BRANCH  10  11
ATOM     11  C   UNL     1      10.041   8.497  -7.712  0.00  0.00    -0.028 A 
ATOM     12  C   UNL     1       9.608   7.166  -7.627  0.00  0.00    +0.005 A 
ATOM     13  C   UNL     1      11.152   8.794  -8.517  0.00  0.00    +0.005 A 
ATOM     14  C   UNL     1      10.257   6.161  -8.349  0.00  0.00    +0.000 A 
ATOM     15  C   UNL     1      11.798   7.788  -9.236  0.00  0.00    +0.000 A 
ATOM     16  C   UNL     1      11.348   6.472  -9.153  0.00  0.00    +0.000 A 
ENDBRANCH  10  11
ENDBRANCH   1  10
TORSDOF 2
ENDMDL
MODEL 6
REMARK VINA RESULT:    -4.351     24.623     25.609
REMARK INTER + INTRA:          -5.012
REMARK INTER:                  -4.888
REMARK INTRA:                  -0.124
REMARK UNBOUND:                -0.153
REMARK  Name = 1550473
REMARK  2 active torsions:
REMARK  status: ('A' for Active; 'I' for Inactive)
REMARK    1  A    between atoms: N_1  and  C_4
REMARK    2  A    between atoms: C_4  and  C_5
REMARK                            x       y       z     vdW  Elec       q    Type
REMARK                         _______ _______ _______ _____ _____    ______ ____
ROOT
ATOM      1  N   UNL     1      -7.567 -12.366  -6.304  0.00  0.00    -0.354 N 
ATOM      2  N   UNL     1      -8.620 -12.460  -4.243  0.00  0.00    -0.372 N 
ATOM      3  N   UNL     1      -9.816 -11.751  -6.068  0.00  0.00    -0.372 N 
ATOM      4  C   UNL     1      -8.663 -12.191  -5.554  0.00  0.00    +0.166 C 
ATOM      5  H   UNL     1      -6.716 -12.673  -5.849  0.00  0.00    +0.163 HD
ATOM      6  H   UNL     1      -9.431 -12.341  -3.652  0.00  0.00    +0.159 HD
ATOM      7  H   UNL     1      -7.780 -12.810  -3.799  0.00  0.00    +0.159 HD
ATOM      8  H   UNL     1      -9.913 -11.524  -7.049  0.00  0.00    +0.159 HD
ATOM      9  H   UNL     1     -10.636 -11.614  -5.491  0.00  0.00    +0.159 HD
ENDROOT
BRANCH   1  10
ATOM     10  C   UNL     1      -7.524 -12.153  -7.750  0.00  0.00    +0.151 C 
BRANCH  10  11
ATOM     11  C   UNL     1      -6.090 -12.021  -8.184  0.00  0.00    -0.028 A 
ATOM     12  C   UNL     1      -5.735 -12.197  -9.530  0.00  0.00    +0.005 A 
ATOM     13  C   UNL     1      -5.083 -11.715  -7.256  0.00  0.00    +0.005 A 
ATOM     14  C   UNL     1      -4.408 -12.045  -9.939  0.00  0.00    +0.000 A 
ATOM     15  C   UNL     1      -3.759 -11.565  -7.668  0.00  0.00    +0.000 A 
ATOM     16  C   UNL     1      -3.422 -11.728  -9.010  0.00  0.00    +0.000 A 
ENDBRANCH  10  11
ENDBRANCH   1  10
TORSDOF 2
ENDMDL
MODEL 7
REMARK VINA RESULT:    -4.317     15.051     16.385
REMARK INTER + INTRA:          -4.975
REMARK INTER:                  -4.850
REMARK INTRA:                  -0.125
REMARK UNBOUND:                -0.153
REMARK  Name = 1550473
REMARK  2 active torsions:
REMARK  status: ('A' for Active; 'I' for Inactive)
REMARK    1  A    between atoms: N_1  and  C_4
REMARK    2  A    between atoms: C_4  and  C_5
REMARK                            x       y       z     vdW  Elec       q    Type
REMARK                         _______ _______ _______ _____ _____    ______ ____
ROOT
ATOM      1  N   UNL     1      18.501  11.031   2.298  0.00  0.00    -0.354 N 
ATOM      2  N   UNL     1      18.017  12.897   1.014  0.00  0.00    -0.372 N 
ATOM      3  N   UNL     1      16.859  12.563   2.967  0.00  0.00    -0.372 N 
ATOM      4  C   UNL     1      17.793  12.152   2.104  0.00  0.00    +0.166 C 
ATOM      5  H   UNL     1      19.173  10.757   1.590  0.00  0.00    +0.163 HD
ATOM      6  H   UNL     1      17.501  13.750   0.843  0.00  0.00    +0.159 HD
ATOM      7  H   UNL     1      18.722  12.646   0.332  0.00  0.00    +0.159 HD
ATOM      8  H   UNL     1      16.638  12.042   3.805  0.00  0.00    +0.159 HD
ATOM      9  H   UNL     1      16.324  13.407   2.807  0.00  0.00    +0.159 HD
ENDROOT
BRANCH   1  10
ATOM     10  C   UNL     1      18.372  10.177   3.477  0.00  0.00    +0.151 C 
BRANCH  10  11
ATOM     11  C   UNL     1      19.056   8.864   3.210  0.00  0.00    -0.028 A 
ATOM     12  C   UNL     1      19.723   8.643   1.996  0.00  0.00    +0.005 A 
ATOM     13  C   UNL     1      19.044   7.839   4.169  0.00  0.00    +0.005 A 
ATOM     14  C   UNL     1      20.383   7.435   1.760  0.00  0.00    +0.000 A 
ATOM     15  C   UNL     1      19.704   6.634   3.928  0.00  0.00    +0.000 A 
ATOM     16  C   UNL     1      20.375   6.433   2.725  0.00  0.00    +0.000 A 
ENDBRANCH  10  11
ENDBRANCH   1  10
TORSDOF 2
ENDMDL
MODEL 8
REMARK VINA RESULT:    -4.291     31.464     33.201
REMARK INTER + INTRA:          -4.945
REMARK INTER:                  -4.830
REMARK INTRA:                  -0.115
REMARK UNBOUND:                -0.153
REMARK  Name = 1550473
REMARK  2 active torsions:
REMARK  status: ('A' for Active; 'I' for Inactive)
REMARK    1  A    between atoms: N_1  and  C_4
REMARK    2  A    between atoms: C_4  and  C_5
REMARK                            x       y       z     vdW  Elec       q    Type
REMARK                         _______ _______ _______ _____ _____    ______ ____
ROOT
ATOM      1  N   UNL     1     -10.945 -16.746  -2.407  0.00  0.00    -0.354 N 
ATOM      2  N   UNL     1      -9.285 -17.457  -0.958  0.00  0.00    -0.372 N 
ATOM      3  N   UNL     1      -8.700 -16.185  -2.775  0.00  0.00    -0.372 N 
ATOM      4  C   UNL     1      -9.653 -16.790  -2.058  0.00  0.00    +0.166 C 
ATOM      5  H   UNL     1     -11.615 -17.251  -1.838  0.00  0.00    +0.163 HD
ATOM      6  H   UNL     1      -8.317 -17.505  -0.668  0.00  0.00    +0.159 HD
ATOM      7  H   UNL     1      -9.962 -17.923  -0.366  0.00  0.00    +0.159 HD
ATOM      8  H   UNL     1      -8.911 -15.670  -3.619  0.00  0.00    +0.159 HD
ATOM      9  H   UNL     1      -7.725 -16.231  -2.507  0.00  0.00    +0.159 HD
ENDROOT
BRANCH   1  10
ATOM     10  C   UNL     1     -11.457 -16.002  -3.557  0.00  0.00    +0.151 C 
BRANCH  10  11
ATOM     11  C   UNL     1     -12.881 -16.411  -3.813  0.00  0.00    -0.028 A 
ATOM     12  C   UNL     1     -13.397 -16.417  -5.117  0.00  0.00    +0.005 A 
ATOM     13  C   UNL     1     -13.718 -16.800  -2.756  0.00  0.00    +0.005 A 
ATOM     14  C   UNL     1     -14.710 -16.827  -5.359  0.00  0.00    +0.000 A 
ATOM     15  C   UNL     1     -15.030 -17.207  -3.001  0.00  0.00    +0.000 A 
ATOM     16  C   UNL     1     -15.524 -17.223  -4.303  0.00  0.00    +0.000 A 
ENDBRANCH  10  11
ENDBRANCH   1  10
TORSDOF 2
ENDMDL
MODEL 9
REMARK VINA RESULT:    -4.266     34.750     36.527
REMARK INTER + INTRA:          -4.918
REMARK INTER:                  -4.746
REMARK INTRA:                  -0.172
REMARK UNBOUND:                -0.153
REMARK  Name = 1550473
REMARK  2 active torsions:
REMARK  status: ('A' for Active; 'I' for Inactive)
REMARK    1  A    between atoms: N_1  and  C_4
REMARK    2  A    between atoms: C_4  and  C_5
REMARK                            x       y       z     vdW  Elec       q    Type
REMARK                         _______ _______ _______ _____ _____    ______ ____
ROOT
ATOM      1  N   UNL     1     -24.709 -12.068 -11.447  0.00  0.00    -0.354 N 
ATOM      2  N   UNL     1     -26.113 -13.122  -9.937  0.00  0.00    -0.372 N 
ATOM      3  N   UNL     1     -24.152 -14.153 -10.534  0.00  0.00    -0.372 N 
ATOM      4  C   UNL     1     -24.980 -13.109 -10.649  0.00  0.00    +0.166 C 
ATOM      5  H   UNL     1     -25.392 -11.322 -11.514  0.00  0.00    +0.163 HD
ATOM      6  H   UNL     1     -26.342 -13.892  -9.323  0.00  0.00    +0.159 HD
ATOM      7  H   UNL     1     -26.772 -12.353  -9.970  0.00  0.00    +0.159 HD
ATOM      8  H   UNL     1     -23.283 -14.207 -11.050  0.00  0.00    +0.159 HD
ATOM      9  H   UNL     1     -24.370 -14.939  -9.934  0.00  0.00    +0.159 HD
ENDROOT
BRANCH   1  10
ATOM     10  C   UNL     1     -23.478 -11.932 -12.225  0.00  0.00    +0.151 C 
BRANCH  10  11
ATOM     11  C   UNL     1     -22.633 -10.845 -11.620  0.00  0.00    -0.028 A 
ATOM     12  C   UNL     1     -21.746 -11.132 -10.572  0.00  0.00    +0.005 A 
ATOM     13  C   UNL     1     -22.711  -9.526 -12.093  0.00  0.00    +0.005 A 
ATOM     14  C   UNL     1     -20.939 -10.129 -10.031  0.00  0.00    +0.000 A 
ATOM     15  C   UNL     1     -21.904  -8.527 -11.549  0.00  0.00    +0.000 A 
ATOM     16  C   UNL     1     -21.016  -8.829 -10.519  0.00  0.00    +0.000 A 
ENDBRANCH  10  11
ENDBRANCH   1  10
TORSDOF 2
ENDMDL
