MODEL 1
REMARK VINA RESULT:    -5.837      0.000      0.000
REMARK INTER + INTRA:          -6.680
REMARK INTER:                  -6.520
REMARK INTRA:                  -0.160
REMARK UNBOUND:                -0.160
REMARK  Name = 1550473
REMARK  2 active torsions:
REMARK  status: ('A' for Active; 'I' for Inactive)
REMARK    1  A    between atoms: N_1  and  C_4
REMARK    2  A    between atoms: C_4  and  C_5
REMARK                            x       y       z     vdW  Elec       q    Type
REMARK                         _______ _______ _______ _____ _____    ______ ____
ROOT
ATOM      1  N   UNL     1       5.742  -4.576   7.443  0.00  0.00    -0.354 N 
ATOM      2  N   UNL     1       4.339  -6.075   6.373  0.00  0.00    -0.372 N 
ATOM      3  N   UNL     1       6.549  -5.993   5.760  0.00  0.00    -0.372 N 
ATOM      4  C   UNL     1       5.555  -5.539   6.530  0.00  0.00    +0.166 C 
ATOM      5  H   UNL     1       4.942  -4.254   7.974  0.00  0.00    +0.163 HD
ATOM      6  H   UNL     1       4.168  -6.806   5.695  0.00  0.00    +0.159 HD
ATOM      7  H   UNL     1       3.550  -5.784   6.937  0.00  0.00    +0.159 HD
ATOM      8  H   UNL     1       7.488  -5.626   5.826  0.00  0.00    +0.159 HD
ATOM      9  H   UNL     1       6.395  -6.716   5.068  0.00  0.00    +0.159 HD
ENDROOT
BRANCH   1  10
ATOM     10  C   UNL     1       7.038  -3.963   7.731  0.00  0.00    +0.151 C 
BRANCH  10  11
ATOM     11  C   UNL     1       7.478  -4.369   9.110  0.00  0.00    -0.028 A 
ATOM     12  C   UNL     1       6.868  -3.813  10.244  0.00  0.00    +0.005 A 
ATOM     13  C   UNL     1       8.499  -5.314   9.290  0.00  0.00    +0.005 A 
ATOM     14  C   UNL     1       7.255  -4.212  11.526  0.00  0.00    +0.000 A 
ATOM     15  C   UNL     1       8.884  -5.709  10.571  0.00  0.00    +0.000 A 
ATOM     16  C   UNL     1       8.260  -5.160  11.689  0.00  0.00    +0.000 A 
ENDBRANCH  10  11
ENDBRANCH   1  10
TORSDOF 2
ENDMDL
MODEL 2
REMARK VINA RESULT:    -5.697      1.330      2.250
REMARK INTER + INTRA:          -6.523
REMARK INTER:                  -6.384
REMARK INTRA:                  -0.140
REMARK UNBOUND:                -0.160
REMARK  Name = 1550473
REMARK  2 active torsions:
REMARK  status: ('A' for Active; 'I' for Inactive)
REMARK    1  A    between atoms: N_1  and  C_4
REMARK    2  A    between atoms: C_4  and  C_5
REMARK                            x       y       z     vdW  Elec       q    Type
REMARK                         _______ _______ _______ _____ _____    ______ ____
ROOT
ATOM      1  N   UNL     1       5.472  -5.077   6.634  0.00  0.00    -0.354 N 
ATOM      2  N   UNL     1       3.275  -4.372   6.834  0.00  0.00    -0.372 N 
ATOM      3  N   UNL     1       3.892  -6.364   7.792  0.00  0.00    -0.372 N 
ATOM      4  C   UNL     1       4.227  -5.278   7.087  0.00  0.00    +0.166 C 
ATOM      5  H   UNL     1       5.654  -4.249   6.079  0.00  0.00    +0.163 HD
ATOM      6  H   UNL     1       2.328  -4.494   7.166  0.00  0.00    +0.159 HD
ATOM      7  H   UNL     1       3.471  -3.522   6.319  0.00  0.00    +0.159 HD
ATOM      8  H   UNL     1       4.563  -7.088   8.011  0.00  0.00    +0.159 HD
ATOM      9  H   UNL     1       2.946  -6.510   8.123  0.00  0.00    +0.159 HD
ENDROOT
BRANCH   1  10
ATOM     10  C   UNL     1       6.593  -5.977   6.899  0.00  0.00    +0.151 C 
BRANCH  10  11
ATOM     11  C   UNL     1       7.371  -5.458   8.077  0.00  0.00    -0.028 A 
ATOM     12  C   UNL     1       8.070  -6.340   8.913  0.00  0.00    +0.005 A 
ATOM     13  C   UNL     1       7.416  -4.084   8.360  0.00  0.00    +0.005 A 
ATOM     14  C   UNL     1       8.817  -5.856   9.990  0.00  0.00    +0.000 A 
ATOM     15  C   UNL     1       8.162  -3.604   9.436  0.00  0.00    +0.000 A 
ATOM     16  C   UNL     1       8.864  -4.490  10.249  0.00  0.00    +0.000 A 
ENDBRANCH  10  11
ENDBRANCH   1  10
TORSDOF 2
ENDMDL
MODEL 3
REMARK VINA RESULT:    -5.563      2.777      4.365
REMARK INTER + INTRA:          -6.373
REMARK INTER:                  -6.190
REMARK INTRA:                  -0.183
REMARK UNBOUND:                -0.160
REMARK  Name = 1550473
REMARK  2 active torsions:
REMARK  status: ('A' for Active; 'I' for Inactive)
REMARK    1  A    between atoms: N_1  and  C_4
REMARK    2  A    between atoms: C_4  and  C_5
REMARK                            x       y       z     vdW  Elec       q    Type
REMARK                         _______ _______ _______ _____ _____    ______ ____
ROOT
ATOM      1  N   UNL     1       6.857  -4.436  10.742  0.00  0.00    -0.354 N 
ATOM      2  N   UNL     1       4.957  -4.310  12.061  0.00  0.00    -0.372 N 
ATOM      3  N   UNL     1       5.212  -2.817  10.337  0.00  0.00    -0.372 N 
ATOM      4  C   UNL     1       5.687  -3.853  11.036  0.00  0.00    +0.166 C 
ATOM      5  H   UNL     1       7.176  -5.198  11.329  0.00  0.00    +0.163 HD
ATOM      6  H   UNL     1       4.069  -3.892  12.304  0.00  0.00    +0.159 HD
ATOM      7  H   UNL     1       5.257  -5.101  12.617  0.00  0.00    +0.159 HD
ATOM      8  H   UNL     1       5.717  -2.421   9.556  0.00  0.00    +0.159 HD
ATOM      9  H   UNL     1       4.331  -2.377  10.573  0.00  0.00    +0.159 HD
ENDROOT
BRANCH   1  10
ATOM     10  C   UNL     1       7.702  -4.049   9.614  0.00  0.00    +0.151 C 
BRANCH  10  11
ATOM     11  C   UNL     1       7.448  -4.987   8.466  0.00  0.00    -0.028 A 
ATOM     12  C   UNL     1       7.968  -6.289   8.482  0.00  0.00    +0.005 A 
ATOM     13  C   UNL     1       6.684  -4.581   7.361  0.00  0.00    +0.005 A 
ATOM     14  C   UNL     1       7.708  -7.171   7.430  0.00  0.00    +0.000 A 
ATOM     15  C   UNL     1       6.427  -5.463   6.312  0.00  0.00    +0.000 A 
ATOM     16  C   UNL     1       6.937  -6.759   6.348  0.00  0.00    +0.000 A 
ENDBRANCH  10  11
ENDBRANCH   1  10
TORSDOF 2
ENDMDL
MODEL 4
REMARK VINA RESULT:    -5.435     23.277     25.384
REMARK INTER + INTRA:          -6.231
REMARK INTER:                  -6.108
REMARK INTRA:                  -0.124
REMARK UNBOUND:                -0.160
REMARK  Name = 1550473
REMARK  2 active torsions:
REMARK  status: ('A' for Active; 'I' for Inactive)
REMARK    1  A    between atoms: N_1  and  C_4
REMARK    2  A    between atoms: C_4  and  C_5
REMARK                            x       y       z     vdW  Elec       q    Type
REMARK                         _______ _______ _______ _____ _____    ______ ____
ROOT
ATOM      1  N   UNL     1      -3.603   7.289  -8.866  0.00  0.00    -0.354 N 
ATOM      2  N   UNL     1      -2.000   6.091  -7.701  0.00  0.00    -0.372 N 
ATOM      3  N   UNL     1      -1.379   8.022  -8.774  0.00  0.00    -0.372 N 
ATOM      4  C   UNL     1      -2.336   7.144  -8.456  0.00  0.00    +0.166 C 
ATOM      5  H   UNL     1      -4.275   6.573  -8.616  0.00  0.00    +0.163 HD
ATOM      6  H   UNL     1      -1.052   5.957  -7.374  0.00  0.00    +0.159 HD
ATOM      7  H   UNL     1      -2.683   5.401  -7.415  0.00  0.00    +0.159 HD
ATOM      8  H   UNL     1      -1.567   8.835  -9.345  0.00  0.00    +0.159 HD
ATOM      9  H   UNL     1      -0.423   7.899  -8.466  0.00  0.00    +0.159 HD
ENDROOT
BRANCH   1  10
ATOM     10  C   UNL     1      -4.085   8.428  -9.646  0.00  0.00    +0.151 C 
BRANCH  10  11
ATOM     11  C   UNL     1      -5.527   8.684  -9.303  0.00  0.00    -0.028 A 
ATOM     12  C   UNL     1      -6.099   9.944  -9.528  0.00  0.00    +0.005 A 
ATOM     13  C   UNL     1      -6.327   7.668  -8.757  0.00  0.00    +0.005 A 
ATOM     14  C   UNL     1      -7.447  10.174  -9.238  0.00  0.00    +0.000 A 
ATOM     15  C   UNL     1      -7.671   7.902  -8.468  0.00  0.00    +0.000 A 
ATOM     16  C   UNL     1      -8.231   9.154  -8.711  0.00  0.00    +0.000 A 
ENDBRANCH  10  11
ENDBRANCH   1  10
TORSDOF 2
ENDMDL
MODEL 5
REMARK VINA RESULT:    -5.378      2.879      3.708
REMARK INTER + INTRA:          -6.167
REMARK INTER:                  -6.075
REMARK INTRA:                  -0.092
REMARK UNBOUND:                -0.160
REMARK  Name = 1550473
REMARK  2 active torsions:
REMARK  status: ('A' for Active; 'I' for Inactive)
REMARK    1  A    between atoms: N_1  and  C_4
REMARK    2  A    between atoms: C_4  and  C_5
REMARK                            x       y       z     vdW  Elec       q    Type
REMARK                         _______ _______ _______ _____ _____    ______ ____
ROOT
ATOM      1  N   UNL     1       5.232  -2.155  10.034  0.00  0.00    -0.354 N 
ATOM      2  N   UNL     1       4.347  -0.017   9.928  0.00  0.00    -0.372 N 
ATOM      3  N   UNL     1       3.149  -1.758   9.036  0.00  0.00    -0.372 N 
ATOM      4  C   UNL     1       4.247  -1.325   9.665  0.00  0.00    +0.166 C 
ATOM      5  H   UNL     1       6.052  -1.760  10.480  0.00  0.00    +0.163 HD
ATOM      6  H   UNL     1       3.618   0.633   9.666  0.00  0.00    +0.159 HD
ATOM      7  H   UNL     1       5.147   0.368  10.416  0.00  0.00    +0.159 HD
ATOM      8  H   UNL     1       3.015  -2.733   8.803  0.00  0.00    +0.159 HD
ATOM      9  H   UNL     1       2.414  -1.122   8.755  0.00  0.00    +0.159 HD
ENDROOT
BRANCH   1  10
ATOM     10  C   UNL     1       5.196  -3.604   9.842  0.00  0.00    +0.151 C 
BRANCH  10  11
ATOM     11  C   UNL     1       6.550  -4.175  10.161  0.00  0.00    -0.028 A 
ATOM     12  C   UNL     1       6.833  -4.663  11.445  0.00  0.00    +0.005 A 
ATOM     13  C   UNL     1       7.553  -4.237   9.181  0.00  0.00    +0.005 A 
ATOM     14  C   UNL     1       8.080  -5.221  11.733  0.00  0.00    +0.000 A 
ATOM     15  C   UNL     1       8.797  -4.795   9.473  0.00  0.00    +0.000 A 
ATOM     16  C   UNL     1       9.060  -5.289  10.748  0.00  0.00    +0.000 A 
ENDBRANCH  10  11
ENDBRANCH   1  10
TORSDOF 2
ENDMDL
MODEL 6
REMARK VINA RESULT:    -5.353      1.525      2.078
REMARK INTER + INTRA:          -6.139
REMARK INTER:                  -5.970
REMARK INTRA:                  -0.169
REMARK UNBOUND:                -0.160
REMARK  Name = 1550473
REMARK  2 active torsions:
REMARK  status: ('A' for Active; 'I' for Inactive)
REMARK    1  A    between atoms: N_1  and  C_4
REMARK    2  A    between atoms: C_4  and  C_5
REMARK                            x       y       z     vdW  Elec       q    Type
REMARK                         _______ _______ _______ _____ _____    ______ ____
ROOT
ATOM      1  N   UNL     1       5.119  -6.569   8.268  0.00  0.00    -0.354 N 
ATOM      2  N   UNL     1       4.329  -6.752   6.098  0.00  0.00    -0.372 N 
ATOM      3  N   UNL     1       3.651  -4.973   7.379  0.00  0.00    -0.372 N 
ATOM      4  C   UNL     1       4.370  -6.095   7.264  0.00  0.00    +0.166 C 
ATOM      5  H   UNL     1       5.617  -7.440   8.127  0.00  0.00    +0.163 HD
ATOM      6  H   UNL     1       3.775  -6.417   5.322  0.00  0.00    +0.159 HD
ATOM      7  H   UNL     1       4.864  -7.598   5.945  0.00  0.00    +0.159 HD
ATOM      8  H   UNL     1       3.634  -4.433   8.234  0.00  0.00    +0.159 HD
ATOM      9  H   UNL     1       3.081  -4.628   6.617  0.00  0.00    +0.159 HD
ENDROOT
BRANCH   1  10
ATOM     10  C   UNL     1       5.275  -5.900   9.558  0.00  0.00    +0.151 C 
BRANCH  10  11
ATOM     11  C   UNL     1       6.685  -5.393   9.682  0.00  0.00    -0.028 A 
ATOM     12  C   UNL     1       7.055  -4.169   9.106  0.00  0.00    +0.005 A 
ATOM     13  C   UNL     1       7.655  -6.130  10.379  0.00  0.00    +0.005 A 
ATOM     14  C   UNL     1       8.357  -3.684   9.246  0.00  0.00    +0.000 A 
ATOM     15  C   UNL     1       8.955  -5.642  10.516  0.00  0.00    +0.000 A 
ATOM     16  C   UNL     1       9.305  -4.418   9.952  0.00  0.00    +0.000 A 
ENDBRANCH  10  11
ENDBRANCH   1  10
TORSDOF 2
ENDMDL
MODEL 7
REMARK VINA RESULT:    -5.268     13.505     14.748
REMARK INTER + INTRA:          -6.045
REMARK INTER:                  -5.937
REMARK INTRA:                  -0.107
REMARK UNBOUND:                -0.160
REMARK  Name = 1550473
REMARK  2 active torsions:
REMARK  status: ('A' for Active; 'I' for Inactive)
REMARK    1  A    between atoms: N_1  and  C_4
REMARK    2  A    between atoms: C_4  and  C_5
REMARK                            x       y       z     vdW  Elec       q    Type
REMARK                         _______ _______ _______ _____ _____    ______ ____
ROOT
ATOM      1  N   UNL     1       8.357   4.747  -2.211  0.00  0.00    -0.354 N 
ATOM      2  N   UNL     1       8.963   6.978  -2.352  0.00  0.00    -0.372 N 
ATOM      3  N   UNL     1       7.877   6.240  -0.470  0.00  0.00    -0.372 N 
ATOM      4  C   UNL     1       8.394   5.974  -1.674  0.00  0.00    +0.166 C 
ATOM      5  H   UNL     1       8.739   4.617  -3.140  0.00  0.00    +0.163 HD
ATOM      6  H   UNL     1       9.009   7.913  -1.971  0.00  0.00    +0.159 HD
ATOM      7  H   UNL     1       9.385   6.835  -3.261  0.00  0.00    +0.159 HD
ATOM      8  H   UNL     1       7.428   5.528   0.090  0.00  0.00    +0.159 HD
ATOM      9  H   UNL     1       7.903   7.173  -0.076  0.00  0.00    +0.159 HD
ENDROOT
BRANCH   1  10
ATOM     10  C   UNL     1       7.808   3.574  -1.533  0.00  0.00    +0.151 C 
BRANCH  10  11
ATOM     11  C   UNL     1       7.745   2.429  -2.506  0.00  0.00    -0.028 A 
ATOM     12  C   UNL     1       7.116   2.586  -3.749  0.00  0.00    +0.005 A 
ATOM     13  C   UNL     1       8.317   1.187  -2.192  0.00  0.00    +0.005 A 
ATOM     14  C   UNL     1       7.083   1.531  -4.666  0.00  0.00    +0.000 A 
ATOM     15  C   UNL     1       8.282   0.137  -3.109  0.00  0.00    +0.000 A 
ATOM     16  C   UNL     1       7.667   0.310  -4.347  0.00  0.00    +0.000 A 
ENDBRANCH  10  11
ENDBRANCH   1  10
TORSDOF 2
ENDMDL
MODEL 8
REMARK VINA RESULT:    -5.260     23.442     24.988
REMARK INTER + INTRA:          -6.036
REMARK INTER:                  -5.942
REMARK INTRA:                  -0.094
REMARK UNBOUND:                -0.160
REMARK  Name = 1550473
REMARK  2 active torsions:
REMARK  status: ('A' for Active; 'I' for Inactive)
REMARK    1  A    between atoms: N_1  and  C_4
REMARK    2  A    between atoms: C_4  and  C_5
REMARK                            x       y       z     vdW  Elec       q    Type
REMARK                         _______ _______ _______ _____ _____    ______ ____
ROOT
ATOM      1  N   UNL     1     -13.472 -17.503  -1.434  0.00  0.00    -0.354 N 
ATOM      2  N   UNL     1     -15.205 -19.020  -1.684  0.00  0.00    -0.372 N 
ATOM      3  N   UNL     1     -15.691 -16.883  -1.004  0.00  0.00    -0.372 N 
ATOM      4  C   UNL     1     -14.779 -17.790  -1.371  0.00  0.00    +0.166 C 
ATOM      5  H   UNL     1     -12.829 -18.243  -1.691  0.00  0.00    +0.163 HD
ATOM      6  H   UNL     1     -16.185 -19.264  -1.649  0.00  0.00    +0.159 HD
ATOM      7  H   UNL     1     -14.565 -19.745  -1.984  0.00  0.00    +0.159 HD
ATOM      8  H   UNL     1     -15.434 -15.938  -0.750  0.00  0.00    +0.159 HD
ATOM      9  H   UNL     1     -16.675 -17.112  -0.951  0.00  0.00    +0.159 HD
ENDROOT
BRANCH   1  10
ATOM     10  C   UNL     1     -12.911 -16.180  -1.167  0.00  0.00    +0.151 C 
BRANCH  10  11
ATOM     11  C   UNL     1     -11.527 -16.106  -1.750  0.00  0.00    -0.028 A 
ATOM     12  C   UNL     1     -10.416 -16.525  -1.004  0.00  0.00    +0.005 A 
ATOM     13  C   UNL     1     -11.321 -15.623  -3.051  0.00  0.00    +0.005 A 
ATOM     14  C   UNL     1      -9.134 -16.485  -1.557  0.00  0.00    +0.000 A 
ATOM     15  C   UNL     1     -10.039 -15.583  -3.599  0.00  0.00    +0.000 A 
ATOM     16  C   UNL     1      -8.946 -16.017  -2.853  0.00  0.00    +0.000 A 
ENDBRANCH  10  11
ENDBRANCH   1  10
TORSDOF 2
ENDMDL
MODEL 9
REMARK VINA RESULT:    -5.161      2.470      3.578
REMARK INTER + INTRA:          -5.924
REMARK INTER:                  -5.751
REMARK INTRA:                  -0.174
REMARK UNBOUND:                -0.160
REMARK  Name = 1550473
REMARK  2 active torsions:
REMARK  status: ('A' for Active; 'I' for Inactive)
REMARK    1  A    between atoms: N_1  and  C_4
REMARK    2  A    between atoms: C_4  and  C_5
REMARK                            x       y       z     vdW  Elec       q    Type
REMARK                         _______ _______ _______ _____ _____    ______ ____
ROOT
ATOM      1  N   UNL     1       6.520  -7.020   6.359  0.00  0.00    -0.354 N 
ATOM      2  N   UNL     1       6.932  -9.091   7.311  0.00  0.00    -0.372 N 
ATOM      3  N   UNL     1       8.441  -7.395   7.649  0.00  0.00    -0.372 N 
ATOM      4  C   UNL     1       7.297  -7.820   7.101  0.00  0.00    +0.166 C 
ATOM      5  H   UNL     1       5.681  -7.411   5.947  0.00  0.00    +0.163 HD
ATOM      6  H   UNL     1       7.497  -9.718   7.869  0.00  0.00    +0.159 HD
ATOM      7  H   UNL     1       6.070  -9.467   6.935  0.00  0.00    +0.159 HD
ATOM      8  H   UNL     1       8.775  -6.449   7.523  0.00  0.00    +0.159 HD
ATOM      9  H   UNL     1       9.025  -8.011   8.201  0.00  0.00    +0.159 HD
ENDROOT
BRANCH   1  10
ATOM     10  C   UNL     1       6.800  -5.606   6.115  0.00  0.00    +0.151 C 
BRANCH  10  11
ATOM     11  C   UNL     1       6.092  -4.779   7.152  0.00  0.00    -0.028 A 
ATOM     12  C   UNL     1       6.812  -3.906   7.981  0.00  0.00    +0.005 A 
ATOM     13  C   UNL     1       4.699  -4.859   7.307  0.00  0.00    +0.005 A 
ATOM     14  C   UNL     1       6.151  -3.116   8.924  0.00  0.00    +0.000 A 
ATOM     15  C   UNL     1       4.043  -4.068   8.251  0.00  0.00    +0.000 A 
ATOM     16  C   UNL     1       4.769  -3.195   9.057  0.00  0.00    +0.000 A 
ENDBRANCH  10  11
ENDBRANCH   1  10
TORSDOF 2
ENDMDL
