MODEL 1
REMARK VINA RESULT:    -5.544      0.000      0.000
REMARK INTER + INTRA:          -6.305
REMARK INTER:                  -6.192
REMARK INTRA:                  -0.113
REMARK UNBOUND:                -0.113
REMARK  Name = 1550473
REMARK  2 active torsions:
REMARK  status: ('A' for Active; 'I' for Inactive)
REMARK    1  A    between atoms: N_1  and  C_4
REMARK    2  A    between atoms: C_4  and  C_5
REMARK                            x       y       z     vdW  Elec       q    Type
REMARK                         _______ _______ _______ _____ _____    ______ ____
ROOT
ATOM      1  N   UNL     1       6.310   7.182  15.873  0.00  0.00    -0.354 N 
ATOM      2  N   UNL     1       8.014   5.739  16.487  0.00  0.00    -0.372 N 
ATOM      3  N   UNL     1       5.855   4.962  16.468  0.00  0.00    -0.372 N 
ATOM      4  C   UNL     1       6.713   5.969  16.272  0.00  0.00    +0.166 C 
ATOM      5  H   UNL     1       7.007   7.911  15.771  0.00  0.00    +0.163 HD
ATOM      6  H   UNL     1       8.348   4.832  16.785  0.00  0.00    +0.159 HD
ATOM      7  H   UNL     1       8.713   6.457  16.340  0.00  0.00    +0.159 HD
ATOM      8  H   UNL     1       4.859   5.072  16.330  0.00  0.00    +0.159 HD
ATOM      9  H   UNL     1       6.169   4.051  16.779  0.00  0.00    +0.159 HD
ENDROOT
BRANCH   1  10
ATOM     10  C   UNL     1       4.923   7.521  15.560  0.00  0.00    +0.151 C 
BRANCH  10  11
ATOM     11  C   UNL     1       4.849   8.971  15.165  0.00  0.00    -0.028 A 
ATOM     12  C   UNL     1       5.879   9.558  14.417  0.00  0.00    +0.005 A 
ATOM     13  C   UNL     1       3.747   9.760  15.531  0.00  0.00    +0.005 A 
ATOM     14  C   UNL     1       5.796  10.896  14.025  0.00  0.00    +0.000 A 
ATOM     15  C   UNL     1       3.669  11.096  15.138  0.00  0.00    +0.000 A 
ATOM     16  C   UNL     1       4.692  11.663  14.383  0.00  0.00    +0.000 A 
ENDBRANCH  10  11
ENDBRANCH   1  10
TORSDOF 2
ENDMDL
MODEL 2
REMARK VINA RESULT:    -5.416     19.897     20.972
REMARK INTER + INTRA:          -6.162
REMARK INTER:                  -6.062
REMARK INTRA:                  -0.099
REMARK UNBOUND:                -0.113
REMARK  Name = 1550473
REMARK  2 active torsions:
REMARK  status: ('A' for Active; 'I' for Inactive)
REMARK    1  A    between atoms: N_1  and  C_4
REMARK    2  A    between atoms: C_4  and  C_5
REMARK                            x       y       z     vdW  Elec       q    Type
REMARK                         _______ _______ _______ _____ _____    ______ ____
ROOT
ATOM      1  N   UNL     1     -14.234   8.712   9.780  0.00  0.00    -0.354 N 
ATOM      2  N   UNL     1     -15.682   9.310  11.485  0.00  0.00    -0.372 N 
ATOM      3  N   UNL     1     -14.000   7.814  11.932  0.00  0.00    -0.372 N 
ATOM      4  C   UNL     1     -14.628   8.606  11.056  0.00  0.00    +0.166 C 
ATOM      5  H   UNL     1     -14.770   9.307   9.158  0.00  0.00    +0.163 HD
ATOM      6  H   UNL     1     -16.001   9.253  12.443  0.00  0.00    +0.159 HD
ATOM      7  H   UNL     1     -16.189   9.938  10.873  0.00  0.00    +0.159 HD
ATOM      8  H   UNL     1     -13.202   7.253  11.669  0.00  0.00    +0.159 HD
ATOM      9  H   UNL     1     -14.311   7.735  12.892  0.00  0.00    +0.159 HD
ENDROOT
BRANCH   1  10
ATOM     10  C   UNL     1     -13.066   8.030   9.225  0.00  0.00    +0.151 C 
BRANCH  10  11
ATOM     11  C   UNL     1     -13.454   6.632   8.831  0.00  0.00    -0.028 A 
ATOM     12  C   UNL     1     -14.576   6.406   8.021  0.00  0.00    +0.005 A 
ATOM     13  C   UNL     1     -12.701   5.529   9.261  0.00  0.00    +0.005 A 
ATOM     14  C   UNL     1     -14.920   5.110   7.630  0.00  0.00    +0.000 A 
ATOM     15  C   UNL     1     -13.048   4.236   8.870  0.00  0.00    +0.000 A 
ATOM     16  C   UNL     1     -14.156   4.027   8.052  0.00  0.00    +0.000 A 
ENDBRANCH  10  11
ENDBRANCH   1  10
TORSDOF 2
ENDMDL
MODEL 3
REMARK VINA RESULT:    -5.361      4.004      5.328
REMARK INTER + INTRA:          -6.101
REMARK INTER:                  -5.963
REMARK INTRA:                  -0.138
REMARK UNBOUND:                -0.113
REMARK  Name = 1550473
REMARK  2 active torsions:
REMARK  status: ('A' for Active; 'I' for Inactive)
REMARK    1  A    between atoms: N_1  and  C_4
REMARK    2  A    between atoms: C_4  and  C_5
REMARK                            x       y       z     vdW  Elec       q    Type
REMARK                         _______ _______ _______ _____ _____    ______ ____
ROOT
ATOM      1  N   UNL     1       6.189  12.327  12.947  0.00  0.00    -0.354 N 
ATOM      2  N   UNL     1       8.122  12.801  11.763  0.00  0.00    -0.372 N 
ATOM      3  N   UNL     1       7.738  13.895  13.743  0.00  0.00    -0.372 N 
ATOM      4  C   UNL     1       7.337  13.006  12.827  0.00  0.00    +0.166 C 
ATOM      5  H   UNL     1       5.927  11.689  12.203  0.00  0.00    +0.163 HD
ATOM      6  H   UNL     1       8.996  13.297  11.647  0.00  0.00    +0.159 HD
ATOM      7  H   UNL     1       7.881  12.130  11.044  0.00  0.00    +0.159 HD
ATOM      8  H   UNL     1       7.188  14.100  14.566  0.00  0.00    +0.159 HD
ATOM      9  H   UNL     1       8.603  14.410  13.639  0.00  0.00    +0.159 HD
ENDROOT
BRANCH   1  10
ATOM     10  C   UNL     1       5.289  12.437  14.093  0.00  0.00    +0.151 C 
BRANCH  10  11
ATOM     11  C   UNL     1       4.888  11.057  14.537  0.00  0.00    -0.028 A 
ATOM     12  C   UNL     1       5.764   9.974  14.375  0.00  0.00    +0.005 A 
ATOM     13  C   UNL     1       3.634  10.827  15.124  0.00  0.00    +0.005 A 
ATOM     14  C   UNL     1       5.403   8.698  14.815  0.00  0.00    +0.000 A 
ATOM     15  C   UNL     1       3.277   9.551  15.561  0.00  0.00    +0.000 A 
ATOM     16  C   UNL     1       4.163   8.487  15.408  0.00  0.00    +0.000 A 
ENDBRANCH  10  11
ENDBRANCH   1  10
TORSDOF 2
ENDMDL
MODEL 4
REMARK VINA RESULT:    -5.097     18.252     19.472
REMARK INTER + INTRA:          -5.806
REMARK INTER:                  -5.657
REMARK INTRA:                  -0.149
REMARK UNBOUND:                -0.113
REMARK  Name = 1550473
REMARK  2 active torsions:
REMARK  status: ('A' for Active; 'I' for Inactive)
REMARK    1  A    between atoms: N_1  and  C_4
REMARK    2  A    between atoms: C_4  and  C_5
REMARK                            x       y       z     vdW  Elec       q    Type
REMARK                         _______ _______ _______ _____ _____    ______ ____
ROOT
ATOM      1  N   UNL     1      -9.417  -2.080  17.274  0.00  0.00    -0.354 N 
ATOM      2  N   UNL     1      -7.127  -1.744  17.344  0.00  0.00    -0.372 N 
ATOM      3  N   UNL     1      -8.520   0.042  17.706  0.00  0.00    -0.372 N 
ATOM      4  C   UNL     1      -8.371  -1.260  17.441  0.00  0.00    +0.166 C 
ATOM      5  H   UNL     1      -9.237  -3.051  17.046  0.00  0.00    +0.163 HD
ATOM      6  H   UNL     1      -6.317  -1.151  17.469  0.00  0.00    +0.159 HD
ATOM      7  H   UNL     1      -6.949  -2.725  17.161  0.00  0.00    +0.159 HD
ATOM      8  H   UNL     1      -9.433   0.470  17.787  0.00  0.00    +0.159 HD
ATOM      9  H   UNL     1      -7.723   0.654  17.823  0.00  0.00    +0.159 HD
ENDROOT
BRANCH   1  10
ATOM     10  C   UNL     1     -10.812  -1.664  17.413  0.00  0.00    +0.151 C 
BRANCH  10  11
ATOM     11  C   UNL     1     -11.535  -1.931  16.122  0.00  0.00    -0.028 A 
ATOM     12  C   UNL     1     -12.692  -2.723  16.104  0.00  0.00    +0.005 A 
ATOM     13  C   UNL     1     -11.071  -1.389  14.913  0.00  0.00    +0.005 A 
ATOM     14  C   UNL     1     -13.381  -2.946  14.910  0.00  0.00    +0.000 A 
ATOM     15  C   UNL     1     -11.761  -1.615  13.722  0.00  0.00    +0.000 A 
ATOM     16  C   UNL     1     -12.917  -2.392  13.721  0.00  0.00    +0.000 A 
ENDBRANCH  10  11
ENDBRANCH   1  10
TORSDOF 2
ENDMDL
MODEL 5
REMARK VINA RESULT:    -5.083     15.760     16.673
REMARK INTER + INTRA:          -5.790
REMARK INTER:                  -5.831
REMARK INTRA:                   0.041
REMARK UNBOUND:                -0.113
REMARK  Name = 1550473
REMARK  2 active torsions:
REMARK  status: ('A' for Active; 'I' for Inactive)
REMARK    1  A    between atoms: N_1  and  C_4
REMARK    2  A    between atoms: C_4  and  C_5
REMARK                            x       y       z     vdW  Elec       q    Type
REMARK                         _______ _______ _______ _____ _____    ______ ____
ROOT
ATOM      1  N   UNL     1       7.775  -8.140  14.488  0.00  0.00    -0.354 N 
ATOM      2  N   UNL     1       8.921  -6.129  14.577  0.00  0.00    -0.372 N 
ATOM      3  N   UNL     1       7.508  -6.524  12.812  0.00  0.00    -0.372 N 
ATOM      4  C   UNL     1       8.060  -6.944  13.956  0.00  0.00    +0.166 C 
ATOM      5  H   UNL     1       8.250  -8.412  15.342  0.00  0.00    +0.163 HD
ATOM      6  H   UNL     1       9.152  -5.219  14.201  0.00  0.00    +0.159 HD
ATOM      7  H   UNL     1       9.359  -6.385  15.454  0.00  0.00    +0.159 HD
ATOM      8  H   UNL     1       6.855  -7.094  12.292  0.00  0.00    +0.159 HD
ATOM      9  H   UNL     1       7.736  -5.621  12.414  0.00  0.00    +0.159 HD
ENDROOT
BRANCH   1  10
ATOM     10  C   UNL     1       6.811  -9.080  13.920  0.00  0.00    +0.151 C 
BRANCH  10  11
ATOM     11  C   UNL     1       5.419  -8.593  14.216  0.00  0.00    -0.028 A 
ATOM     12  C   UNL     1       4.408  -8.696  13.249  0.00  0.00    +0.005 A 
ATOM     13  C   UNL     1       5.103  -8.034  15.463  0.00  0.00    +0.005 A 
ATOM     14  C   UNL     1       3.108  -8.272  13.534  0.00  0.00    +0.000 A 
ATOM     15  C   UNL     1       3.803  -7.611  15.744  0.00  0.00    +0.000 A 
ATOM     16  C   UNL     1       2.806  -7.733  14.779  0.00  0.00    +0.000 A 
ENDBRANCH  10  11
ENDBRANCH   1  10
TORSDOF 2
ENDMDL
MODEL 6
REMARK VINA RESULT:    -4.955     11.081     11.896
REMARK INTER + INTRA:          -5.647
REMARK INTER:                  -5.481
REMARK INTRA:                  -0.166
REMARK UNBOUND:                -0.113
REMARK  Name = 1550473
REMARK  2 active torsions:
REMARK  status: ('A' for Active; 'I' for Inactive)
REMARK    1  A    between atoms: N_1  and  C_4
REMARK    2  A    between atoms: C_4  and  C_5
REMARK                            x       y       z     vdW  Elec       q    Type
REMARK                         _______ _______ _______ _____ _____    ______ ____
ROOT
ATOM      1  N   UNL     1       0.800   7.059  24.790  0.00  0.00    -0.354 N 
ATOM      2  N   UNL     1      -0.155   5.079  25.520  0.00  0.00    -0.372 N 
ATOM      3  N   UNL     1      -1.368   7.020  25.678  0.00  0.00    -0.372 N 
ATOM      4  C   UNL     1      -0.237   6.401  25.325  0.00  0.00    +0.166 C 
ATOM      5  H   UNL     1       1.641   6.536  24.571  0.00  0.00    +0.163 HD
ATOM      6  H   UNL     1      -0.922   4.555  25.919  0.00  0.00    +0.159 HD
ATOM      7  H   UNL     1       0.669   4.552  25.258  0.00  0.00    +0.159 HD
ATOM      8  H   UNL     1      -1.491   8.017  25.563  0.00  0.00    +0.159 HD
ATOM      9  H   UNL     1      -2.143   6.515  26.090  0.00  0.00    +0.159 HD
ENDROOT
BRANCH   1  10
ATOM     10  C   UNL     1       0.792   8.489  24.487  0.00  0.00    +0.151 C 
BRANCH  10  11
ATOM     11  C   UNL     1       1.434   9.235  25.624  0.00  0.00    -0.028 A 
ATOM     12  C   UNL     1       0.854  10.411  26.122  0.00  0.00    +0.005 A 
ATOM     13  C   UNL     1       2.620   8.768  26.212  0.00  0.00    +0.005 A 
ATOM     14  C   UNL     1       1.433  11.088  27.198  0.00  0.00    +0.000 A 
ATOM     15  C   UNL     1       3.195   9.447  27.286  0.00  0.00    +0.000 A 
ATOM     16  C   UNL     1       2.601  10.605  27.780  0.00  0.00    +0.000 A 
ENDBRANCH  10  11
ENDBRANCH   1  10
TORSDOF 2
ENDMDL
MODEL 7
REMARK VINA RESULT:    -4.891     19.460     20.539
REMARK INTER + INTRA:          -5.576
REMARK INTER:                  -5.472
REMARK INTRA:                  -0.103
REMARK UNBOUND:                -0.113
REMARK  Name = 1550473
REMARK  2 active torsions:
REMARK  status: ('A' for Active; 'I' for Inactive)
REMARK    1  A    between atoms: N_1  and  C_4
REMARK    2  A    between atoms: C_4  and  C_5
REMARK                            x       y       z     vdW  Elec       q    Type
REMARK                         _______ _______ _______ _____ _____    ______ ____
ROOT
ATOM      1  N   UNL     1     -13.143   8.297  10.480  0.00  0.00    -0.354 N 
ATOM      2  N   UNL     1     -12.925   9.476  12.461  0.00  0.00    -0.372 N 
ATOM      3  N   UNL     1     -13.242  10.639  10.509  0.00  0.00    -0.372 N 
ATOM      4  C   UNL     1     -13.105   9.465  11.135  0.00  0.00    +0.166 C 
ATOM      5  H   UNL     1     -13.002   7.444  11.008  0.00  0.00    +0.163 HD
ATOM      6  H   UNL     1     -12.896  10.341  12.983  0.00  0.00    +0.159 HD
ATOM      7  H   UNL     1     -12.831   8.619  12.993  0.00  0.00    +0.159 HD
ATOM      8  H   UNL     1     -13.375  10.699   9.508  0.00  0.00    +0.159 HD
ATOM      9  H   UNL     1     -13.204  11.516  11.012  0.00  0.00    +0.159 HD
ENDROOT
BRANCH   1  10
ATOM     10  C   UNL     1     -13.387   8.173   9.044  0.00  0.00    +0.151 C 
BRANCH  10  11
ATOM     11  C   UNL     1     -13.680   6.735   8.718  0.00  0.00    -0.028 A 
ATOM     12  C   UNL     1     -12.809   5.718   9.135  0.00  0.00    +0.005 A 
ATOM     13  C   UNL     1     -14.831   6.381   7.996  0.00  0.00    +0.005 A 
ATOM     14  C   UNL     1     -13.096   4.379   8.859  0.00  0.00    +0.000 A 
ATOM     15  C   UNL     1     -15.113   5.043   7.721  0.00  0.00    +0.000 A 
ATOM     16  C   UNL     1     -14.247   4.042   8.155  0.00  0.00    +0.000 A 
ENDBRANCH  10  11
ENDBRANCH   1  10
TORSDOF 2
ENDMDL
MODEL 8
REMARK VINA RESULT:    -4.885      2.435      3.958
REMARK INTER + INTRA:          -5.570
REMARK INTER:                  -5.452
REMARK INTRA:                  -0.117
REMARK UNBOUND:                -0.113
REMARK  Name = 1550473
REMARK  2 active torsions:
REMARK  status: ('A' for Active; 'I' for Inactive)
REMARK    1  A    between atoms: N_1  and  C_4
REMARK    2  A    between atoms: C_4  and  C_5
REMARK                            x       y       z     vdW  Elec       q    Type
REMARK                         _______ _______ _______ _____ _____    ______ ____
ROOT
ATOM      1  N   UNL     1       5.058  10.149  14.826  0.00  0.00    -0.354 N 
ATOM      2  N   UNL     1       5.484   7.887  15.088  0.00  0.00    -0.372 N 
ATOM      3  N   UNL     1       3.367   8.671  15.497  0.00  0.00    -0.372 N 
ATOM      4  C   UNL     1       4.631   8.917  15.136  0.00  0.00    +0.166 C 
ATOM      5  H   UNL     1       6.035  10.274  14.590  0.00  0.00    +0.163 HD
ATOM      6  H   UNL     1       5.190   6.946  15.313  0.00  0.00    +0.159 HD
ATOM      7  H   UNL     1       6.450   8.008  14.807  0.00  0.00    +0.159 HD
ATOM      8  H   UNL     1       2.675   9.406  15.558  0.00  0.00    +0.159 HD
ATOM      9  H   UNL     1       3.056   7.738  15.737  0.00  0.00    +0.159 HD
ENDROOT
BRANCH   1  10
ATOM     10  C   UNL     1       4.196  11.329  14.795  0.00  0.00    +0.151 C 
BRANCH  10  11
ATOM     11  C   UNL     1       4.786  12.344  13.855  0.00  0.00    -0.028 A 
ATOM     12  C   UNL     1       3.957  13.226  13.148  0.00  0.00    +0.005 A 
ATOM     13  C   UNL     1       6.175  12.431  13.671  0.00  0.00    +0.005 A 
ATOM     14  C   UNL     1       4.507  14.189  12.298  0.00  0.00    +0.000 A 
ATOM     15  C   UNL     1       6.720  13.393  12.821  0.00  0.00    +0.000 A 
ATOM     16  C   UNL     1       5.885  14.273  12.136  0.00  0.00    +0.000 A 
ENDBRANCH  10  11
ENDBRANCH   1  10
TORSDOF 2
ENDMDL
MODEL 9
REMARK VINA RESULT:    -4.873     16.204     18.030
REMARK INTER + INTRA:          -5.555
REMARK INTER:                  -5.439
REMARK INTRA:                  -0.117
REMARK UNBOUND:                -0.113
REMARK  Name = 1550473
REMARK  2 active torsions:
REMARK  status: ('A' for Active; 'I' for Inactive)
REMARK    1  A    between atoms: N_1  and  C_4
REMARK    2  A    between atoms: C_4  and  C_5
REMARK                            x       y       z     vdW  Elec       q    Type
REMARK                         _______ _______ _______ _____ _____    ______ ____
ROOT
ATOM      1  N   UNL     1       5.951 -10.886  15.151  0.00  0.00    -0.354 N 
ATOM      2  N   UNL     1       4.941 -12.822  15.922  0.00  0.00    -0.372 N 
ATOM      3  N   UNL     1       5.156 -12.509  13.659  0.00  0.00    -0.372 N 
ATOM      4  C   UNL     1       5.356 -12.060  14.903  0.00  0.00    +0.166 C 
ATOM      5  H   UNL     1       6.045 -10.589  16.116  0.00  0.00    +0.163 HD
ATOM      6  H   UNL     1       4.491 -13.714  15.766  0.00  0.00    +0.159 HD
ATOM      7  H   UNL     1       5.077 -12.543  16.886  0.00  0.00    +0.159 HD
ATOM      8  H   UNL     1       5.441 -11.979  12.847  0.00  0.00    +0.159 HD
ATOM      9  H   UNL     1       4.698 -13.394  13.482  0.00  0.00    +0.159 HD
ENDROOT
BRANCH   1  10
ATOM     10  C   UNL     1       6.488 -10.006  14.115  0.00  0.00    +0.151 C 
BRANCH  10  11
ATOM     11  C   UNL     1       5.686  -8.735  14.086  0.00  0.00    -0.028 A 
ATOM     12  C   UNL     1       4.284  -8.777  14.074  0.00  0.00    +0.005 A 
ATOM     13  C   UNL     1       6.322  -7.484  14.076  0.00  0.00    +0.005 A 
ATOM     14  C   UNL     1       3.538  -7.596  14.078  0.00  0.00    +0.000 A 
ATOM     15  C   UNL     1       5.573  -6.307  14.079  0.00  0.00    +0.000 A 
ATOM     16  C   UNL     1       4.182  -6.363  14.082  0.00  0.00    +0.000 A 
ENDBRANCH  10  11
ENDBRANCH   1  10
TORSDOF 2
ENDMDL
