MODEL 1
REMARK VINA RESULT:    -4.412      0.000      0.000
REMARK INTER + INTRA:          -5.051
REMARK INTER:                  -4.927
REMARK INTRA:                  -0.124
REMARK UNBOUND:                -0.124
REMARK  Name = 1550473
REMARK  2 active torsions:
REMARK  status: ('A' for Active; 'I' for Inactive)
REMARK    1  A    between atoms: N_1  and  C_4
REMARK    2  A    between atoms: C_4  and  C_5
REMARK                            x       y       z     vdW  Elec       q    Type
REMARK                         _______ _______ _______ _____ _____    ______ ____
ROOT
ATOM      1  N   UNL     1       7.621  -0.320   0.638  0.00  0.00    -0.354 N 
ATOM      2  N   UNL     1       7.616  -0.030  -1.660  0.00  0.00    -0.372 N 
ATOM      3  N   UNL     1       9.344   0.852  -0.435  0.00  0.00    -0.372 N 
ATOM      4  C   UNL     1       8.196   0.167  -0.470  0.00  0.00    +0.166 C 
ATOM      5  H   UNL     1       6.735  -0.804   0.547  0.00  0.00    +0.163 HD
ATOM      6  H   UNL     1       8.029   0.322  -2.514  0.00  0.00    +0.159 HD
ATOM      7  H   UNL     1       6.755  -0.554  -1.753  0.00  0.00    +0.159 HD
ATOM      8  H   UNL     1       9.829   1.040   0.433  0.00  0.00    +0.159 HD
ATOM      9  H   UNL     1       9.766   1.223  -1.277  0.00  0.00    +0.159 HD
ENDROOT
BRANCH   1  10
ATOM     10  C   UNL     1       8.198  -0.207   1.976  0.00  0.00    +0.151 C 
BRANCH  10  11
ATOM     11  C   UNL     1       7.725  -1.362   2.814  0.00  0.00    -0.028 A 
ATOM     12  C   UNL     1       6.547  -2.048   2.482  0.00  0.00    +0.005 A 
ATOM     13  C   UNL     1       8.452  -1.780   3.939  0.00  0.00    +0.005 A 
ATOM     14  C   UNL     1       6.123  -3.140   3.243  0.00  0.00    +0.000 A 
ATOM     15  C   UNL     1       8.025  -2.870   4.697  0.00  0.00    +0.000 A 
ATOM     16  C   UNL     1       6.862  -3.552   4.347  0.00  0.00    +0.000 A 
ENDBRANCH  10  11
ENDBRANCH   1  10
TORSDOF 2
ENDMDL
MODEL 2
REMARK VINA RESULT:    -4.035     15.449     16.650
REMARK INTER + INTRA:          -4.630
REMARK INTER:                  -4.492
REMARK INTRA:                  -0.138
REMARK UNBOUND:                -0.124
REMARK  Name = 1550473
REMARK  2 active torsions:
REMARK  status: ('A' for Active; 'I' for Inactive)
REMARK    1  A    between atoms: N_1  and  C_4
REMARK    2  A    between atoms: C_4  and  C_5
REMARK                            x       y       z     vdW  Elec       q    Type
REMARK                         _______ _______ _______ _____ _____    ______ ____
ROOT
ATOM      1  N   UNL     1       0.272 -10.682  -7.163  0.00  0.00    -0.354 N 
ATOM      2  N   UNL     1       1.068  -9.774  -5.186  0.00  0.00    -0.372 N 
ATOM      3  N   UNL     1       2.505 -10.974  -6.513  0.00  0.00    -0.372 N 
ATOM      4  C   UNL     1       1.278 -10.484  -6.301  0.00  0.00    +0.166 C 
ATOM      5  H   UNL     1      -0.642 -10.310  -6.930  0.00  0.00    +0.163 HD
ATOM      6  H   UNL     1       1.809  -9.605  -4.519  0.00  0.00    +0.159 HD
ATOM      7  H   UNL     1       0.165  -9.365  -4.978  0.00  0.00    +0.159 HD
ATOM      8  H   UNL     1       2.728 -11.523  -7.333  0.00  0.00    +0.159 HD
ATOM      9  H   UNL     1       3.256 -10.826  -5.852  0.00  0.00    +0.159 HD
ENDROOT
BRANCH   1  10
ATOM     10  C   UNL     1       0.410 -11.394  -8.432  0.00  0.00    +0.151 C 
BRANCH  10  11
ATOM     11  C   UNL     1      -0.295 -10.619  -9.510  0.00  0.00    -0.028 A 
ATOM     12  C   UNL     1      -1.118  -9.531  -9.183  0.00  0.00    +0.005 A 
ATOM     13  C   UNL     1      -0.140 -10.963 -10.862  0.00  0.00    +0.005 A 
ATOM     14  C   UNL     1      -1.749  -8.791 -10.186  0.00  0.00    +0.000 A 
ATOM     15  C   UNL     1      -0.773 -10.223 -11.860  0.00  0.00    +0.000 A 
ATOM     16  C   UNL     1      -1.575  -9.136 -11.522  0.00  0.00    +0.000 A 
ENDBRANCH  10  11
ENDBRANCH   1  10
TORSDOF 2
ENDMDL
MODEL 3
REMARK VINA RESULT:    -4.028     32.861     34.028
REMARK INTER + INTRA:          -4.623
REMARK INTER:                  -4.510
REMARK INTRA:                  -0.112
REMARK UNBOUND:                -0.124
REMARK  Name = 1550473
REMARK  2 active torsions:
REMARK  status: ('A' for Active; 'I' for Inactive)
REMARK    1  A    between atoms: N_1  and  C_4
REMARK    2  A    between atoms: C_4  and  C_5
REMARK                            x       y       z     vdW  Elec       q    Type
REMARK                         _______ _______ _______ _____ _____    ______ ____
ROOT
ATOM      1  N   UNL     1      26.428  15.202  26.212  0.00  0.00    -0.354 N 
ATOM      2  N   UNL     1      28.142  13.743  26.759  0.00  0.00    -0.372 N 
ATOM      3  N   UNL     1      28.605  15.546  25.417  0.00  0.00    -0.372 N 
ATOM      4  C   UNL     1      27.715  14.841  26.124  0.00  0.00    +0.166 C 
ATOM      5  H   UNL     1      25.797  14.608  26.739  0.00  0.00    +0.163 HD
ATOM      6  H   UNL     1      29.108  13.448  26.713  0.00  0.00    +0.159 HD
ATOM      7  H   UNL     1      27.519  13.177  27.322  0.00  0.00    +0.159 HD
ATOM      8  H   UNL     1      28.345  16.381  24.910  0.00  0.00    +0.159 HD
ATOM      9  H   UNL     1      29.574  15.260  25.349  0.00  0.00    +0.159 HD
ENDROOT
BRANCH   1  10
ATOM     10  C   UNL     1      25.873  16.409  25.604  0.00  0.00    +0.151 C 
BRANCH  10  11
ATOM     11  C   UNL     1      24.397  16.216  25.386  0.00  0.00    -0.028 A 
ATOM     12  C   UNL     1      23.614  15.566  26.351  0.00  0.00    +0.005 A 
ATOM     13  C   UNL     1      23.775  16.686  24.219  0.00  0.00    +0.005 A 
ATOM     14  C   UNL     1      22.239  15.413  26.163  0.00  0.00    +0.000 A 
ATOM     15  C   UNL     1      22.401  16.530  24.034  0.00  0.00    +0.000 A 
ATOM     16  C   UNL     1      21.633  15.896  25.008  0.00  0.00    +0.000 A 
ENDBRANCH  10  11
ENDBRANCH   1  10
TORSDOF 2
ENDMDL
MODEL 4
REMARK VINA RESULT:    -3.992     10.802     12.125
REMARK INTER + INTRA:          -4.582
REMARK INTER:                  -4.454
REMARK INTRA:                  -0.128
REMARK UNBOUND:                -0.124
REMARK  Name = 1550473
REMARK  2 active torsions:
REMARK  status: ('A' for Active; 'I' for Inactive)
REMARK    1  A    between atoms: N_1  and  C_4
REMARK    2  A    between atoms: C_4  and  C_5
REMARK                            x       y       z     vdW  Elec       q    Type
REMARK                         _______ _______ _______ _____ _____    ______ ____
ROOT
ATOM      1  N   UNL     1       6.464  -6.440  -9.569  0.00  0.00    -0.354 N 
ATOM      2  N   UNL     1       5.959  -5.029 -11.335  0.00  0.00    -0.372 N 
ATOM      3  N   UNL     1       6.054  -7.290 -11.715  0.00  0.00    -0.372 N 
ATOM      4  C   UNL     1       6.162  -6.265 -10.863  0.00  0.00    +0.166 C 
ATOM      5  H   UNL     1       6.561  -5.619  -8.982  0.00  0.00    +0.163 HD
ATOM      6  H   UNL     1       5.727  -4.866 -12.306  0.00  0.00    +0.159 HD
ATOM      7  H   UNL     1       6.011  -4.214 -10.736  0.00  0.00    +0.159 HD
ATOM      8  H   UNL     1       6.202  -8.247 -11.422  0.00  0.00    +0.159 HD
ATOM      9  H   UNL     1       5.835  -7.146 -12.692  0.00  0.00    +0.159 HD
ENDROOT
BRANCH   1  10
ATOM     10  C   UNL     1       6.651  -7.747  -8.943  0.00  0.00    +0.151 C 
BRANCH  10  11
ATOM     11  C   UNL     1       7.602  -7.606  -7.786  0.00  0.00    -0.028 A 
ATOM     12  C   UNL     1       7.552  -8.505  -6.710  0.00  0.00    +0.005 A 
ATOM     13  C   UNL     1       8.558  -6.579  -7.762  0.00  0.00    +0.005 A 
ATOM     14  C   UNL     1       8.454  -8.392  -5.650  0.00  0.00    +0.000 A 
ATOM     15  C   UNL     1       9.456  -6.470  -6.701  0.00  0.00    +0.000 A 
ATOM     16  C   UNL     1       9.405  -7.377  -5.646  0.00  0.00    +0.000 A 
ENDBRANCH  10  11
ENDBRANCH   1  10
TORSDOF 2
ENDMDL
MODEL 5
REMARK VINA RESULT:    -3.978      5.919      7.531
REMARK INTER + INTRA:          -4.567
REMARK INTER:                  -4.471
REMARK INTRA:                  -0.096
REMARK UNBOUND:                -0.124
REMARK  Name = 1550473
REMARK  2 active torsions:
REMARK  status: ('A' for Active; 'I' for Inactive)
REMARK    1  A    between atoms: N_1  and  C_4
REMARK    2  A    between atoms: C_4  and  C_5
REMARK                            x       y       z     vdW  Elec       q    Type
REMARK                         _______ _______ _______ _____ _____    ______ ____
ROOT
ATOM      1  N   UNL     1       3.625  -5.005   6.864  0.00  0.00    -0.354 N 
ATOM      2  N   UNL     1       1.608  -6.140   6.787  0.00  0.00    -0.372 N 
ATOM      3  N   UNL     1       1.700  -4.112   7.857  0.00  0.00    -0.372 N 
ATOM      4  C   UNL     1       2.323  -5.076   7.171  0.00  0.00    +0.166 C 
ATOM      5  H   UNL     1       4.046  -5.783   6.368  0.00  0.00    +0.163 HD
ATOM      6  H   UNL     1       0.623  -6.220   7.001  0.00  0.00    +0.159 HD
ATOM      7  H   UNL     1       2.020  -6.894   6.251  0.00  0.00    +0.159 HD
ATOM      8  H   UNL     1       2.185  -3.286   8.181  0.00  0.00    +0.159 HD
ATOM      9  H   UNL     1       0.717  -4.180   8.091  0.00  0.00    +0.159 HD
ENDROOT
BRANCH   1  10
ATOM     10  C   UNL     1       4.481  -3.866   7.189  0.00  0.00    +0.151 C 
BRANCH  10  11
ATOM     11  C   UNL     1       5.710  -3.911   6.323  0.00  0.00    -0.028 A 
ATOM     12  C   UNL     1       6.897  -4.484   6.802  0.00  0.00    +0.005 A 
ATOM     13  C   UNL     1       5.692  -3.389   5.021  0.00  0.00    +0.005 A 
ATOM     14  C   UNL     1       8.030  -4.554   5.987  0.00  0.00    +0.000 A 
ATOM     15  C   UNL     1       6.825  -3.459   4.211  0.00  0.00    +0.000 A 
ATOM     16  C   UNL     1       7.993  -4.044   4.694  0.00  0.00    +0.000 A 
ENDBRANCH  10  11
ENDBRANCH   1  10
TORSDOF 2
ENDMDL
MODEL 6
REMARK VINA RESULT:    -3.950     10.842     12.568
REMARK INTER + INTRA:          -4.535
REMARK INTER:                  -4.380
REMARK INTRA:                  -0.155
REMARK UNBOUND:                -0.124
REMARK  Name = 1550473
REMARK  2 active torsions:
REMARK  status: ('A' for Active; 'I' for Inactive)
REMARK    1  A    between atoms: N_1  and  C_4
REMARK    2  A    between atoms: C_4  and  C_5
REMARK                            x       y       z     vdW  Elec       q    Type
REMARK                         _______ _______ _______ _____ _____    ______ ____
ROOT
ATOM      1  N   UNL     1       7.166  -8.638  -6.280  0.00  0.00    -0.354 N 
ATOM      2  N   UNL     1       7.772  -7.897  -4.171  0.00  0.00    -0.372 N 
ATOM      3  N   UNL     1       9.408  -8.638  -5.599  0.00  0.00    -0.372 N 
ATOM      4  C   UNL     1       8.114  -8.397  -5.365  0.00  0.00    +0.166 C 
ATOM      5  H   UNL     1       6.200  -8.461  -6.030  0.00  0.00    +0.163 HD
ATOM      6  H   UNL     1       8.466  -7.701  -3.462  0.00  0.00    +0.159 HD
ATOM      7  H   UNL     1       6.811  -7.678  -3.941  0.00  0.00    +0.159 HD
ATOM      8  H   UNL     1       9.731  -9.021  -6.478  0.00  0.00    +0.159 HD
ATOM      9  H   UNL     1      10.116  -8.460  -4.898  0.00  0.00    +0.159 HD
ENDROOT
BRANCH   1  10
ATOM     10  C   UNL     1       7.438  -9.131  -7.629  0.00  0.00    +0.151 C 
BRANCH  10  11
ATOM     11  C   UNL     1       7.402  -7.975  -8.591  0.00  0.00    -0.028 A 
ATOM     12  C   UNL     1       6.226  -7.670  -9.293  0.00  0.00    +0.005 A 
ATOM     13  C   UNL     1       8.537  -7.178  -8.801  0.00  0.00    +0.005 A 
ATOM     14  C   UNL     1       6.183  -6.579 -10.164  0.00  0.00    +0.000 A 
ATOM     15  C   UNL     1       8.491  -6.090  -9.672  0.00  0.00    +0.000 A 
ATOM     16  C   UNL     1       7.313  -5.789 -10.352  0.00  0.00    +0.000 A 
ENDBRANCH  10  11
ENDBRANCH   1  10
TORSDOF 2
ENDMDL
MODEL 7
REMARK VINA RESULT:    -3.914     11.843     13.470
REMARK INTER + INTRA:          -4.496
REMARK INTER:                  -4.362
REMARK INTRA:                  -0.134
REMARK UNBOUND:                -0.124
REMARK  Name = 1550473
REMARK  2 active torsions:
REMARK  status: ('A' for Active; 'I' for Inactive)
REMARK    1  A    between atoms: N_1  and  C_4
REMARK    2  A    between atoms: C_4  and  C_5
REMARK                            x       y       z     vdW  Elec       q    Type
REMARK                         _______ _______ _______ _____ _____    ______ ____
ROOT
ATOM      1  N   UNL     1       7.556  -8.516  -8.170  0.00  0.00    -0.354 N 
ATOM      2  N   UNL     1       6.314 -10.235  -7.238  0.00  0.00    -0.372 N 
ATOM      3  N   UNL     1       6.961  -8.483  -5.904  0.00  0.00    -0.372 N 
ATOM      4  C   UNL     1       6.952  -9.065  -7.108  0.00  0.00    +0.166 C 
ATOM      5  H   UNL     1       7.539  -9.022  -9.048  0.00  0.00    +0.163 HD
ATOM      6  H   UNL     1       5.847 -10.672  -6.455  0.00  0.00    +0.159 HD
ATOM      7  H   UNL     1       6.260 -10.716  -8.127  0.00  0.00    +0.159 HD
ATOM      8  H   UNL     1       7.430  -7.603  -5.738  0.00  0.00    +0.159 HD
ATOM      9  H   UNL     1       6.509  -8.911  -5.105  0.00  0.00    +0.159 HD
ENDROOT
BRANCH   1  10
ATOM     10  C   UNL     1       8.232  -7.220  -8.147  0.00  0.00    +0.151 C 
BRANCH  10  11
ATOM     11  C   UNL     1       7.871  -6.456  -9.392  0.00  0.00    -0.028 A 
ATOM     12  C   UNL     1       8.860  -5.790 -10.130  0.00  0.00    +0.005 A 
ATOM     13  C   UNL     1       6.543  -6.400  -9.841  0.00  0.00    +0.005 A 
ATOM     14  C   UNL     1       8.531  -5.105 -11.302  0.00  0.00    +0.000 A 
ATOM     15  C   UNL     1       6.218  -5.715 -11.011  0.00  0.00    +0.000 A 
ATOM     16  C   UNL     1       7.212  -5.070 -11.743  0.00  0.00    +0.000 A 
ENDBRANCH  10  11
ENDBRANCH   1  10
TORSDOF 2
ENDMDL
MODEL 8
REMARK VINA RESULT:    -3.865     10.755     12.718
REMARK INTER + INTRA:          -4.441
REMARK INTER:                  -4.307
REMARK INTRA:                  -0.134
REMARK UNBOUND:                -0.124
REMARK  Name = 1550473
REMARK  2 active torsions:
REMARK  status: ('A' for Active; 'I' for Inactive)
REMARK    1  A    between atoms: N_1  and  C_4
REMARK    2  A    between atoms: C_4  and  C_5
REMARK                            x       y       z     vdW  Elec       q    Type
REMARK                         _______ _______ _______ _____ _____    ______ ____
ROOT
ATOM      1  N   UNL     1       8.126  -7.000  -6.723  0.00  0.00    -0.354 N 
ATOM      2  N   UNL     1       7.914  -8.277  -4.803  0.00  0.00    -0.372 N 
ATOM      3  N   UNL     1      10.002  -7.959  -5.698  0.00  0.00    -0.372 N 
ATOM      4  C   UNL     1       8.685  -7.737  -5.755  0.00  0.00    +0.166 C 
ATOM      5  H   UNL     1       7.118  -6.894  -6.727  0.00  0.00    +0.163 HD
ATOM      6  H   UNL     1       8.308  -8.835  -4.058  0.00  0.00    +0.159 HD
ATOM      7  H   UNL     1       6.912  -8.132  -4.783  0.00  0.00    +0.159 HD
ATOM      8  H   UNL     1      10.638  -7.584  -6.390  0.00  0.00    +0.159 HD
ATOM      9  H   UNL     1      10.414  -8.524  -4.967  0.00  0.00    +0.159 HD
ENDROOT
BRANCH   1  10
ATOM     10  C   UNL     1       8.882  -6.323  -7.776  0.00  0.00    +0.151 C 
BRANCH  10  11
ATOM     11  C   UNL     1       8.084  -6.352  -9.050  0.00  0.00    -0.028 A 
ATOM     12  C   UNL     1       8.603  -5.792 -10.227  0.00  0.00    +0.005 A 
ATOM     13  C   UNL     1       6.812  -6.943  -9.088  0.00  0.00    +0.005 A 
ATOM     14  C   UNL     1       7.875  -5.846 -11.418  0.00  0.00    +0.000 A 
ATOM     15  C   UNL     1       6.088  -6.993 -10.280  0.00  0.00    +0.000 A 
ATOM     16  C   UNL     1       6.621  -6.447 -11.445  0.00  0.00    +0.000 A 
ENDBRANCH  10  11
ENDBRANCH   1  10
TORSDOF 2
ENDMDL
MODEL 9
REMARK VINA RESULT:    -3.650      4.651      6.113
REMARK INTER + INTRA:          -4.201
REMARK INTER:                  -4.052
REMARK INTRA:                  -0.148
REMARK UNBOUND:                -0.124
REMARK  Name = 1550473
REMARK  2 active torsions:
REMARK  status: ('A' for Active; 'I' for Inactive)
REMARK    1  A    between atoms: N_1  and  C_4
REMARK    2  A    between atoms: C_4  and  C_5
REMARK                            x       y       z     vdW  Elec       q    Type
REMARK                         _______ _______ _______ _____ _____    ______ ____
ROOT
ATOM      1  N   UNL     1       7.504  -4.701   6.393  0.00  0.00    -0.354 N 
ATOM      2  N   UNL     1       5.854  -5.292   7.907  0.00  0.00    -0.372 N 
ATOM      3  N   UNL     1       7.009  -3.336   8.233  0.00  0.00    -0.372 N 
ATOM      4  C   UNL     1       6.801  -4.437   7.502  0.00  0.00    +0.166 C 
ATOM      5  H   UNL     1       7.318  -5.568   5.901  0.00  0.00    +0.163 HD
ATOM      6  H   UNL     1       5.305  -5.117   8.738  0.00  0.00    +0.159 HD
ATOM      7  H   UNL     1       5.639  -6.134   7.388  0.00  0.00    +0.159 HD
ATOM      8  H   UNL     1       7.713  -2.654   7.984  0.00  0.00    +0.159 HD
ATOM      9  H   UNL     1       6.478  -3.150   9.074  0.00  0.00    +0.159 HD
ENDROOT
BRANCH   1  10
ATOM     10  C   UNL     1       8.520  -3.809   5.837  0.00  0.00    +0.151 C 
BRANCH  10  11
ATOM     11  C   UNL     1       7.926  -3.047   4.684  0.00  0.00    -0.028 A 
ATOM     12  C   UNL     1       6.867  -3.589   3.942  0.00  0.00    +0.005 A 
ATOM     13  C   UNL     1       8.416  -1.780   4.333  0.00  0.00    +0.005 A 
ATOM     14  C   UNL     1       6.296  -2.869   2.891  0.00  0.00    +0.000 A 
ATOM     15  C   UNL     1       7.843  -1.064   3.281  0.00  0.00    +0.000 A 
ATOM     16  C   UNL     1       6.782  -1.608   2.562  0.00  0.00    +0.000 A 
ENDBRANCH  10  11
ENDBRANCH   1  10
TORSDOF 2
ENDMDL
