MODEL 1
REMARK VINA RESULT:    -4.474      0.000      0.000
REMARK INTER + INTRA:          -5.108
REMARK INTER:                  -4.997
REMARK INTRA:                  -0.111
REMARK UNBOUND:                -0.111
REMARK  Name = 1550473
REMARK  2 active torsions:
REMARK  status: ('A' for Active; 'I' for Inactive)
REMARK    1  A    between atoms: N_1  and  C_4
REMARK    2  A    between atoms: C_4  and  C_5
REMARK                            x       y       z     vdW  Elec       q    Type
REMARK                         _______ _______ _______ _____ _____    ______ ____
ROOT
ATOM      1  N   UNL     1       2.278 -11.243  -8.237  0.00  0.00    -0.354 N 
ATOM      2  N   UNL     1       1.314 -11.916  -6.241  0.00  0.00    -0.372 N 
ATOM      3  N   UNL     1       3.438 -12.624  -6.740  0.00  0.00    -0.372 N 
ATOM      4  C   UNL     1       2.352 -11.925  -7.086  0.00  0.00    +0.166 C 
ATOM      5  H   UNL     1       1.415 -10.758  -8.454  0.00  0.00    +0.163 HD
ATOM      6  H   UNL     1       1.342 -12.418  -5.364  0.00  0.00    +0.159 HD
ATOM      7  H   UNL     1       0.470 -11.392  -6.440  0.00  0.00    +0.159 HD
ATOM      8  H   UNL     1       4.254 -12.676  -7.336  0.00  0.00    +0.159 HD
ATOM      9  H   UNL     1       3.481 -13.142  -5.872  0.00  0.00    +0.159 HD
ENDROOT
BRANCH   1  10
ATOM     10  C   UNL     1       3.373 -11.145  -9.201  0.00  0.00    +0.151 C 
BRANCH  10  11
ATOM     11  C   UNL     1       3.492  -9.719  -9.665  0.00  0.00    -0.028 A 
ATOM     12  C   UNL     1       2.524  -9.164 -10.515  0.00  0.00    +0.005 A 
ATOM     13  C   UNL     1       4.567  -8.917  -9.254  0.00  0.00    +0.005 A 
ATOM     14  C   UNL     1       2.617  -7.831 -10.922  0.00  0.00    +0.000 A 
ATOM     15  C   UNL     1       4.657  -7.586  -9.663  0.00  0.00    +0.000 A 
ATOM     16  C   UNL     1       3.681  -7.043 -10.495  0.00  0.00    +0.000 A 
ENDBRANCH  10  11
ENDBRANCH   1  10
TORSDOF 2
ENDMDL
MODEL 2
REMARK VINA RESULT:    -4.283     21.872     23.086
REMARK INTER + INTRA:          -4.895
REMARK INTER:                  -4.798
REMARK INTRA:                  -0.096
REMARK UNBOUND:                -0.111
REMARK  Name = 1550473
REMARK  2 active torsions:
REMARK  status: ('A' for Active; 'I' for Inactive)
REMARK    1  A    between atoms: N_1  and  C_4
REMARK    2  A    between atoms: C_4  and  C_5
REMARK                            x       y       z     vdW  Elec       q    Type
REMARK                         _______ _______ _______ _____ _____    ______ ____
ROOT
ATOM      1  N   UNL     1       3.832  -5.333  13.682  0.00  0.00    -0.354 N 
ATOM      2  N   UNL     1       1.909  -5.519  12.404  0.00  0.00    -0.372 N 
ATOM      3  N   UNL     1       3.694  -6.881  11.928  0.00  0.00    -0.372 N 
ATOM      4  C   UNL     1       3.159  -5.912  12.678  0.00  0.00    +0.166 C 
ATOM      5  H   UNL     1       3.381  -4.583  14.194  0.00  0.00    +0.163 HD
ATOM      6  H   UNL     1       1.376  -5.940  11.655  0.00  0.00    +0.159 HD
ATOM      7  H   UNL     1       1.445  -4.801  12.947  0.00  0.00    +0.159 HD
ATOM      8  H   UNL     1       4.635  -7.218  12.080  0.00  0.00    +0.159 HD
ATOM      9  H   UNL     1       3.180  -7.306  11.167  0.00  0.00    +0.159 HD
ENDROOT
BRANCH   1  10
ATOM     10  C   UNL     1       5.178  -5.723  14.097  0.00  0.00    +0.151 C 
BRANCH  10  11
ATOM     11  C   UNL     1       6.131  -4.600  13.795  0.00  0.00    -0.028 A 
ATOM     12  C   UNL     1       7.386  -4.544  14.417  0.00  0.00    +0.005 A 
ATOM     13  C   UNL     1       5.786  -3.590  12.883  0.00  0.00    +0.005 A 
ATOM     14  C   UNL     1       8.283  -3.517  14.115  0.00  0.00    +0.000 A 
ATOM     15  C   UNL     1       6.684  -2.566  12.584  0.00  0.00    +0.000 A 
ATOM     16  C   UNL     1       7.933  -2.531  13.198  0.00  0.00    +0.000 A 
ENDBRANCH  10  11
ENDBRANCH   1  10
TORSDOF 2
ENDMDL
MODEL 3
REMARK VINA RESULT:    -4.174     11.805     13.074
REMARK INTER + INTRA:          -4.773
REMARK INTER:                  -4.640
REMARK INTRA:                  -0.134
REMARK UNBOUND:                -0.111
REMARK  Name = 1550473
REMARK  2 active torsions:
REMARK  status: ('A' for Active; 'I' for Inactive)
REMARK    1  A    between atoms: N_1  and  C_4
REMARK    2  A    between atoms: C_4  and  C_5
REMARK                            x       y       z     vdW  Elec       q    Type
REMARK                         _______ _______ _______ _____ _____    ______ ____
ROOT
ATOM      1  N   UNL     1      13.209  -4.507  -7.173  0.00  0.00    -0.354 N 
ATOM      2  N   UNL     1      12.562  -4.568  -9.396  0.00  0.00    -0.372 N 
ATOM      3  N   UNL     1      14.800  -4.620  -8.890  0.00  0.00    -0.372 N 
ATOM      4  C   UNL     1      13.531  -4.565  -8.472  0.00  0.00    +0.166 C 
ATOM      5  H   UNL     1      12.229  -4.436  -6.923  0.00  0.00    +0.163 HD
ATOM      6  H   UNL     1      12.775  -4.615 -10.384  0.00  0.00    +0.159 HD
ATOM      7  H   UNL     1      11.583  -4.544  -9.141  0.00  0.00    +0.159 HD
ATOM      8  H   UNL     1      15.577  -4.615  -8.243  0.00  0.00    +0.159 HD
ATOM      9  H   UNL     1      15.033  -4.656  -9.874  0.00  0.00    +0.159 HD
ENDROOT
BRANCH   1  10
ATOM     10  C   UNL     1      14.185  -4.551  -6.086  0.00  0.00    +0.151 C 
BRANCH  10  11
ATOM     11  C   UNL     1      13.689  -3.705  -4.946  0.00  0.00    -0.028 A 
ATOM     12  C   UNL     1      12.487  -2.992  -5.059  0.00  0.00    +0.005 A 
ATOM     13  C   UNL     1      14.414  -3.618  -3.747  0.00  0.00    +0.005 A 
ATOM     14  C   UNL     1      12.011  -2.229  -3.989  0.00  0.00    +0.000 A 
ATOM     15  C   UNL     1      13.936  -2.855  -2.682  0.00  0.00    +0.000 A 
ATOM     16  C   UNL     1      12.733  -2.163  -2.802  0.00  0.00    +0.000 A 
ENDBRANCH  10  11
ENDBRANCH   1  10
TORSDOF 2
ENDMDL
MODEL 4
REMARK VINA RESULT:    -4.136     35.821     36.579
REMARK INTER + INTRA:          -4.731
REMARK INTER:                  -4.609
REMARK INTRA:                  -0.121
REMARK UNBOUND:                -0.111
REMARK  Name = 1550473
REMARK  2 active torsions:
REMARK  status: ('A' for Active; 'I' for Inactive)
REMARK    1  A    between atoms: N_1  and  C_4
REMARK    2  A    between atoms: C_4  and  C_5
REMARK                            x       y       z     vdW  Elec       q    Type
REMARK                         _______ _______ _______ _____ _____    ______ ____
ROOT
ATOM      1  N   UNL     1       1.095  10.200  22.271  0.00  0.00    -0.354 N 
ATOM      2  N   UNL     1      -1.093   9.778  22.901  0.00  0.00    -0.372 N 
ATOM      3  N   UNL     1       0.104  11.366  24.045  0.00  0.00    -0.372 N 
ATOM      4  C   UNL     1       0.051  10.453  23.070  0.00  0.00    +0.166 C 
ATOM      5  H   UNL     1       1.001   9.474  21.570  0.00  0.00    +0.163 HD
ATOM      6  H   UNL     1      -1.899   9.949  23.487  0.00  0.00    +0.159 HD
ATOM      7  H   UNL     1      -1.200   9.085  22.170  0.00  0.00    +0.159 HD
ATOM      8  H   UNL     1       0.940  11.906  24.229  0.00  0.00    +0.159 HD
ATOM      9  H   UNL     1      -0.688  11.544  24.650  0.00  0.00    +0.159 HD
ENDROOT
BRANCH   1  10
ATOM     10  C   UNL     1       2.368  10.917  22.337  0.00  0.00    +0.151 C 
BRANCH  10  11
ATOM     11  C   UNL     1       3.323  10.314  21.344  0.00  0.00    -0.028 A 
ATOM     12  C   UNL     1       3.100   9.028  20.831  0.00  0.00    +0.005 A 
ATOM     13  C   UNL     1       4.451  11.026  20.908  0.00  0.00    +0.005 A 
ATOM     14  C   UNL     1       3.971   8.479  19.887  0.00  0.00    +0.000 A 
ATOM     15  C   UNL     1       5.319  10.475  19.965  0.00  0.00    +0.000 A 
ATOM     16  C   UNL     1       5.077   9.203  19.453  0.00  0.00    +0.000 A 
ENDBRANCH  10  11
ENDBRANCH   1  10
TORSDOF 2
ENDMDL
MODEL 5
REMARK VINA RESULT:    -4.105     30.857     32.116
REMARK INTER + INTRA:          -4.697
REMARK INTER:                  -4.549
REMARK INTRA:                  -0.148
REMARK UNBOUND:                -0.111
REMARK  Name = 1550473
REMARK  2 active torsions:
REMARK  status: ('A' for Active; 'I' for Inactive)
REMARK    1  A    between atoms: N_1  and  C_4
REMARK    2  A    between atoms: C_4  and  C_5
REMARK                            x       y       z     vdW  Elec       q    Type
REMARK                         _______ _______ _______ _____ _____    ______ ____
ROOT
ATOM      1  N   UNL     1     -26.281  -6.511 -24.814  0.00  0.00    -0.354 N 
ATOM      2  N   UNL     1     -27.890  -4.927 -25.328  0.00  0.00    -0.372 N 
ATOM      3  N   UNL     1     -26.242  -5.372 -26.862  0.00  0.00    -0.372 N 
ATOM      4  C   UNL     1     -26.792  -5.613 -25.667  0.00  0.00    +0.166 C 
ATOM      5  H   UNL     1     -26.727  -6.626 -23.912  0.00  0.00    +0.163 HD
ATOM      6  H   UNL     1     -28.300  -4.245 -25.952  0.00  0.00    +0.159 HD
ATOM      7  H   UNL     1     -28.360  -5.077 -24.444  0.00  0.00    +0.159 HD
ATOM      8  H   UNL     1     -25.409  -5.852 -27.175  0.00  0.00    +0.159 HD
ATOM      9  H   UNL     1     -26.631  -4.685 -27.495  0.00  0.00    +0.159 HD
ENDROOT
BRANCH   1  10
ATOM     10  C   UNL     1     -25.120  -7.350 -25.109  0.00  0.00    +0.151 C 
BRANCH  10  11
ATOM     11  C   UNL     1     -24.068  -7.118 -24.060  0.00  0.00    -0.028 A 
ATOM     12  C   UNL     1     -24.391  -6.469 -22.858  0.00  0.00    +0.005 A 
ATOM     13  C   UNL     1     -22.747  -7.549 -24.258  0.00  0.00    +0.005 A 
ATOM     14  C   UNL     1     -23.421  -6.280 -21.871  0.00  0.00    +0.000 A 
ATOM     15  C   UNL     1     -21.781  -7.358 -23.270  0.00  0.00    +0.000 A 
ATOM     16  C   UNL     1     -22.119  -6.726 -22.076  0.00  0.00    +0.000 A 
ENDBRANCH  10  11
ENDBRANCH   1  10
TORSDOF 2
ENDMDL
MODEL 6
REMARK VINA RESULT:    -4.101     29.213     30.569
REMARK INTER + INTRA:          -4.692
REMARK INTER:                  -4.590
REMARK INTRA:                  -0.102
REMARK UNBOUND:                -0.111
REMARK  Name = 1550473
REMARK  2 active torsions:
REMARK  status: ('A' for Active; 'I' for Inactive)
REMARK    1  A    between atoms: N_1  and  C_4
REMARK    2  A    between atoms: C_4  and  C_5
REMARK                            x       y       z     vdW  Elec       q    Type
REMARK                         _______ _______ _______ _____ _____    ______ ____
ROOT
ATOM      1  N   UNL     1      -0.431   0.193  21.173  0.00  0.00    -0.354 N 
ATOM      2  N   UNL     1      -0.472   0.731  23.426  0.00  0.00    -0.372 N 
ATOM      3  N   UNL     1      -2.008   1.703  22.026  0.00  0.00    -0.372 N 
ATOM      4  C   UNL     1      -0.972   0.874  22.193  0.00  0.00    +0.166 C 
ATOM      5  H   UNL     1       0.372  -0.396  21.361  0.00  0.00    +0.163 HD
ATOM      6  H   UNL     1      -0.861   1.229  24.215  0.00  0.00    +0.159 HD
ATOM      7  H   UNL     1       0.302   0.106  23.618  0.00  0.00    +0.159 HD
ATOM      8  H   UNL     1      -2.427   1.860  21.119  0.00  0.00    +0.159 HD
ATOM      9  H   UNL     1      -2.404   2.219  22.801  0.00  0.00    +0.159 HD
ENDROOT
BRANCH   1  10
ATOM     10  C   UNL     1      -0.935   0.237  19.802  0.00  0.00    +0.151 C 
BRANCH  10  11
ATOM     11  C   UNL     1       0.095  -0.358  18.881  0.00  0.00    -0.028 A 
ATOM     12  C   UNL     1       1.331   0.276  18.690  0.00  0.00    +0.005 A 
ATOM     13  C   UNL     1      -0.158  -1.560  18.202  0.00  0.00    +0.005 A 
ATOM     14  C   UNL     1       2.299  -0.292  17.858  0.00  0.00    +0.000 A 
ATOM     15  C   UNL     1       0.811  -2.124  17.372  0.00  0.00    +0.000 A 
ATOM     16  C   UNL     1       2.040  -1.491  17.202  0.00  0.00    +0.000 A 
ENDBRANCH  10  11
ENDBRANCH   1  10
TORSDOF 2
ENDMDL
MODEL 7
REMARK VINA RESULT:    -4.035     15.562     16.862
REMARK INTER + INTRA:          -4.619
REMARK INTER:                  -4.526
REMARK INTRA:                  -0.092
REMARK UNBOUND:                -0.111
REMARK  Name = 1550473
REMARK  2 active torsions:
REMARK  status: ('A' for Active; 'I' for Inactive)
REMARK    1  A    between atoms: N_1  and  C_4
REMARK    2  A    between atoms: C_4  and  C_5
REMARK                            x       y       z     vdW  Elec       q    Type
REMARK                         _______ _______ _______ _____ _____    ______ ____
ROOT
ATOM      1  N   UNL     1      16.690  -1.771  -0.495  0.00  0.00    -0.354 N 
ATOM      2  N   UNL     1      17.791  -0.950   1.371  0.00  0.00    -0.372 N 
ATOM      3  N   UNL     1      19.028  -1.616  -0.443  0.00  0.00    -0.372 N 
ATOM      4  C   UNL     1      17.832  -1.452   0.131  0.00  0.00    +0.166 C 
ATOM      5  H   UNL     1      15.817  -1.651   0.006  0.00  0.00    +0.163 HD
ATOM      6  H   UNL     1      18.635  -0.697   1.866  0.00  0.00    +0.159 HD
ATOM      7  H   UNL     1      16.914  -0.788   1.852  0.00  0.00    +0.159 HD
ATOM      8  H   UNL     1      19.128  -1.995  -1.375  0.00  0.00    +0.159 HD
ATOM      9  H   UNL     1      19.885  -1.379   0.041  0.00  0.00    +0.159 HD
ENDROOT
BRANCH   1  10
ATOM     10  C   UNL     1      16.622  -2.274  -1.866  0.00  0.00    +0.151 C 
BRANCH  10  11
ATOM     11  C   UNL     1      15.194  -2.231  -2.334  0.00  0.00    -0.028 A 
ATOM     12  C   UNL     1      14.288  -3.230  -1.950  0.00  0.00    +0.005 A 
ATOM     13  C   UNL     1      14.738  -1.189  -3.157  0.00  0.00    +0.005 A 
ATOM     14  C   UNL     1      12.954  -3.174  -2.360  0.00  0.00    +0.000 A 
ATOM     15  C   UNL     1      13.406  -1.138  -3.566  0.00  0.00    +0.000 A 
ATOM     16  C   UNL     1      12.513  -2.129  -3.165  0.00  0.00    +0.000 A 
ENDBRANCH  10  11
ENDBRANCH   1  10
TORSDOF 2
ENDMDL
MODEL 8
REMARK VINA RESULT:    -4.033     16.200     17.681
REMARK INTER + INTRA:          -4.615
REMARK INTER:                  -4.487
REMARK INTRA:                  -0.128
REMARK UNBOUND:                -0.111
REMARK  Name = 1550473
REMARK  2 active torsions:
REMARK  status: ('A' for Active; 'I' for Inactive)
REMARK    1  A    between atoms: N_1  and  C_4
REMARK    2  A    between atoms: C_4  and  C_5
REMARK                            x       y       z     vdW  Elec       q    Type
REMARK                         _______ _______ _______ _____ _____    ______ ____
ROOT
ATOM      1  N   UNL     1       4.387   6.132  -6.532  0.00  0.00    -0.354 N 
ATOM      2  N   UNL     1       3.106   4.212  -6.343  0.00  0.00    -0.372 N 
ATOM      3  N   UNL     1       5.034   4.141  -7.585  0.00  0.00    -0.372 N 
ATOM      4  C   UNL     1       4.186   4.840  -6.823  0.00  0.00    +0.166 C 
ATOM      5  H   UNL     1       3.691   6.614  -5.974  0.00  0.00    +0.163 HD
ATOM      6  H   UNL     1       2.930   3.237  -6.543  0.00  0.00    +0.159 HD
ATOM      7  H   UNL     1       2.436   4.684  -5.748  0.00  0.00    +0.159 HD
ATOM      8  H   UNL     1       5.865   4.558  -7.982  0.00  0.00    +0.159 HD
ATOM      9  H   UNL     1       4.869   3.167  -7.806  0.00  0.00    +0.159 HD
ENDROOT
BRANCH   1  10
ATOM     10  C   UNL     1       5.559   6.894  -6.960  0.00  0.00    +0.151 C 
BRANCH  10  11
ATOM     11  C   UNL     1       5.999   7.791  -5.836  0.00  0.00    -0.028 A 
ATOM     12  C   UNL     1       5.077   8.238  -4.879  0.00  0.00    +0.005 A 
ATOM     13  C   UNL     1       7.339   8.193  -5.720  0.00  0.00    +0.005 A 
ATOM     14  C   UNL     1       5.491   9.047  -3.818  0.00  0.00    +0.000 A 
ATOM     15  C   UNL     1       7.748   9.001  -4.659  0.00  0.00    +0.000 A 
ATOM     16  C   UNL     1       6.824   9.426  -3.707  0.00  0.00    +0.000 A 
ENDBRANCH  10  11
ENDBRANCH   1  10
TORSDOF 2
ENDMDL
MODEL 9
REMARK VINA RESULT:    -4.007      3.298      4.576
REMARK INTER + INTRA:          -4.587
REMARK INTER:                  -4.476
REMARK INTRA:                  -0.111
REMARK UNBOUND:                -0.111
REMARK  Name = 1550473
REMARK  2 active torsions:
REMARK  status: ('A' for Active; 'I' for Inactive)
REMARK    1  A    between atoms: N_1  and  C_4
REMARK    2  A    between atoms: C_4  and  C_5
REMARK                            x       y       z     vdW  Elec       q    Type
REMARK                         _______ _______ _______ _____ _____    ______ ____
ROOT
ATOM      1  N   UNL     1      -0.128 -14.528  -6.843  0.00  0.00    -0.354 N 
ATOM      2  N   UNL     1      -1.700 -15.282  -5.318  0.00  0.00    -0.372 N 
ATOM      3  N   UNL     1       0.522 -15.684  -4.911  0.00  0.00    -0.372 N 
ATOM      4  C   UNL     1      -0.422 -15.161  -5.700  0.00  0.00    +0.166 C 
ATOM      5  H   UNL     1      -0.892 -14.181  -7.412  0.00  0.00    +0.163 HD
ATOM      6  H   UNL     1      -1.952 -15.751  -4.459  0.00  0.00    +0.159 HD
ATOM      7  H   UNL     1      -2.458 -14.894  -5.865  0.00  0.00    +0.159 HD
ATOM      8  H   UNL     1       1.505 -15.631  -5.145  0.00  0.00    +0.159 HD
ATOM      9  H   UNL     1       0.289 -16.167  -4.053  0.00  0.00    +0.159 HD
ENDROOT
BRANCH   1  10
ATOM     10  C   UNL     1       1.234 -14.295  -7.322  0.00  0.00    +0.151 C 
BRANCH  10  11
ATOM     11  C   UNL     1       1.487 -12.814  -7.379  0.00  0.00    -0.028 A 
ATOM     12  C   UNL     1       0.972 -11.965  -6.388  0.00  0.00    +0.005 A 
ATOM     13  C   UNL     1       2.247 -12.254  -8.417  0.00  0.00    +0.005 A 
ATOM     14  C   UNL     1       1.233 -10.593  -6.424  0.00  0.00    +0.000 A 
ATOM     15  C   UNL     1       2.504 -10.884  -8.450  0.00  0.00    +0.000 A 
ATOM     16  C   UNL     1       1.999 -10.054  -7.453  0.00  0.00    +0.000 A 
ENDBRANCH  10  11
ENDBRANCH   1  10
TORSDOF 2
ENDMDL
