MODEL 1
REMARK VINA RESULT:    -6.218      0.000      0.000
REMARK INTER + INTRA:          -7.077
REMARK INTER:                  -6.945
REMARK INTRA:                  -0.132
REMARK UNBOUND:                -0.132
REMARK  Name = 1550473
REMARK  2 active torsions:
REMARK  status: ('A' for Active; 'I' for Inactive)
REMARK    1  A    between atoms: N_1  and  C_4
REMARK    2  A    between atoms: C_4  and  C_5
REMARK                            x       y       z     vdW  Elec       q    Type
REMARK                         _______ _______ _______ _____ _____    ______ ____
ROOT
ATOM      1  N   UNL     1       0.899   9.238  34.409  0.00  0.00    -0.354 N 
ATOM      2  N   UNL     1       2.485   8.950  36.072  0.00  0.00    -0.372 N 
ATOM      3  N   UNL     1       2.578   7.615  34.208  0.00  0.00    -0.372 N 
ATOM      4  C   UNL     1       1.978   8.601  34.884  0.00  0.00    +0.166 C 
ATOM      5  H   UNL     1       0.473   9.956  34.983  0.00  0.00    +0.163 HD
ATOM      6  H   UNL     1       3.300   8.490  36.454  0.00  0.00    +0.159 HD
ATOM      7  H   UNL     1       2.084   9.700  36.623  0.00  0.00    +0.159 HD
ATOM      8  H   UNL     1       2.241   7.300  33.309  0.00  0.00    +0.159 HD
ATOM      9  H   UNL     1       3.388   7.134  34.580  0.00  0.00    +0.159 HD
ENDROOT
BRANCH   1  10
ATOM     10  C   UNL     1       0.301   8.970  33.102  0.00  0.00    +0.151 C 
BRANCH  10  11
ATOM     11  C   UNL     1      -1.141   8.589  33.291  0.00  0.00    -0.028 A 
ATOM     12  C   UNL     1      -1.635   8.279  34.567  0.00  0.00    +0.005 A 
ATOM     13  C   UNL     1      -2.021   8.541  32.199  0.00  0.00    +0.005 A 
ATOM     14  C   UNL     1      -2.981   7.954  34.747  0.00  0.00    +0.000 A 
ATOM     15  C   UNL     1      -3.365   8.215  32.383  0.00  0.00    +0.000 A 
ATOM     16  C   UNL     1      -3.845   7.924  33.658  0.00  0.00    +0.000 A 
ENDBRANCH  10  11
ENDBRANCH   1  10
TORSDOF 2
ENDMDL
MODEL 2
REMARK VINA RESULT:    -6.188      0.079      1.456
REMARK INTER + INTRA:          -7.044
REMARK INTER:                  -6.915
REMARK INTRA:                  -0.130
REMARK UNBOUND:                -0.132
REMARK  Name = 1550473
REMARK  2 active torsions:
REMARK  status: ('A' for Active; 'I' for Inactive)
REMARK    1  A    between atoms: N_1  and  C_4
REMARK    2  A    between atoms: C_4  and  C_5
REMARK                            x       y       z     vdW  Elec       q    Type
REMARK                         _______ _______ _______ _____ _____    ______ ____
ROOT
ATOM      1  N   UNL     1       0.891   9.227  34.410  0.00  0.00    -0.354 N 
ATOM      2  N   UNL     1       2.489   8.966  36.066  0.00  0.00    -0.372 N 
ATOM      3  N   UNL     1       2.544   7.573  34.243  0.00  0.00    -0.372 N 
ATOM      4  C   UNL     1       1.965   8.588  34.894  0.00  0.00    +0.166 C 
ATOM      5  H   UNL     1       0.481   9.969  34.966  0.00  0.00    +0.163 HD
ATOM      6  H   UNL     1       3.301   8.505  36.455  0.00  0.00    +0.159 HD
ATOM      7  H   UNL     1       2.105   9.737  36.598  0.00  0.00    +0.159 HD
ATOM      8  H   UNL     1       2.193   7.236  33.357  0.00  0.00    +0.159 HD
ATOM      9  H   UNL     1       3.350   7.092  34.622  0.00  0.00    +0.159 HD
ENDROOT
BRANCH   1  10
ATOM     10  C   UNL     1       0.277   8.929  33.117  0.00  0.00    +0.151 C 
BRANCH  10  11
ATOM     11  C   UNL     1      -1.163   8.552  33.333  0.00  0.00    -0.028 A 
ATOM     12  C   UNL     1      -2.061   8.523  32.256  0.00  0.00    +0.005 A 
ATOM     13  C   UNL     1      -1.634   8.217  34.612  0.00  0.00    +0.005 A 
ATOM     14  C   UNL     1      -3.391   8.143  32.452  0.00  0.00    +0.000 A 
ATOM     15  C   UNL     1      -2.963   7.839  34.803  0.00  0.00    +0.000 A 
ATOM     16  C   UNL     1      -3.841   7.800  33.722  0.00  0.00    +0.000 A 
ENDBRANCH  10  11
ENDBRANCH   1  10
TORSDOF 2
ENDMDL
MODEL 3
REMARK VINA RESULT:    -6.175      1.293      1.744
REMARK INTER + INTRA:          -7.029
REMARK INTER:                  -6.854
REMARK INTRA:                  -0.175
REMARK UNBOUND:                -0.132
REMARK  Name = 1550473
REMARK  2 active torsions:
REMARK  status: ('A' for Active; 'I' for Inactive)
REMARK    1  A    between atoms: N_1  and  C_4
REMARK    2  A    between atoms: C_4  and  C_5
REMARK                            x       y       z     vdW  Elec       q    Type
REMARK                         _______ _______ _______ _____ _____    ______ ____
ROOT
ATOM      1  N   UNL     1       0.454   8.965  34.745  0.00  0.00    -0.354 N 
ATOM      2  N   UNL     1       2.355   8.889  36.066  0.00  0.00    -0.372 N 
ATOM      3  N   UNL     1       2.264   7.588  34.179  0.00  0.00    -0.372 N 
ATOM      4  C   UNL     1       1.679   8.479  34.986  0.00  0.00    +0.166 C 
ATOM      5  H   UNL     1       0.055   9.615  35.412  0.00  0.00    +0.163 HD
ATOM      6  H   UNL     1       3.283   8.543  36.272  0.00  0.00    +0.159 HD
ATOM      7  H   UNL     1       1.972   9.574  36.706  0.00  0.00    +0.159 HD
ATOM      8  H   UNL     1       1.805   7.234  33.350  0.00  0.00    +0.159 HD
ATOM      9  H   UNL     1       3.187   7.221  34.374  0.00  0.00    +0.159 HD
ENDROOT
BRANCH   1  10
ATOM     10  C   UNL     1      -0.343   8.624  33.568  0.00  0.00    +0.151 C 
BRANCH  10  11
ATOM     11  C   UNL     1      -1.470   7.719  33.984  0.00  0.00    -0.028 A 
ATOM     12  C   UNL     1      -1.421   6.346  33.704  0.00  0.00    +0.005 A 
ATOM     13  C   UNL     1      -2.587   8.229  34.664  0.00  0.00    +0.005 A 
ATOM     14  C   UNL     1      -2.454   5.500  34.117  0.00  0.00    +0.000 A 
ATOM     15  C   UNL     1      -3.617   7.381  35.074  0.00  0.00    +0.000 A 
ATOM     16  C   UNL     1      -3.548   6.017  34.802  0.00  0.00    +0.000 A 
ENDBRANCH  10  11
ENDBRANCH   1  10
TORSDOF 2
ENDMDL
MODEL 4
REMARK VINA RESULT:    -5.823      1.558      2.509
REMARK INTER + INTRA:          -6.636
REMARK INTER:                  -6.510
REMARK INTRA:                  -0.126
REMARK UNBOUND:                -0.132
REMARK  Name = 1550473
REMARK  2 active torsions:
REMARK  status: ('A' for Active; 'I' for Inactive)
REMARK    1  A    between atoms: N_1  and  C_4
REMARK    2  A    between atoms: C_4  and  C_5
REMARK                            x       y       z     vdW  Elec       q    Type
REMARK                         _______ _______ _______ _____ _____    ______ ____
ROOT
ATOM      1  N   UNL     1      -0.664   8.530  35.088  0.00  0.00    -0.354 N 
ATOM      2  N   UNL     1       1.427   8.563  36.082  0.00  0.00    -0.372 N 
ATOM      3  N   UNL     1       1.218   7.697  33.968  0.00  0.00    -0.372 N 
ATOM      4  C   UNL     1       0.647   8.262  35.037  0.00  0.00    +0.166 C 
ATOM      5  H   UNL     1      -1.041   8.931  35.939  0.00  0.00    +0.163 HD
ATOM      6  H   UNL     1       2.421   8.376  36.072  0.00  0.00    +0.159 HD
ATOM      7  H   UNL     1       1.056   9.006  36.914  0.00  0.00    +0.159 HD
ATOM      8  H   UNL     1       0.683   7.439  33.149  0.00  0.00    +0.159 HD
ATOM      9  H   UNL     1       2.209   7.491  33.943  0.00  0.00    +0.159 HD
ENDROOT
BRANCH   1  10
ATOM     10  C   UNL     1      -1.592   8.290  33.984  0.00  0.00    +0.151 C 
BRANCH  10  11
ATOM     11  C   UNL     1      -2.918   7.853  34.542  0.00  0.00    -0.028 A 
ATOM     12  C   UNL     1      -4.108   8.445  34.096  0.00  0.00    +0.005 A 
ATOM     13  C   UNL     1      -2.991   6.842  35.512  0.00  0.00    +0.005 A 
ATOM     14  C   UNL     1      -5.342   8.018  34.592  0.00  0.00    +0.000 A 
ATOM     15  C   UNL     1      -4.225   6.419  36.006  0.00  0.00    +0.000 A 
ATOM     16  C   UNL     1      -5.401   7.006  35.543  0.00  0.00    +0.000 A 
ENDBRANCH  10  11
ENDBRANCH   1  10
TORSDOF 2
ENDMDL
MODEL 5
REMARK VINA RESULT:    -4.975     37.508     38.938
REMARK INTER + INTRA:          -5.689
REMARK INTER:                  -5.521
REMARK INTRA:                  -0.167
REMARK UNBOUND:                -0.132
REMARK  Name = 1550473
REMARK  2 active torsions:
REMARK  status: ('A' for Active; 'I' for Inactive)
REMARK    1  A    between atoms: N_1  and  C_4
REMARK    2  A    between atoms: C_4  and  C_5
REMARK                            x       y       z     vdW  Elec       q    Type
REMARK                         _______ _______ _______ _____ _____    ______ ____
ROOT
ATOM      1  N   UNL     1     -14.293  -4.999   1.176  0.00  0.00    -0.354 N 
ATOM      2  N   UNL     1     -13.727  -6.047   3.162  0.00  0.00    -0.372 N 
ATOM      3  N   UNL     1     -12.501  -4.232   2.477  0.00  0.00    -0.372 N 
ATOM      4  C   UNL     1     -13.509  -5.084   2.259  0.00  0.00    +0.166 C 
ATOM      5  H   UNL     1     -15.021  -5.694   1.053  0.00  0.00    +0.163 HD
ATOM      6  H   UNL     1     -13.153  -6.134   3.990  0.00  0.00    +0.159 HD
ATOM      7  H   UNL     1     -14.484  -6.712   3.060  0.00  0.00    +0.159 HD
ATOM      8  H   UNL     1     -12.281  -3.487   1.831  0.00  0.00    +0.159 HD
ATOM      9  H   UNL     1     -11.909  -4.310   3.295  0.00  0.00    +0.159 HD
ENDROOT
BRANCH   1  10
ATOM     10  C   UNL     1     -14.174  -3.955   0.160  0.00  0.00    +0.151 C 
BRANCH  10  11
ATOM     11  C   UNL     1     -13.314  -4.461  -0.966  0.00  0.00    -0.028 A 
ATOM     12  C   UNL     1     -13.605  -5.683  -1.590  0.00  0.00    +0.005 A 
ATOM     13  C   UNL     1     -12.211  -3.720  -1.417  0.00  0.00    +0.005 A 
ATOM     14  C   UNL     1     -12.825  -6.139  -2.655  0.00  0.00    +0.000 A 
ATOM     15  C   UNL     1     -11.434  -4.180  -2.480  0.00  0.00    +0.000 A 
ATOM     16  C   UNL     1     -11.742  -5.388  -3.100  0.00  0.00    +0.000 A 
ENDBRANCH  10  11
ENDBRANCH   1  10
TORSDOF 2
ENDMDL
MODEL 6
REMARK VINA RESULT:    -4.814     61.307     62.453
REMARK INTER + INTRA:          -5.510
REMARK INTER:                  -5.400
REMARK INTRA:                  -0.109
REMARK UNBOUND:                -0.132
REMARK  Name = 1550473
REMARK  2 active torsions:
REMARK  status: ('A' for Active; 'I' for Inactive)
REMARK    1  A    between atoms: N_1  and  C_4
REMARK    2  A    between atoms: C_4  and  C_5
REMARK                            x       y       z     vdW  Elec       q    Type
REMARK                         _______ _______ _______ _____ _____    ______ ____
ROOT
ATOM      1  N   UNL     1      11.981 -12.227 -22.235  0.00  0.00    -0.354 N 
ATOM      2  N   UNL     1      12.876 -13.251 -20.360  0.00  0.00    -0.372 N 
ATOM      3  N   UNL     1      12.689 -10.964 -20.393  0.00  0.00    -0.372 N 
ATOM      4  C   UNL     1      12.510 -12.138 -21.008  0.00  0.00    +0.166 C 
ATOM      5  H   UNL     1      11.900 -13.144 -22.659  0.00  0.00    +0.163 HD
ATOM      6  H   UNL     1      13.274 -13.215 -19.432  0.00  0.00    +0.159 HD
ATOM      7  H   UNL     1      12.750 -14.169 -20.767  0.00  0.00    +0.159 HD
ATOM      8  H   UNL     1      12.439 -10.087 -20.830  0.00  0.00    +0.159 HD
ATOM      9  H   UNL     1      13.097 -10.907 -19.468  0.00  0.00    +0.159 HD
ENDROOT
BRANCH   1  10
ATOM     10  C   UNL     1      11.501 -11.080 -23.004  0.00  0.00    +0.151 C 
BRANCH  10  11
ATOM     11  C   UNL     1      11.153 -11.532 -24.396  0.00  0.00    -0.028 A 
ATOM     12  C   UNL     1      11.506 -10.752 -25.507  0.00  0.00    +0.005 A 
ATOM     13  C   UNL     1      10.477 -12.743 -24.610  0.00  0.00    +0.005 A 
ATOM     14  C   UNL     1      11.210 -11.186 -26.801  0.00  0.00    +0.000 A 
ATOM     15  C   UNL     1      10.183 -13.173 -25.904  0.00  0.00    +0.000 A 
ATOM     16  C   UNL     1      10.552 -12.395 -27.000  0.00  0.00    +0.000 A 
ENDBRANCH  10  11
ENDBRANCH   1  10
TORSDOF 2
ENDMDL
MODEL 7
REMARK VINA RESULT:    -4.690      2.901      5.067
REMARK INTER + INTRA:          -5.371
REMARK INTER:                  -5.247
REMARK INTRA:                  -0.123
REMARK UNBOUND:                -0.132
REMARK  Name = 1550473
REMARK  2 active torsions:
REMARK  status: ('A' for Active; 'I' for Inactive)
REMARK    1  A    between atoms: N_1  and  C_4
REMARK    2  A    between atoms: C_4  and  C_5
REMARK                            x       y       z     vdW  Elec       q    Type
REMARK                         _______ _______ _______ _____ _____    ______ ____
ROOT
ATOM      1  N   UNL     1      -2.092   8.260  32.408  0.00  0.00    -0.354 N 
ATOM      2  N   UNL     1      -4.270   7.549  32.073  0.00  0.00    -0.372 N 
ATOM      3  N   UNL     1      -3.279   8.872  30.482  0.00  0.00    -0.372 N 
ATOM      4  C   UNL     1      -3.199   8.234  31.655  0.00  0.00    +0.166 C 
ATOM      5  H   UNL     1      -2.106   7.781  33.301  0.00  0.00    +0.163 HD
ATOM      6  H   UNL     1      -5.119   7.508  31.524  0.00  0.00    +0.159 HD
ATOM      7  H   UNL     1      -4.266   7.032  32.944  0.00  0.00    +0.159 HD
ATOM      8  H   UNL     1      -2.507   9.412  30.113  0.00  0.00    +0.159 HD
ATOM      9  H   UNL     1      -4.123   8.853  29.924  0.00  0.00    +0.159 HD
ENDROOT
BRANCH   1  10
ATOM     10  C   UNL     1      -0.854   8.932  32.019  0.00  0.00    +0.151 C 
BRANCH  10  11
ATOM     11  C   UNL     1       0.119   8.872  33.164  0.00  0.00    -0.028 A 
ATOM     12  C   UNL     1       1.400   9.431  33.041  0.00  0.00    +0.005 A 
ATOM     13  C   UNL     1      -0.236   8.264  34.378  0.00  0.00    +0.005 A 
ATOM     14  C   UNL     1       2.293   9.402  34.114  0.00  0.00    +0.000 A 
ATOM     15  C   UNL     1       0.659   8.237  35.447  0.00  0.00    +0.000 A 
ATOM     16  C   UNL     1       1.922   8.808  35.316  0.00  0.00    +0.000 A 
ENDBRANCH  10  11
ENDBRANCH   1  10
TORSDOF 2
ENDMDL
MODEL 8
REMARK VINA RESULT:    -4.654     62.305     63.427
REMARK INTER + INTRA:          -5.331
REMARK INTER:                  -5.148
REMARK INTRA:                  -0.183
REMARK UNBOUND:                -0.132
REMARK  Name = 1550473
REMARK  2 active torsions:
REMARK  status: ('A' for Active; 'I' for Inactive)
REMARK    1  A    between atoms: N_1  and  C_4
REMARK    2  A    between atoms: C_4  and  C_5
REMARK                            x       y       z     vdW  Elec       q    Type
REMARK                         _______ _______ _______ _____ _____    ______ ____
ROOT
ATOM      1  N   UNL     1      11.830  -8.973 -24.166  0.00  0.00    -0.354 N 
ATOM      2  N   UNL     1      10.812  -6.900 -24.335  0.00  0.00    -0.372 N 
ATOM      3  N   UNL     1      12.274  -7.555 -25.978  0.00  0.00    -0.372 N 
ATOM      4  C   UNL     1      11.647  -7.823 -24.828  0.00  0.00    +0.166 C 
ATOM      5  H   UNL     1      11.348  -9.103 -23.284  0.00  0.00    +0.163 HD
ATOM      6  H   UNL     1      10.652  -6.023 -24.814  0.00  0.00    +0.159 HD
ATOM      7  H   UNL     1      10.297  -7.051 -23.477  0.00  0.00    +0.159 HD
ATOM      8  H   UNL     1      12.921  -8.208 -26.399  0.00  0.00    +0.159 HD
ATOM      9  H   UNL     1      12.135  -6.679 -26.466  0.00  0.00    +0.159 HD
ENDROOT
BRANCH   1  10
ATOM     10  C   UNL     1      12.676 -10.066 -24.644  0.00  0.00    +0.151 C 
BRANCH  10  11
ATOM     11  C   UNL     1      11.805 -11.132 -25.248  0.00  0.00    -0.028 A 
ATOM     12  C   UNL     1      10.955 -11.901 -24.440  0.00  0.00    +0.005 A 
ATOM     13  C   UNL     1      11.822 -11.376 -26.630  0.00  0.00    +0.005 A 
ATOM     14  C   UNL     1      10.124 -12.871 -25.005  0.00  0.00    +0.000 A 
ATOM     15  C   UNL     1      10.991 -12.346 -27.191  0.00  0.00    +0.000 A 
ATOM     16  C   UNL     1      10.141 -13.092 -26.378  0.00  0.00    +0.000 A 
ENDBRANCH  10  11
ENDBRANCH   1  10
TORSDOF 2
ENDMDL
MODEL 9
REMARK VINA RESULT:    -4.641     14.668     15.674
REMARK INTER + INTRA:          -5.316
REMARK INTER:                  -5.194
REMARK INTRA:                  -0.122
REMARK UNBOUND:                -0.132
REMARK  Name = 1550473
REMARK  2 active torsions:
REMARK  status: ('A' for Active; 'I' for Inactive)
REMARK    1  A    between atoms: N_1  and  C_4
REMARK    2  A    between atoms: C_4  and  C_5
REMARK                            x       y       z     vdW  Elec       q    Type
REMARK                         _______ _______ _______ _____ _____    ______ ____
ROOT
ATOM      1  N   UNL     1       7.910   4.916  22.846  0.00  0.00    -0.354 N 
ATOM      2  N   UNL     1       7.742   7.110  22.122  0.00  0.00    -0.372 N 
ATOM      3  N   UNL     1       6.287   5.549  21.279  0.00  0.00    -0.372 N 
ATOM      4  C   UNL     1       7.312   5.843  22.085  0.00  0.00    +0.166 C 
ATOM      5  H   UNL     1       8.701   5.197  23.413  0.00  0.00    +0.163 HD
ATOM      6  H   UNL     1       7.308   7.832  21.562  0.00  0.00    +0.159 HD
ATOM      7  H   UNL     1       8.503   7.397  22.725  0.00  0.00    +0.159 HD
ATOM      8  H   UNL     1       5.919   4.610  21.200  0.00  0.00    +0.159 HD
ATOM      9  H   UNL     1       5.847   6.255  20.701  0.00  0.00    +0.159 HD
ENDROOT
BRANCH   1  10
ATOM     10  C   UNL     1       7.484   3.520  22.919  0.00  0.00    +0.151 C 
BRANCH  10  11
ATOM     11  C   UNL     1       8.611   2.691  23.473  0.00  0.00    -0.028 A 
ATOM     12  C   UNL     1       8.619   1.299  23.307  0.00  0.00    +0.005 A 
ATOM     13  C   UNL     1       9.676   3.294  24.160  0.00  0.00    +0.005 A 
ATOM     14  C   UNL     1       9.680   0.532  23.795  0.00  0.00    +0.000 A 
ATOM     15  C   UNL     1      10.733   2.525  24.646  0.00  0.00    +0.000 A 
ATOM     16  C   UNL     1      10.736   1.144  24.461  0.00  0.00    +0.000 A 
ENDBRANCH  10  11
ENDBRANCH   1  10
TORSDOF 2
ENDMDL
