MODEL 1
REMARK VINA RESULT:    -6.239      0.000      0.000
REMARK INTER + INTRA:          -7.012
REMARK INTER:                  -6.969
REMARK INTRA:                  -0.043
REMARK UNBOUND:                -0.043
REMARK  Name = 1550473
REMARK  2 active torsions:
REMARK  status: ('A' for Active; 'I' for Inactive)
REMARK    1  A    between atoms: N_1  and  C_4
REMARK    2  A    between atoms: C_4  and  C_5
REMARK                            x       y       z     vdW  Elec       q    Type
REMARK                         _______ _______ _______ _____ _____    ______ ____
ROOT
ATOM      1  N   UNL     1      -0.130  -1.541  -0.356  0.00  0.00    -0.354 N 
ATOM      2  N   UNL     1      -0.141   0.108   1.270  0.00  0.00    -0.372 N 
ATOM      3  N   UNL     1       1.520  -1.475   1.306  0.00  0.00    -0.372 N 
ATOM      4  C   UNL     1       0.419  -0.982   0.730  0.00  0.00    +0.166 C 
ATOM      5  H   UNL     1      -0.983  -1.137  -0.727  0.00  0.00    +0.163 HD
ATOM      6  H   UNL     1       0.252   0.554   2.088  0.00  0.00    +0.159 HD
ATOM      7  H   UNL     1      -0.967   0.536   0.870  0.00  0.00    +0.159 HD
ATOM      8  H   UNL     1       1.987  -2.298   0.951  0.00  0.00    +0.159 HD
ATOM      9  H   UNL     1       1.922  -1.049   2.132  0.00  0.00    +0.159 HD
ENDROOT
BRANCH   1  10
ATOM     10  C   UNL     1       0.431  -2.697  -1.053  0.00  0.00    +0.151 C 
BRANCH  10  11
ATOM     11  C   UNL     1      -0.059  -3.955  -0.391  0.00  0.00    -0.028 A 
ATOM     12  C   UNL     1       0.743  -5.106  -0.366  0.00  0.00    +0.005 A 
ATOM     13  C   UNL     1      -1.322  -4.002   0.218  0.00  0.00    +0.005 A 
ATOM     14  C   UNL     1       0.301  -6.265   0.275  0.00  0.00    +0.000 A 
ATOM     15  C   UNL     1      -1.760  -5.162   0.857  0.00  0.00    +0.000 A 
ATOM     16  C   UNL     1      -0.948  -6.293   0.887  0.00  0.00    +0.000 A 
ENDBRANCH  10  11
ENDBRANCH   1  10
TORSDOF 2
ENDMDL
MODEL 2
REMARK VINA RESULT:    -6.066      4.011      5.283
REMARK INTER + INTRA:          -6.819
REMARK INTER:                  -6.684
REMARK INTRA:                  -0.134
REMARK UNBOUND:                -0.043
REMARK  Name = 1550473
REMARK  2 active torsions:
REMARK  status: ('A' for Active; 'I' for Inactive)
REMARK    1  A    between atoms: N_1  and  C_4
REMARK    2  A    between atoms: C_4  and  C_5
REMARK                            x       y       z     vdW  Elec       q    Type
REMARK                         _______ _______ _______ _____ _____    ______ ____
ROOT
ATOM      1  N   UNL     1      -0.148  -2.876  -2.283  0.00  0.00    -0.354 N 
ATOM      2  N   UNL     1      -0.915  -2.782  -0.099  0.00  0.00    -0.372 N 
ATOM      3  N   UNL     1       0.163  -0.956  -0.976  0.00  0.00    -0.372 N 
ATOM      4  C   UNL     1      -0.294  -2.203  -1.134  0.00  0.00    +0.166 C 
ATOM      5  H   UNL     1      -0.490  -3.829  -2.328  0.00  0.00    +0.163 HD
ATOM      6  H   UNL     1      -1.042  -2.297   0.779  0.00  0.00    +0.159 HD
ATOM      7  H   UNL     1      -1.296  -3.718  -0.163  0.00  0.00    +0.159 HD
ATOM      8  H   UNL     1       0.646  -0.465  -1.717  0.00  0.00    +0.159 HD
ATOM      9  H   UNL     1       0.055  -0.458  -0.101  0.00  0.00    +0.159 HD
ENDROOT
BRANCH   1  10
ATOM     10  C   UNL     1       0.465  -2.317  -3.486  0.00  0.00    +0.151 C 
BRANCH  10  11
ATOM     11  C   UNL     1      -0.522  -2.390  -4.619  0.00  0.00    -0.028 A 
ATOM     12  C   UNL     1      -0.114  -2.814  -5.892  0.00  0.00    +0.005 A 
ATOM     13  C   UNL     1      -1.867  -2.041  -4.425  0.00  0.00    +0.005 A 
ATOM     14  C   UNL     1      -1.036  -2.911  -6.937  0.00  0.00    +0.000 A 
ATOM     15  C   UNL     1      -2.784  -2.137  -5.471  0.00  0.00    +0.000 A 
ATOM     16  C   UNL     1      -2.369  -2.575  -6.726  0.00  0.00    +0.000 A 
ENDBRANCH  10  11
ENDBRANCH   1  10
TORSDOF 2
ENDMDL
MODEL 3
REMARK VINA RESULT:    -5.818      3.157      4.506
REMARK INTER + INTRA:          -6.542
REMARK INTER:                  -6.416
REMARK INTRA:                  -0.125
REMARK UNBOUND:                -0.043
REMARK  Name = 1550473
REMARK  2 active torsions:
REMARK  status: ('A' for Active; 'I' for Inactive)
REMARK    1  A    between atoms: N_1  and  C_4
REMARK    2  A    between atoms: C_4  and  C_5
REMARK                            x       y       z     vdW  Elec       q    Type
REMARK                         _______ _______ _______ _____ _____    ______ ____
ROOT
ATOM      1  N   UNL     1      -0.388  -5.707   0.701  0.00  0.00    -0.354 N 
ATOM      2  N   UNL     1      -2.382  -4.538   0.849  0.00  0.00    -0.372 N 
ATOM      3  N   UNL     1      -1.064  -4.725   2.718  0.00  0.00    -0.372 N 
ATOM      4  C   UNL     1      -1.264  -4.998   1.425  0.00  0.00    +0.166 C 
ATOM      5  H   UNL     1      -0.613  -5.905  -0.268  0.00  0.00    +0.163 HD
ATOM      6  H   UNL     1      -3.060  -3.997   1.369  0.00  0.00    +0.159 HD
ATOM      7  H   UNL     1      -2.582  -4.698  -0.131  0.00  0.00    +0.159 HD
ATOM      8  H   UNL     1      -0.244  -5.049   3.213  0.00  0.00    +0.159 HD
ATOM      9  H   UNL     1      -1.737  -4.195   3.259  0.00  0.00    +0.159 HD
ENDROOT
BRANCH   1  10
ATOM     10  C   UNL     1       0.884  -6.208   1.218  0.00  0.00    +0.151 C 
BRANCH  10  11
ATOM     11  C   UNL     1       1.753  -6.626   0.064  0.00  0.00    -0.028 A 
ATOM     12  C   UNL     1       1.368  -6.346  -1.255  0.00  0.00    +0.005 A 
ATOM     13  C   UNL     1       2.965  -7.298   0.284  0.00  0.00    +0.005 A 
ATOM     14  C   UNL     1       2.189  -6.708  -2.326  0.00  0.00    +0.000 A 
ATOM     15  C   UNL     1       3.782  -7.658  -0.788  0.00  0.00    +0.000 A 
ATOM     16  C   UNL     1       3.395  -7.361  -2.092  0.00  0.00    +0.000 A 
ENDBRANCH  10  11
ENDBRANCH   1  10
TORSDOF 2
ENDMDL
MODEL 4
REMARK VINA RESULT:    -5.752      6.077      7.315
REMARK INTER + INTRA:          -6.468
REMARK INTER:                  -6.341
REMARK INTRA:                  -0.127
REMARK UNBOUND:                -0.043
REMARK  Name = 1550473
REMARK  2 active torsions:
REMARK  status: ('A' for Active; 'I' for Inactive)
REMARK    1  A    between atoms: N_1  and  C_4
REMARK    2  A    between atoms: C_4  and  C_5
REMARK                            x       y       z     vdW  Elec       q    Type
REMARK                         _______ _______ _______ _____ _____    ______ ____
ROOT
ATOM      1  N   UNL     1       2.056  -3.495  -6.506  0.00  0.00    -0.354 N 
ATOM      2  N   UNL     1       3.599  -4.403  -7.976  0.00  0.00    -0.372 N 
ATOM      3  N   UNL     1       3.856  -4.778  -5.727  0.00  0.00    -0.372 N 
ATOM      4  C   UNL     1       3.161  -4.220  -6.724  0.00  0.00    +0.166 C 
ATOM      5  H   UNL     1       1.592  -3.074  -7.303  0.00  0.00    +0.163 HD
ATOM      6  H   UNL     1       4.428  -4.948  -8.172  0.00  0.00    +0.159 HD
ATOM      7  H   UNL     1       3.107  -4.019  -8.774  0.00  0.00    +0.159 HD
ATOM      8  H   UNL     1       3.582  -4.672  -4.759  0.00  0.00    +0.159 HD
ATOM      9  H   UNL     1       4.695  -5.317  -5.902  0.00  0.00    +0.159 HD
ENDROOT
BRANCH   1  10
ATOM     10  C   UNL     1       1.466  -3.281  -5.186  0.00  0.00    +0.151 C 
BRANCH  10  11
ATOM     11  C   UNL     1       0.037  -2.844  -5.352  0.00  0.00    -0.028 A 
ATOM     12  C   UNL     1      -0.562  -2.835  -6.620  0.00  0.00    +0.005 A 
ATOM     13  C   UNL     1      -0.726  -2.443  -4.244  0.00  0.00    +0.005 A 
ATOM     14  C   UNL     1      -1.899  -2.457  -6.771  0.00  0.00    +0.000 A 
ATOM     15  C   UNL     1      -2.060  -2.066  -4.399  0.00  0.00    +0.000 A 
ATOM     16  C   UNL     1      -2.647  -2.076  -5.662  0.00  0.00    +0.000 A 
ENDBRANCH  10  11
ENDBRANCH   1  10
TORSDOF 2
ENDMDL
MODEL 5
REMARK VINA RESULT:    -5.672     11.706     13.090
REMARK INTER + INTRA:          -6.378
REMARK INTER:                  -6.234
REMARK INTRA:                  -0.145
REMARK UNBOUND:                -0.043
REMARK  Name = 1550473
REMARK  2 active torsions:
REMARK  status: ('A' for Active; 'I' for Inactive)
REMARK    1  A    between atoms: N_1  and  C_4
REMARK    2  A    between atoms: C_4  and  C_5
REMARK                            x       y       z     vdW  Elec       q    Type
REMARK                         _______ _______ _______ _____ _____    ______ ____
ROOT
ATOM      1  N   UNL     1      -6.017   4.925  -9.130  0.00  0.00    -0.354 N 
ATOM      2  N   UNL     1      -8.024   4.681  -8.001  0.00  0.00    -0.372 N 
ATOM      3  N   UNL     1      -7.646   3.416  -9.877  0.00  0.00    -0.372 N 
ATOM      4  C   UNL     1      -7.216   4.341  -9.012  0.00  0.00    +0.166 C 
ATOM      5  H   UNL     1      -5.762   5.641  -8.459  0.00  0.00    +0.163 HD
ATOM      6  H   UNL     1      -8.934   4.255  -7.884  0.00  0.00    +0.159 HD
ATOM      7  H   UNL     1      -7.748   5.364  -7.305  0.00  0.00    +0.159 HD
ATOM      8  H   UNL     1      -7.087   3.119 -10.665  0.00  0.00    +0.159 HD
ATOM      9  H   UNL     1      -8.558   2.986  -9.784  0.00  0.00    +0.159 HD
ENDROOT
BRANCH   1  10
ATOM     10  C   UNL     1      -5.040   4.587 -10.164  0.00  0.00    +0.151 C 
BRANCH  10  11
ATOM     11  C   UNL     1      -3.858   3.915  -9.521  0.00  0.00    -0.028 A 
ATOM     12  C   UNL     1      -3.998   2.661  -8.908  0.00  0.00    +0.005 A 
ATOM     13  C   UNL     1      -2.594   4.524  -9.528  0.00  0.00    +0.005 A 
ATOM     14  C   UNL     1      -2.893   2.023  -8.338  0.00  0.00    +0.000 A 
ATOM     15  C   UNL     1      -1.494   3.884  -8.957  0.00  0.00    +0.000 A 
ATOM     16  C   UNL     1      -1.644   2.633  -8.364  0.00  0.00    +0.000 A 
ENDBRANCH  10  11
ENDBRANCH   1  10
TORSDOF 2
ENDMDL
MODEL 6
REMARK VINA RESULT:    -5.447      7.226      8.522
REMARK INTER + INTRA:          -6.127
REMARK INTER:                  -5.986
REMARK INTRA:                  -0.141
REMARK UNBOUND:                -0.043
REMARK  Name = 1550473
REMARK  2 active torsions:
REMARK  status: ('A' for Active; 'I' for Inactive)
REMARK    1  A    between atoms: N_1  and  C_4
REMARK    2  A    between atoms: C_4  and  C_5
REMARK                            x       y       z     vdW  Elec       q    Type
REMARK                         _______ _______ _______ _____ _____    ______ ____
ROOT
ATOM      1  N   UNL     1       2.029  -3.744  -8.204  0.00  0.00    -0.354 N 
ATOM      2  N   UNL     1       4.166  -4.635  -8.127  0.00  0.00    -0.372 N 
ATOM      3  N   UNL     1       2.479  -5.880  -9.058  0.00  0.00    -0.372 N 
ATOM      4  C   UNL     1       2.876  -4.749  -8.464  0.00  0.00    +0.166 C 
ATOM      5  H   UNL     1       2.387  -2.926  -7.725  0.00  0.00    +0.163 HD
ATOM      6  H   UNL     1       4.829  -5.375  -8.313  0.00  0.00    +0.159 HD
ATOM      7  H   UNL     1       4.530  -3.797  -7.689  0.00  0.00    +0.159 HD
ATOM      8  H   UNL     1       1.517  -6.032  -9.332  0.00  0.00    +0.159 HD
ATOM      9  H   UNL     1       3.125  -6.637  -9.243  0.00  0.00    +0.159 HD
ENDROOT
BRANCH   1  10
ATOM     10  C   UNL     1       0.617  -3.747  -8.580  0.00  0.00    +0.151 C 
BRANCH  10  11
ATOM     11  C   UNL     1      -0.202  -3.256  -7.418  0.00  0.00    -0.028 A 
ATOM     12  C   UNL     1       0.387  -3.079  -6.157  0.00  0.00    +0.005 A 
ATOM     13  C   UNL     1      -1.565  -2.960  -7.572  0.00  0.00    +0.005 A 
ATOM     14  C   UNL     1      -0.366  -2.594  -5.085  0.00  0.00    +0.000 A 
ATOM     15  C   UNL     1      -2.313  -2.477  -6.499  0.00  0.00    +0.000 A 
ATOM     16  C   UNL     1      -1.713  -2.292  -5.256  0.00  0.00    +0.000 A 
ENDBRANCH  10  11
ENDBRANCH   1  10
TORSDOF 2
ENDMDL
MODEL 7
REMARK VINA RESULT:    -5.402      4.147      5.452
REMARK INTER + INTRA:          -6.077
REMARK INTER:                  -5.916
REMARK INTRA:                  -0.162
REMARK UNBOUND:                -0.043
REMARK  Name = 1550473
REMARK  2 active torsions:
REMARK  status: ('A' for Active; 'I' for Inactive)
REMARK    1  A    between atoms: N_1  and  C_4
REMARK    2  A    between atoms: C_4  and  C_5
REMARK                            x       y       z     vdW  Elec       q    Type
REMARK                         _______ _______ _______ _____ _____    ______ ____
ROOT
ATOM      1  N   UNL     1       4.935  -6.770   1.892  0.00  0.00    -0.354 N 
ATOM      2  N   UNL     1       6.533  -5.148   2.317  0.00  0.00    -0.372 N 
ATOM      3  N   UNL     1       4.327  -4.668   2.731  0.00  0.00    -0.372 N 
ATOM      4  C   UNL     1       5.252  -5.538   2.311  0.00  0.00    +0.166 C 
ATOM      5  H   UNL     1       5.680  -7.372   1.558  0.00  0.00    +0.163 HD
ATOM      6  H   UNL     1       6.803  -4.226   2.631  0.00  0.00    +0.159 HD
ATOM      7  H   UNL     1       7.280  -5.767   2.026  0.00  0.00    +0.159 HD
ATOM      8  H   UNL     1       3.343  -4.899   2.745  0.00  0.00    +0.159 HD
ATOM      9  H   UNL     1       4.576  -3.736   3.038  0.00  0.00    +0.159 HD
ENDROOT
BRANCH   1  10
ATOM     10  C   UNL     1       3.578  -7.312   1.896  0.00  0.00    +0.151 C 
BRANCH  10  11
ATOM     11  C   UNL     1       2.947  -7.067   0.553  0.00  0.00    -0.028 A 
ATOM     12  C   UNL     1       3.605  -7.452  -0.623  0.00  0.00    +0.005 A 
ATOM     13  C   UNL     1       1.688  -6.455   0.451  0.00  0.00    +0.005 A 
ATOM     14  C   UNL     1       3.007  -7.252  -1.870  0.00  0.00    +0.000 A 
ATOM     15  C   UNL     1       1.094  -6.256  -0.795  0.00  0.00    +0.000 A 
ATOM     16  C   UNL     1       1.753  -6.657  -1.955  0.00  0.00    +0.000 A 
ENDBRANCH  10  11
ENDBRANCH   1  10
TORSDOF 2
ENDMDL
MODEL 8
REMARK VINA RESULT:    -5.314     11.916     12.902
REMARK INTER + INTRA:          -5.978
REMARK INTER:                  -5.874
REMARK INTRA:                  -0.104
REMARK UNBOUND:                -0.043
REMARK  Name = 1550473
REMARK  2 active torsions:
REMARK  status: ('A' for Active; 'I' for Inactive)
REMARK    1  A    between atoms: N_1  and  C_4
REMARK    2  A    between atoms: C_4  and  C_5
REMARK                            x       y       z     vdW  Elec       q    Type
REMARK                         _______ _______ _______ _____ _____    ______ ____
ROOT
ATOM      1  N   UNL     1       2.035  -4.773 -10.639  0.00  0.00    -0.354 N 
ATOM      2  N   UNL     1       0.804  -3.619  -9.052  0.00  0.00    -0.372 N 
ATOM      3  N   UNL     1       2.758  -4.638  -8.414  0.00  0.00    -0.372 N 
ATOM      4  C   UNL     1       1.876  -4.352  -9.377  0.00  0.00    +0.166 C 
ATOM      5  H   UNL     1       1.315  -4.548 -11.316  0.00  0.00    +0.163 HD
ATOM      6  H   UNL     1       0.659  -3.284  -8.109  0.00  0.00    +0.159 HD
ATOM      7  H   UNL     1       0.110  -3.356  -9.741  0.00  0.00    +0.159 HD
ATOM      8  H   UNL     1       3.585  -5.192  -8.592  0.00  0.00    +0.159 HD
ATOM      9  H   UNL     1       2.624  -4.322  -7.461  0.00  0.00    +0.159 HD
ENDROOT
BRANCH   1  10
ATOM     10  C   UNL     1       3.194  -5.531 -11.108  0.00  0.00    +0.151 C 
BRANCH  10  11
ATOM     11  C   UNL     1       2.867  -6.156 -12.436  0.00  0.00    -0.028 A 
ATOM     12  C   UNL     1       3.085  -7.525 -12.651  0.00  0.00    +0.005 A 
ATOM     13  C   UNL     1       2.333  -5.387 -13.481  0.00  0.00    +0.005 A 
ATOM     14  C   UNL     1       2.753  -8.113 -13.874  0.00  0.00    +0.000 A 
ATOM     15  C   UNL     1       2.004  -5.977 -14.701  0.00  0.00    +0.000 A 
ATOM     16  C   UNL     1       2.212  -7.341 -14.896  0.00  0.00    +0.000 A 
ENDBRANCH  10  11
ENDBRANCH   1  10
TORSDOF 2
ENDMDL
MODEL 9
REMARK VINA RESULT:    -4.926      5.637      6.620
REMARK INTER + INTRA:          -5.546
REMARK INTER:                  -5.399
REMARK INTRA:                  -0.147
REMARK UNBOUND:                -0.043
REMARK  Name = 1550473
REMARK  2 active torsions:
REMARK  status: ('A' for Active; 'I' for Inactive)
REMARK    1  A    between atoms: N_1  and  C_4
REMARK    2  A    between atoms: C_4  and  C_5
REMARK                            x       y       z     vdW  Elec       q    Type
REMARK                         _______ _______ _______ _____ _____    ______ ____
ROOT
ATOM      1  N   UNL     1       5.518  -7.219   1.679  0.00  0.00    -0.354 N 
ATOM      2  N   UNL     1       6.517  -5.262   2.409  0.00  0.00    -0.372 N 
ATOM      3  N   UNL     1       4.251  -5.511   2.663  0.00  0.00    -0.372 N 
ATOM      4  C   UNL     1       5.419  -6.010   2.246  0.00  0.00    +0.166 C 
ATOM      5  H   UNL     1       6.428  -7.527   1.356  0.00  0.00    +0.163 HD
ATOM      6  H   UNL     1       6.475  -4.347   2.837  0.00  0.00    +0.159 HD
ATOM      7  H   UNL     1       7.433  -5.591   2.127  0.00  0.00    +0.159 HD
ATOM      8  H   UNL     1       3.384  -6.023   2.564  0.00  0.00    +0.159 HD
ATOM      9  H   UNL     1       4.186  -4.593   3.083  0.00  0.00    +0.159 HD
ENDROOT
BRANCH   1  10
ATOM     10  C   UNL     1       4.391  -8.135   1.504  0.00  0.00    +0.151 C 
BRANCH  10  11
ATOM     11  C   UNL     1       4.090  -8.269   0.037  0.00  0.00    -0.028 A 
ATOM     12  C   UNL     1       4.235  -9.505  -0.610  0.00  0.00    +0.005 A 
ATOM     13  C   UNL     1       3.653  -7.165  -0.711  0.00  0.00    +0.005 A 
ATOM     14  C   UNL     1       3.927  -9.637  -1.966  0.00  0.00    +0.000 A 
ATOM     15  C   UNL     1       3.347  -7.300  -2.065  0.00  0.00    +0.000 A 
ATOM     16  C   UNL     1       3.482  -8.537  -2.691  0.00  0.00    +0.000 A 
ENDBRANCH  10  11
ENDBRANCH   1  10
TORSDOF 2
ENDMDL
