MODEL 1
REMARK VINA RESULT:    -6.143      0.000      0.000
REMARK INTER + INTRA:          -7.036
REMARK INTER:                  -6.861
REMARK INTRA:                  -0.175
REMARK UNBOUND:                -0.175
REMARK  Name = 1550473
REMARK  2 active torsions:
REMARK  status: ('A' for Active; 'I' for Inactive)
REMARK    1  A    between atoms: N_1  and  C_4
REMARK    2  A    between atoms: C_4  and  C_5
REMARK                            x       y       z     vdW  Elec       q    Type
REMARK                         _______ _______ _______ _____ _____    ______ ____
ROOT
ATOM      1  N   UNL     1      11.272   4.231  17.820  0.00  0.00    -0.354 N 
ATOM      2  N   UNL     1      13.059   4.245  19.293  0.00  0.00    -0.372 N 
ATOM      3  N   UNL     1      13.392   3.488  17.152  0.00  0.00    -0.372 N 
ATOM      4  C   UNL     1      12.564   3.986  18.076  0.00  0.00    +0.166 C 
ATOM      5  H   UNL     1      10.689   4.580  18.572  0.00  0.00    +0.163 HD
ATOM      6  H   UNL     1      14.030   4.074  19.515  0.00  0.00    +0.159 HD
ATOM      7  H   UNL     1      12.485   4.637  20.029  0.00  0.00    +0.159 HD
ATOM      8  H   UNL     1      13.079   3.266  16.217  0.00  0.00    +0.159 HD
ATOM      9  H   UNL     1      14.365   3.299  17.359  0.00  0.00    +0.159 HD
ENDROOT
BRANCH   1  10
ATOM     10  C   UNL     1      10.646   4.035  16.513  0.00  0.00    +0.151 C 
BRANCH  10  11
ATOM     11  C   UNL     1      10.657   5.339  15.763  0.00  0.00    -0.028 A 
ATOM     12  C   UNL     1      11.186   5.410  14.466  0.00  0.00    +0.005 A 
ATOM     13  C   UNL     1      10.134   6.505  16.342  0.00  0.00    +0.005 A 
ATOM     14  C   UNL     1      11.169   6.614  13.758  0.00  0.00    +0.000 A 
ATOM     15  C   UNL     1      10.119   7.705  15.632  0.00  0.00    +0.000 A 
ATOM     16  C   UNL     1      10.634   7.759  14.339  0.00  0.00    +0.000 A 
ENDBRANCH  10  11
ENDBRANCH   1  10
TORSDOF 2
ENDMDL
MODEL 2
REMARK VINA RESULT:    -5.898      1.524      2.740
REMARK INTER + INTRA:          -6.763
REMARK INTER:                  -6.639
REMARK INTRA:                  -0.124
REMARK UNBOUND:                -0.175
REMARK  Name = 1550473
REMARK  2 active torsions:
REMARK  status: ('A' for Active; 'I' for Inactive)
REMARK    1  A    between atoms: N_1  and  C_4
REMARK    2  A    between atoms: C_4  and  C_5
REMARK                            x       y       z     vdW  Elec       q    Type
REMARK                         _______ _______ _______ _____ _____    ______ ____
ROOT
ATOM      1  N   UNL     1      10.566   5.359  16.066  0.00  0.00    -0.354 N 
ATOM      2  N   UNL     1      11.068   3.816  17.718  0.00  0.00    -0.372 N 
ATOM      3  N   UNL     1      11.728   3.388  15.563  0.00  0.00    -0.372 N 
ATOM      4  C   UNL     1      11.118   4.196  16.436  0.00  0.00    +0.166 C 
ATOM      5  H   UNL     1      10.092   5.913  16.770  0.00  0.00    +0.163 HD
ATOM      6  H   UNL     1      11.479   2.946  18.027  0.00  0.00    +0.159 HD
ATOM      7  H   UNL     1      10.634   4.393  18.428  0.00  0.00    +0.159 HD
ATOM      8  H   UNL     1      11.795   3.614  14.579  0.00  0.00    +0.159 HD
ATOM      9  H   UNL     1      12.135   2.507  15.851  0.00  0.00    +0.159 HD
ENDROOT
BRANCH   1  10
ATOM     10  C   UNL     1      10.613   5.891  14.705  0.00  0.00    +0.151 C 
BRANCH  10  11
ATOM     11  C   UNL     1      10.509   7.390  14.759  0.00  0.00    -0.028 A 
ATOM     12  C   UNL     1       9.980   8.027  15.891  0.00  0.00    +0.005 A 
ATOM     13  C   UNL     1      10.943   8.180  13.683  0.00  0.00    +0.005 A 
ATOM     14  C   UNL     1       9.911   9.421  15.954  0.00  0.00    +0.000 A 
ATOM     15  C   UNL     1      10.872   9.571  13.750  0.00  0.00    +0.000 A 
ATOM     16  C   UNL     1      10.358  10.191  14.886  0.00  0.00    +0.000 A 
ENDBRANCH  10  11
ENDBRANCH   1  10
TORSDOF 2
ENDMDL
MODEL 3
REMARK VINA RESULT:    -5.318      4.680      5.420
REMARK INTER + INTRA:          -6.115
REMARK INTER:                  -5.982
REMARK INTRA:                  -0.133
REMARK UNBOUND:                -0.175
REMARK  Name = 1550473
REMARK  2 active torsions:
REMARK  status: ('A' for Active; 'I' for Inactive)
REMARK    1  A    between atoms: N_1  and  C_4
REMARK    2  A    between atoms: C_4  and  C_5
REMARK                            x       y       z     vdW  Elec       q    Type
REMARK                         _______ _______ _______ _____ _____    ______ ____
ROOT
ATOM      1  N   UNL     1       8.762   4.444  15.012  0.00  0.00    -0.354 N 
ATOM      2  N   UNL     1      10.500   3.391  16.123  0.00  0.00    -0.372 N 
ATOM      3  N   UNL     1       9.794   5.445  16.862  0.00  0.00    -0.372 N 
ATOM      4  C   UNL     1       9.674   4.436  15.993  0.00  0.00    +0.166 C 
ATOM      5  H   UNL     1       8.742   3.662  14.367  0.00  0.00    +0.163 HD
ATOM      6  H   UNL     1      11.196   3.355  16.856  0.00  0.00    +0.159 HD
ATOM      7  H   UNL     1      10.447   2.590  15.506  0.00  0.00    +0.159 HD
ATOM      8  H   UNL     1       9.205   6.266  16.814  0.00  0.00    +0.159 HD
ATOM      9  H   UNL     1      10.493   5.433  17.595  0.00  0.00    +0.159 HD
ENDROOT
BRANCH   1  10
ATOM     10  C   UNL     1       7.780   5.509  14.817  0.00  0.00    +0.151 C 
BRANCH  10  11
ATOM     11  C   UNL     1       6.416   4.896  14.660  0.00  0.00    -0.028 A 
ATOM     12  C   UNL     1       5.752   4.344  15.765  0.00  0.00    +0.005 A 
ATOM     13  C   UNL     1       5.778   4.870  13.410  0.00  0.00    +0.005 A 
ATOM     14  C   UNL     1       4.472   3.802  15.626  0.00  0.00    +0.000 A 
ATOM     15  C   UNL     1       4.501   4.327  13.275  0.00  0.00    +0.000 A 
ATOM     16  C   UNL     1       3.847   3.795  14.384  0.00  0.00    +0.000 A 
ENDBRANCH  10  11
ENDBRANCH   1  10
TORSDOF 2
ENDMDL
MODEL 4
REMARK VINA RESULT:    -5.113     19.695     21.271
REMARK INTER + INTRA:          -5.886
REMARK INTER:                  -5.777
REMARK INTRA:                  -0.109
REMARK UNBOUND:                -0.175
REMARK  Name = 1550473
REMARK  2 active torsions:
REMARK  status: ('A' for Active; 'I' for Inactive)
REMARK    1  A    between atoms: N_1  and  C_4
REMARK    2  A    between atoms: C_4  and  C_5
REMARK                            x       y       z     vdW  Elec       q    Type
REMARK                         _______ _______ _______ _____ _____    ______ ____
ROOT
ATOM      1  N   UNL     1       8.273  23.706   5.273  0.00  0.00    -0.354 N 
ATOM      2  N   UNL     1       8.450  25.909   4.581  0.00  0.00    -0.372 N 
ATOM      3  N   UNL     1       6.413  24.862   4.439  0.00  0.00    -0.372 N 
ATOM      4  C   UNL     1       7.708  24.811   4.768  0.00  0.00    +0.166 C 
ATOM      5  H   UNL     1       9.266  23.722   5.473  0.00  0.00    +0.163 HD
ATOM      6  H   UNL     1       8.051  26.759   4.205  0.00  0.00    +0.159 HD
ATOM      7  H   UNL     1       9.432  25.937   4.825  0.00  0.00    +0.159 HD
ATOM      8  H   UNL     1       5.800  24.066   4.550  0.00  0.00    +0.159 HD
ATOM      9  H   UNL     1       5.998  25.700   4.050  0.00  0.00    +0.159 HD
ENDROOT
BRANCH   1  10
ATOM     10  C   UNL     1       7.542  22.475   5.565  0.00  0.00    +0.151 C 
BRANCH  10  11
ATOM     11  C   UNL     1       8.030  21.384   4.652  0.00  0.00    -0.028 A 
ATOM     12  C   UNL     1       8.891  21.682   3.585  0.00  0.00    +0.005 A 
ATOM     13  C   UNL     1       7.640  20.051   4.851  0.00  0.00    +0.005 A 
ATOM     14  C   UNL     1       9.369  20.665   2.755  0.00  0.00    +0.000 A 
ATOM     15  C   UNL     1       8.118  19.039   4.019  0.00  0.00    +0.000 A 
ATOM     16  C   UNL     1       8.985  19.346   2.973  0.00  0.00    +0.000 A 
ENDBRANCH  10  11
ENDBRANCH   1  10
TORSDOF 2
ENDMDL
MODEL 5
REMARK VINA RESULT:    -5.023     21.049     22.287
REMARK INTER + INTRA:          -5.786
REMARK INTER:                  -5.621
REMARK INTRA:                  -0.165
REMARK UNBOUND:                -0.175
REMARK  Name = 1550473
REMARK  2 active torsions:
REMARK  status: ('A' for Active; 'I' for Inactive)
REMARK    1  A    between atoms: N_1  and  C_4
REMARK    2  A    between atoms: C_4  and  C_5
REMARK                            x       y       z     vdW  Elec       q    Type
REMARK                         _______ _______ _______ _____ _____    ______ ____
ROOT
ATOM      1  N   UNL     1       5.255  13.603  -3.187  0.00  0.00    -0.354 N 
ATOM      2  N   UNL     1       4.891  13.103  -5.418  0.00  0.00    -0.372 N 
ATOM      3  N   UNL     1       3.182  14.025  -4.196  0.00  0.00    -0.372 N 
ATOM      4  C   UNL     1       4.442  13.581  -4.252  0.00  0.00    +0.166 C 
ATOM      5  H   UNL     1       6.190  13.225  -3.286  0.00  0.00    +0.163 HD
ATOM      6  H   UNL     1       4.302  13.077  -6.240  0.00  0.00    +0.159 HD
ATOM      7  H   UNL     1       5.841  12.768  -5.527  0.00  0.00    +0.159 HD
ATOM      8  H   UNL     1       2.781  14.392  -3.343  0.00  0.00    +0.159 HD
ATOM      9  H   UNL     1       2.574  13.996  -5.004  0.00  0.00    +0.159 HD
ENDROOT
BRANCH   1  10
ATOM     10  C   UNL     1       4.881  14.153  -1.885  0.00  0.00    +0.151 C 
BRANCH  10  11
ATOM     11  C   UNL     1       5.693  15.391  -1.623  0.00  0.00    -0.028 A 
ATOM     12  C   UNL     1       5.202  16.654  -1.984  0.00  0.00    +0.005 A 
ATOM     13  C   UNL     1       6.952  15.309  -1.008  0.00  0.00    +0.005 A 
ATOM     14  C   UNL     1       5.942  17.808  -1.714  0.00  0.00    +0.000 A 
ATOM     15  C   UNL     1       7.689  16.463  -0.741  0.00  0.00    +0.000 A 
ATOM     16  C   UNL     1       7.182  17.712  -1.092  0.00  0.00    +0.000 A 
ENDBRANCH  10  11
ENDBRANCH   1  10
TORSDOF 2
ENDMDL
MODEL 6
REMARK VINA RESULT:    -5.017     21.088     22.281
REMARK INTER + INTRA:          -5.778
REMARK INTER:                  -5.607
REMARK INTRA:                  -0.171
REMARK UNBOUND:                -0.175
REMARK  Name = 1550473
REMARK  2 active torsions:
REMARK  status: ('A' for Active; 'I' for Inactive)
REMARK    1  A    between atoms: N_1  and  C_4
REMARK    2  A    between atoms: C_4  and  C_5
REMARK                            x       y       z     vdW  Elec       q    Type
REMARK                         _______ _______ _______ _____ _____    ______ ____
ROOT
ATOM      1  N   UNL     1       5.229  13.557  -3.109  0.00  0.00    -0.354 N 
ATOM      2  N   UNL     1       4.865  13.030  -5.335  0.00  0.00    -0.372 N 
ATOM      3  N   UNL     1       3.162  13.982  -4.128  0.00  0.00    -0.372 N 
ATOM      4  C   UNL     1       4.418  13.527  -4.175  0.00  0.00    +0.166 C 
ATOM      5  H   UNL     1       6.160  13.169  -3.201  0.00  0.00    +0.163 HD
ATOM      6  H   UNL     1       4.278  12.998  -6.157  0.00  0.00    +0.159 HD
ATOM      7  H   UNL     1       5.812  12.685  -5.437  0.00  0.00    +0.159 HD
ATOM      8  H   UNL     1       2.762  14.365  -3.282  0.00  0.00    +0.159 HD
ATOM      9  H   UNL     1       2.555  13.948  -4.938  0.00  0.00    +0.159 HD
ENDROOT
BRANCH   1  10
ATOM     10  C   UNL     1       4.857  14.127  -1.815  0.00  0.00    +0.151 C 
BRANCH  10  11
ATOM     11  C   UNL     1       5.620  15.406  -1.604  0.00  0.00    -0.028 A 
ATOM     12  C   UNL     1       6.916  15.381  -1.069  0.00  0.00    +0.005 A 
ATOM     13  C   UNL     1       5.055  16.645  -1.943  0.00  0.00    +0.005 A 
ATOM     14  C   UNL     1       7.637  16.566  -0.901  0.00  0.00    +0.000 A 
ATOM     15  C   UNL     1       5.778  17.825  -1.772  0.00  0.00    +0.000 A 
ATOM     16  C   UNL     1       7.070  17.785  -1.254  0.00  0.00    +0.000 A 
ENDBRANCH  10  11
ENDBRANCH   1  10
TORSDOF 2
ENDMDL
MODEL 7
REMARK VINA RESULT:    -4.856     25.361     26.509
REMARK INTER + INTRA:          -5.599
REMARK INTER:                  -5.453
REMARK INTRA:                  -0.146
REMARK UNBOUND:                -0.175
REMARK  Name = 1550473
REMARK  2 active torsions:
REMARK  status: ('A' for Active; 'I' for Inactive)
REMARK    1  A    between atoms: N_1  and  C_4
REMARK    2  A    between atoms: C_4  and  C_5
REMARK                            x       y       z     vdW  Elec       q    Type
REMARK                         _______ _______ _______ _____ _____    ______ ____
ROOT
ATOM      1  N   UNL     1       7.080 -11.622  -4.568  0.00  0.00    -0.354 N 
ATOM      2  N   UNL     1       4.889 -12.062  -3.961  0.00  0.00    -0.372 N 
ATOM      3  N   UNL     1       5.304 -11.123  -6.013  0.00  0.00    -0.372 N 
ATOM      4  C   UNL     1       5.772 -11.598  -4.854  0.00  0.00    +0.166 C 
ATOM      5  H   UNL     1       7.368 -11.967  -3.660  0.00  0.00    +0.163 HD
ATOM      6  H   UNL     1       3.895 -12.060  -4.151  0.00  0.00    +0.159 HD
ATOM      7  H   UNL     1       5.183 -12.448  -3.073  0.00  0.00    +0.159 HD
ATOM      8  H   UNL     1       5.918 -10.753  -6.727  0.00  0.00    +0.159 HD
ATOM      9  H   UNL     1       4.313 -11.101  -6.216  0.00  0.00    +0.159 HD
ENDROOT
BRANCH   1  10
ATOM     10  C   UNL     1       8.127 -11.191  -5.492  0.00  0.00    +0.151 C 
BRANCH  10  11
ATOM     11  C   UNL     1       8.944 -10.110  -4.840  0.00  0.00    -0.028 A 
ATOM     12  C   UNL     1       8.714  -9.753  -3.503  0.00  0.00    +0.005 A 
ATOM     13  C   UNL     1       9.954  -9.444  -5.550  0.00  0.00    +0.005 A 
ATOM     14  C   UNL     1       9.493  -8.770  -2.887  0.00  0.00    +0.000 A 
ATOM     15  C   UNL     1      10.729  -8.463  -4.932  0.00  0.00    +0.000 A 
ATOM     16  C   UNL     1      10.500  -8.128  -3.600  0.00  0.00    +0.000 A 
ENDBRANCH  10  11
ENDBRANCH   1  10
TORSDOF 2
ENDMDL
MODEL 8
REMARK VINA RESULT:    -4.741     21.933     23.492
REMARK INTER + INTRA:          -5.470
REMARK INTER:                  -5.331
REMARK INTRA:                  -0.139
REMARK UNBOUND:                -0.175
REMARK  Name = 1550473
REMARK  2 active torsions:
REMARK  status: ('A' for Active; 'I' for Inactive)
REMARK    1  A    between atoms: N_1  and  C_4
REMARK    2  A    between atoms: C_4  and  C_5
REMARK                            x       y       z     vdW  Elec       q    Type
REMARK                         _______ _______ _______ _____ _____    ______ ____
ROOT
ATOM      1  N   UNL     1       8.994   5.092  -8.114  0.00  0.00    -0.354 N 
ATOM      2  N   UNL     1       7.156   6.418  -8.593  0.00  0.00    -0.372 N 
ATOM      3  N   UNL     1       9.191   7.423  -8.253  0.00  0.00    -0.372 N 
ATOM      4  C   UNL     1       8.461   6.304  -8.317  0.00  0.00    +0.166 C 
ATOM      5  H   UNL     1       8.382   4.285  -8.147  0.00  0.00    +0.163 HD
ATOM      6  H   UNL     1       6.727   7.319  -8.754  0.00  0.00    +0.159 HD
ATOM      7  H   UNL     1       6.556   5.606  -8.670  0.00  0.00    +0.159 HD
ATOM      8  H   UNL     1      10.180   7.407  -8.043  0.00  0.00    +0.159 HD
ATOM      9  H   UNL     1       8.776   8.335  -8.399  0.00  0.00    +0.159 HD
ENDROOT
BRANCH   1  10
ATOM     10  C   UNL     1      10.414   4.856  -7.860  0.00  0.00    +0.151 C 
BRANCH  10  11
ATOM     11  C   UNL     1      10.566   4.144  -6.544  0.00  0.00    -0.028 A 
ATOM     12  C   UNL     1      10.991   4.839  -5.403  0.00  0.00    +0.005 A 
ATOM     13  C   UNL     1      10.279   2.775  -6.430  0.00  0.00    +0.005 A 
ATOM     14  C   UNL     1      11.103   4.185  -4.174  0.00  0.00    +0.000 A 
ATOM     15  C   UNL     1      10.393   2.125  -5.201  0.00  0.00    +0.000 A 
ATOM     16  C   UNL     1      10.802   2.831  -4.073  0.00  0.00    +0.000 A 
ENDBRANCH  10  11
ENDBRANCH   1  10
TORSDOF 2
ENDMDL
MODEL 9
REMARK VINA RESULT:    -4.656     11.793     13.147
REMARK INTER + INTRA:          -5.376
REMARK INTER:                  -5.237
REMARK INTRA:                  -0.138
REMARK UNBOUND:                -0.175
REMARK  Name = 1550473
REMARK  2 active torsions:
REMARK  status: ('A' for Active; 'I' for Inactive)
REMARK    1  A    between atoms: N_1  and  C_4
REMARK    2  A    between atoms: C_4  and  C_5
REMARK                            x       y       z     vdW  Elec       q    Type
REMARK                         _______ _______ _______ _____ _____    ______ ____
ROOT
ATOM      1  N   UNL     1      13.023   1.271   4.641  0.00  0.00    -0.354 N 
ATOM      2  N   UNL     1      13.536   0.558   6.784  0.00  0.00    -0.372 N 
ATOM      3  N   UNL     1      14.203   2.652   6.122  0.00  0.00    -0.372 N 
ATOM      4  C   UNL     1      13.585   1.501   5.835  0.00  0.00    +0.166 C 
ATOM      5  H   UNL     1      12.596   0.366   4.476  0.00  0.00    +0.163 HD
ATOM      6  H   UNL     1      13.948   0.705   7.696  0.00  0.00    +0.159 HD
ATOM      7  H   UNL     1      13.068  -0.327   6.632  0.00  0.00    +0.159 HD
ATOM      8  H   UNL     1      14.280   3.401   5.447  0.00  0.00    +0.159 HD
ATOM      9  H   UNL     1      14.631   2.812   7.025  0.00  0.00    +0.159 HD
ENDROOT
BRANCH   1  10
ATOM     10  C   UNL     1      12.975   2.251   3.558  0.00  0.00    +0.151 C 
BRANCH  10  11
ATOM     11  C   UNL     1      11.597   2.250   2.955  0.00  0.00    -0.028 A 
ATOM     12  C   UNL     1      11.404   2.632   1.619  0.00  0.00    +0.005 A 
ATOM     13  C   UNL     1      10.481   1.862   3.712  0.00  0.00    +0.005 A 
ATOM     14  C   UNL     1      10.128   2.603   1.050  0.00  0.00    +0.000 A 
ATOM     15  C   UNL     1       9.209   1.834   3.141  0.00  0.00    +0.000 A 
ATOM     16  C   UNL     1       9.034   2.202   1.809  0.00  0.00    +0.000 A 
ENDBRANCH  10  11
ENDBRANCH   1  10
TORSDOF 2
ENDMDL
