MODEL 1
REMARK VINA RESULT:    -5.325      0.000      0.000
REMARK INTER + INTRA:          -6.085
REMARK INTER:                  -5.948
REMARK INTRA:                  -0.138
REMARK UNBOUND:                -0.138
REMARK  Name = 1550473
REMARK  2 active torsions:
REMARK  status: ('A' for Active; 'I' for Inactive)
REMARK    1  A    between atoms: N_1  and  C_4
REMARK    2  A    between atoms: C_4  and  C_5
REMARK                            x       y       z     vdW  Elec       q    Type
REMARK                         _______ _______ _______ _____ _____    ______ ____
ROOT
ATOM      1  N   UNL     1     -10.965   8.606  -7.776  0.00  0.00    -0.354 N 
ATOM      2  N   UNL     1      -9.492   6.921  -7.181  0.00  0.00    -0.372 N 
ATOM      3  N   UNL     1     -11.227   6.427  -8.599  0.00  0.00    -0.372 N 
ATOM      4  C   UNL     1     -10.573   7.328  -7.857  0.00  0.00    +0.166 C 
ATOM      5  H   UNL     1     -10.444   9.232  -7.173  0.00  0.00    +0.163 HD
ATOM      6  H   UNL     1      -9.170   5.964  -7.226  0.00  0.00    +0.159 HD
ATOM      7  H   UNL     1      -8.946   7.560  -6.615  0.00  0.00    +0.159 HD
ATOM      8  H   UNL     1     -12.054   6.669  -9.129  0.00  0.00    +0.159 HD
ATOM      9  H   UNL     1     -10.927   5.462  -8.647  0.00  0.00    +0.159 HD
ENDROOT
BRANCH   1  10
ATOM     10  C   UNL     1     -12.097   9.163  -8.516  0.00  0.00    +0.151 C 
BRANCH  10  11
ATOM     11  C   UNL     1     -13.025   9.847  -7.550  0.00  0.00    -0.028 A 
ATOM     12  C   UNL     1     -14.409   9.857  -7.780  0.00  0.00    +0.005 A 
ATOM     13  C   UNL     1     -12.528  10.482  -6.402  0.00  0.00    +0.005 A 
ATOM     14  C   UNL     1     -15.275  10.466  -6.868  0.00  0.00    +0.000 A 
ATOM     15  C   UNL     1     -13.396  11.090  -5.495  0.00  0.00    +0.000 A 
ATOM     16  C   UNL     1     -14.769  11.080  -5.727  0.00  0.00    +0.000 A 
ENDBRANCH  10  11
ENDBRANCH   1  10
TORSDOF 2
ENDMDL
MODEL 2
REMARK VINA RESULT:    -4.818     19.914     20.862
REMARK INTER + INTRA:          -5.519
REMARK INTER:                  -5.372
REMARK INTRA:                  -0.147
REMARK UNBOUND:                -0.138
REMARK  Name = 1550473
REMARK  2 active torsions:
REMARK  status: ('A' for Active; 'I' for Inactive)
REMARK    1  A    between atoms: N_1  and  C_4
REMARK    2  A    between atoms: C_4  and  C_5
REMARK                            x       y       z     vdW  Elec       q    Type
REMARK                         _______ _______ _______ _____ _____    ______ ____
ROOT
ATOM      1  N   UNL     1     -15.958 -10.032   3.541  0.00  0.00    -0.354 N 
ATOM      2  N   UNL     1     -15.036 -11.878   4.593  0.00  0.00    -0.372 N 
ATOM      3  N   UNL     1     -14.347 -11.354   2.468  0.00  0.00    -0.372 N 
ATOM      4  C   UNL     1     -15.119 -11.076   3.524  0.00  0.00    +0.166 C 
ATOM      5  H   UNL     1     -16.538  -9.893   4.361  0.00  0.00    +0.163 HD
ATOM      6  H   UNL     1     -14.409 -12.671   4.611  0.00  0.00    +0.159 HD
ATOM      7  H   UNL     1     -15.583 -11.710   5.429  0.00  0.00    +0.159 HD
ATOM      8  H   UNL     1     -14.367 -10.791   1.628  0.00  0.00    +0.159 HD
ATOM      9  H   UNL     1     -13.722 -12.150   2.463  0.00  0.00    +0.159 HD
ENDROOT
BRANCH   1  10
ATOM     10  C   UNL     1     -16.085  -9.067   2.450  0.00  0.00    +0.151 C 
BRANCH  10  11
ATOM     11  C   UNL     1     -15.774  -7.692   2.972  0.00  0.00    -0.028 A 
ATOM     12  C   UNL     1     -15.675  -7.460   4.352  0.00  0.00    +0.005 A 
ATOM     13  C   UNL     1     -15.572  -6.618   2.092  0.00  0.00    +0.005 A 
ATOM     14  C   UNL     1     -15.357  -6.188   4.836  0.00  0.00    +0.000 A 
ATOM     15  C   UNL     1     -15.255  -5.350   2.580  0.00  0.00    +0.000 A 
ATOM     16  C   UNL     1     -15.145  -5.136   3.952  0.00  0.00    +0.000 A 
ENDBRANCH  10  11
ENDBRANCH   1  10
TORSDOF 2
ENDMDL
MODEL 3
REMARK VINA RESULT:    -4.750     20.013     20.947
REMARK INTER + INTRA:          -5.443
REMARK INTER:                  -5.296
REMARK INTRA:                  -0.147
REMARK UNBOUND:                -0.138
REMARK  Name = 1550473
REMARK  2 active torsions:
REMARK  status: ('A' for Active; 'I' for Inactive)
REMARK    1  A    between atoms: N_1  and  C_4
REMARK    2  A    between atoms: C_4  and  C_5
REMARK                            x       y       z     vdW  Elec       q    Type
REMARK                         _______ _______ _______ _____ _____    ______ ____
ROOT
ATOM      1  N   UNL     1     -16.050 -10.205   3.485  0.00  0.00    -0.354 N 
ATOM      2  N   UNL     1     -15.012 -12.013   4.494  0.00  0.00    -0.372 N 
ATOM      3  N   UNL     1     -14.339 -11.378   2.395  0.00  0.00    -0.372 N 
ATOM      4  C   UNL     1     -15.139 -11.187   3.449  0.00  0.00    +0.166 C 
ATOM      5  H   UNL     1     -16.647 -10.133   4.300  0.00  0.00    +0.163 HD
ATOM      6  H   UNL     1     -14.331 -12.761   4.497  0.00  0.00    +0.159 HD
ATOM      7  H   UNL     1     -15.579 -11.910   5.327  0.00  0.00    +0.159 HD
ATOM      8  H   UNL     1     -14.388 -10.792   1.572  0.00  0.00    +0.159 HD
ATOM      9  H   UNL     1     -13.659 -12.128   2.374  0.00  0.00    +0.159 HD
ENDROOT
BRANCH   1  10
ATOM     10  C   UNL     1     -16.232  -9.219   2.421  0.00  0.00    +0.151 C 
BRANCH  10  11
ATOM     11  C   UNL     1     -15.860  -7.859   2.944  0.00  0.00    -0.028 A 
ATOM     12  C   UNL     1     -15.640  -6.792   2.060  0.00  0.00    +0.005 A 
ATOM     13  C   UNL     1     -15.733  -7.629   4.323  0.00  0.00    +0.005 A 
ATOM     14  C   UNL     1     -15.324  -5.521   2.547  0.00  0.00    +0.000 A 
ATOM     15  C   UNL     1     -15.416  -6.359   4.804  0.00  0.00    +0.000 A 
ATOM     16  C   UNL     1     -15.214  -5.305   3.916  0.00  0.00    +0.000 A 
ENDBRANCH  10  11
ENDBRANCH   1  10
TORSDOF 2
ENDMDL
MODEL 4
REMARK VINA RESULT:    -4.646     22.914     25.816
REMARK INTER + INTRA:          -5.327
REMARK INTER:                  -5.207
REMARK INTRA:                  -0.121
REMARK UNBOUND:                -0.138
REMARK  Name = 1550473
REMARK  2 active torsions:
REMARK  status: ('A' for Active; 'I' for Inactive)
REMARK    1  A    between atoms: N_1  and  C_4
REMARK    2  A    between atoms: C_4  and  C_5
REMARK                            x       y       z     vdW  Elec       q    Type
REMARK                         _______ _______ _______ _____ _____    ______ ____
ROOT
ATOM      1  N   UNL     1       9.576   2.423 -11.676  0.00  0.00    -0.354 N 
ATOM      2  N   UNL     1       8.829   4.127 -10.296  0.00  0.00    -0.372 N 
ATOM      3  N   UNL     1       9.673   4.662 -12.362  0.00  0.00    -0.372 N 
ATOM      4  C   UNL     1       9.365   3.728 -11.456  0.00  0.00    +0.166 C 
ATOM      5  H   UNL     1       9.349   1.768 -10.937  0.00  0.00    +0.163 HD
ATOM      6  H   UNL     1       8.655   5.105 -10.104  0.00  0.00    +0.159 HD
ATOM      7  H   UNL     1       8.560   3.466  -9.578  0.00  0.00    +0.159 HD
ATOM      8  H   UNL     1      10.086   4.427 -13.255  0.00  0.00    +0.159 HD
ATOM      9  H   UNL     1       9.517   5.646 -12.183  0.00  0.00    +0.159 HD
ENDROOT
BRANCH   1  10
ATOM     10  C   UNL     1      10.105   1.880 -12.925  0.00  0.00    +0.151 C 
BRANCH  10  11
ATOM     11  C   UNL     1      11.447   1.256 -12.660  0.00  0.00    -0.028 A 
ATOM     12  C   UNL     1      12.035   1.345 -11.390  0.00  0.00    +0.005 A 
ATOM     13  C   UNL     1      12.134   0.569 -13.674  0.00  0.00    +0.005 A 
ATOM     14  C   UNL     1      13.268   0.740 -11.135  0.00  0.00    +0.000 A 
ATOM     15  C   UNL     1      13.365  -0.033 -13.415  0.00  0.00    +0.000 A 
ATOM     16  C   UNL     1      13.931   0.050 -12.145  0.00  0.00    +0.000 A 
ENDBRANCH  10  11
ENDBRANCH   1  10
TORSDOF 2
ENDMDL
MODEL 5
REMARK VINA RESULT:    -4.441      2.591      3.648
REMARK INTER + INTRA:          -5.098
REMARK INTER:                  -4.937
REMARK INTRA:                  -0.162
REMARK UNBOUND:                -0.138
REMARK  Name = 1550473
REMARK  2 active torsions:
REMARK  status: ('A' for Active; 'I' for Inactive)
REMARK    1  A    between atoms: N_1  and  C_4
REMARK    2  A    between atoms: C_4  and  C_5
REMARK                            x       y       z     vdW  Elec       q    Type
REMARK                         _______ _______ _______ _____ _____    ______ ____
ROOT
ATOM      1  N   UNL     1     -12.363   6.777  -8.151  0.00  0.00    -0.354 N 
ATOM      2  N   UNL     1     -10.141   6.591  -8.777  0.00  0.00    -0.372 N 
ATOM      3  N   UNL     1     -10.816   8.459  -7.628  0.00  0.00    -0.372 N 
ATOM      4  C   UNL     1     -11.121   7.279  -8.180  0.00  0.00    +0.166 C 
ATOM      5  H   UNL     1     -12.535   5.892  -8.615  0.00  0.00    +0.163 HD
ATOM      6  H   UNL     1      -9.193   6.943  -8.812  0.00  0.00    +0.159 HD
ATOM      7  H   UNL     1     -10.306   5.685  -9.199  0.00  0.00    +0.159 HD
ATOM      8  H   UNL     1     -11.512   9.030  -7.168  0.00  0.00    +0.159 HD
ATOM      9  H   UNL     1      -9.876   8.833  -7.663  0.00  0.00    +0.159 HD
ENDROOT
BRANCH   1  10
ATOM     10  C   UNL     1     -13.490   7.422  -7.480  0.00  0.00    +0.151 C 
BRANCH  10  11
ATOM     11  C   UNL     1     -14.539   7.765  -8.502  0.00  0.00    -0.028 A 
ATOM     12  C   UNL     1     -14.411   8.915  -9.295  0.00  0.00    +0.005 A 
ATOM     13  C   UNL     1     -15.660   6.942  -8.686  0.00  0.00    +0.005 A 
ATOM     14  C   UNL     1     -15.369   9.218 -10.265  0.00  0.00    +0.000 A 
ATOM     15  C   UNL     1     -16.615   7.248  -9.655  0.00  0.00    +0.000 A 
ATOM     16  C   UNL     1     -16.468   8.385 -10.446  0.00  0.00    +0.000 A 
ENDBRANCH  10  11
ENDBRANCH   1  10
TORSDOF 2
ENDMDL
MODEL 6
REMARK VINA RESULT:    -4.422     27.973     30.646
REMARK INTER + INTRA:          -5.077
REMARK INTER:                  -4.904
REMARK INTRA:                  -0.173
REMARK UNBOUND:                -0.138
REMARK  Name = 1550473
REMARK  2 active torsions:
REMARK  status: ('A' for Active; 'I' for Inactive)
REMARK    1  A    between atoms: N_1  and  C_4
REMARK    2  A    between atoms: C_4  and  C_5
REMARK                            x       y       z     vdW  Elec       q    Type
REMARK                         _______ _______ _______ _____ _____    ______ ____
ROOT
ATOM      1  N   UNL     1      13.817   1.071   0.558  0.00  0.00    -0.354 N 
ATOM      2  N   UNL     1      12.269   0.721  -1.129  0.00  0.00    -0.372 N 
ATOM      3  N   UNL     1      13.573   2.609  -1.194  0.00  0.00    -0.372 N 
ATOM      4  C   UNL     1      13.231   1.472  -0.578  0.00  0.00    +0.166 C 
ATOM      5  H   UNL     1      13.492   0.215   0.992  0.00  0.00    +0.163 HD
ATOM      6  H   UNL     1      11.811   0.996  -1.988  0.00  0.00    +0.159 HD
ATOM      7  H   UNL     1      11.978  -0.157  -0.718  0.00  0.00    +0.159 HD
ATOM      8  H   UNL     1      14.287   3.223  -0.827  0.00  0.00    +0.159 HD
ATOM      9  H   UNL     1      13.118   2.906  -2.048  0.00  0.00    +0.159 HD
ENDROOT
BRANCH   1  10
ATOM     10  C   UNL     1      14.911   1.789   1.210  0.00  0.00    +0.151 C 
BRANCH  10  11
ATOM     11  C   UNL     1      16.215   1.137   0.841  0.00  0.00    -0.028 A 
ATOM     12  C   UNL     1      16.958   1.601  -0.255  0.00  0.00    +0.005 A 
ATOM     13  C   UNL     1      16.717   0.059   1.586  0.00  0.00    +0.005 A 
ATOM     14  C   UNL     1      18.184   1.016  -0.580  0.00  0.00    +0.000 A 
ATOM     15  C   UNL     1      17.940  -0.524   1.257  0.00  0.00    +0.000 A 
ATOM     16  C   UNL     1      18.675  -0.043   0.175  0.00  0.00    +0.000 A 
ENDBRANCH  10  11
ENDBRANCH   1  10
TORSDOF 2
ENDMDL
MODEL 7
REMARK VINA RESULT:    -4.312      2.639      3.454
REMARK INTER + INTRA:          -4.953
REMARK INTER:                  -4.786
REMARK INTRA:                  -0.168
REMARK UNBOUND:                -0.138
REMARK  Name = 1550473
REMARK  2 active torsions:
REMARK  status: ('A' for Active; 'I' for Inactive)
REMARK    1  A    between atoms: N_1  and  C_4
REMARK    2  A    between atoms: C_4  and  C_5
REMARK                            x       y       z     vdW  Elec       q    Type
REMARK                         _______ _______ _______ _____ _____    ______ ____
ROOT
ATOM      1  N   UNL     1     -15.217   6.474  -7.514  0.00  0.00    -0.354 N 
ATOM      2  N   UNL     1     -14.742   4.419  -6.559  0.00  0.00    -0.372 N 
ATOM      3  N   UNL     1     -13.578   5.069  -8.426  0.00  0.00    -0.372 N 
ATOM      4  C   UNL     1     -14.514   5.334  -7.508  0.00  0.00    +0.166 C 
ATOM      5  H   UNL     1     -15.934   6.601  -6.809  0.00  0.00    +0.163 HD
ATOM      6  H   UNL     1     -14.225   3.550  -6.527  0.00  0.00    +0.159 HD
ATOM      7  H   UNL     1     -15.427   4.568  -5.828  0.00  0.00    +0.159 HD
ATOM      8  H   UNL     1     -13.362   5.716  -9.172  0.00  0.00    +0.159 HD
ATOM      9  H   UNL     1     -13.058   4.201  -8.417  0.00  0.00    +0.159 HD
ENDROOT
BRANCH   1  10
ATOM     10  C   UNL     1     -15.009   7.559  -8.472  0.00  0.00    +0.151 C 
BRANCH  10  11
ATOM     11  C   UNL     1     -14.002   8.524  -7.910  0.00  0.00    -0.028 A 
ATOM     12  C   UNL     1     -14.288   9.253  -6.746  0.00  0.00    +0.005 A 
ATOM     13  C   UNL     1     -12.758   8.710  -8.532  0.00  0.00    +0.005 A 
ATOM     14  C   UNL     1     -13.342  10.128  -6.206  0.00  0.00    +0.000 A 
ATOM     15  C   UNL     1     -11.817   9.585  -7.990  0.00  0.00    +0.000 A 
ATOM     16  C   UNL     1     -12.108  10.291  -6.826  0.00  0.00    +0.000 A 
ENDBRANCH  10  11
ENDBRANCH   1  10
TORSDOF 2
ENDMDL
MODEL 8
REMARK VINA RESULT:    -4.286     29.298     30.534
REMARK INTER + INTRA:          -4.925
REMARK INTER:                  -4.773
REMARK INTRA:                  -0.151
REMARK UNBOUND:                -0.138
REMARK  Name = 1550473
REMARK  2 active torsions:
REMARK  status: ('A' for Active; 'I' for Inactive)
REMARK    1  A    between atoms: N_1  and  C_4
REMARK    2  A    between atoms: C_4  and  C_5
REMARK                            x       y       z     vdW  Elec       q    Type
REMARK                         _______ _______ _______ _____ _____    ______ ____
ROOT
ATOM      1  N   UNL     1       3.900   8.638  17.156  0.00  0.00    -0.354 N 
ATOM      2  N   UNL     1       2.374   9.218  15.514  0.00  0.00    -0.372 N 
ATOM      3  N   UNL     1       4.524  10.005  15.357  0.00  0.00    -0.372 N 
ATOM      4  C   UNL     1       3.612   9.285  16.019  0.00  0.00    +0.166 C 
ATOM      5  H   UNL     1       3.157   8.135  17.626  0.00  0.00    +0.163 HD
ATOM      6  H   UNL     1       2.127   9.693  14.656  0.00  0.00    +0.159 HD
ATOM      7  H   UNL     1       1.644   8.676  15.961  0.00  0.00    +0.159 HD
ATOM      8  H   UNL     1       5.474  10.100  15.689  0.00  0.00    +0.159 HD
ATOM      9  H   UNL     1       4.293  10.496  14.503  0.00  0.00    +0.159 HD
ENDROOT
BRANCH   1  10
ATOM     10  C   UNL     1       5.231   8.603  17.762  0.00  0.00    +0.151 C 
BRANCH  10  11
ATOM     11  C   UNL     1       5.749   7.191  17.726  0.00  0.00    -0.028 A 
ATOM     12  C   UNL     1       6.790   6.838  16.855  0.00  0.00    +0.005 A 
ATOM     13  C   UNL     1       5.207   6.205  18.564  0.00  0.00    +0.005 A 
ATOM     14  C   UNL     1       7.293   5.534  16.843  0.00  0.00    +0.000 A 
ATOM     15  C   UNL     1       5.711   4.904  18.548  0.00  0.00    +0.000 A 
ATOM     16  C   UNL     1       6.755   4.570  17.689  0.00  0.00    +0.000 A 
ENDBRANCH  10  11
ENDBRANCH   1  10
TORSDOF 2
ENDMDL
MODEL 9
REMARK VINA RESULT:    -4.279      3.737      4.448
REMARK INTER + INTRA:          -4.917
REMARK INTER:                  -4.808
REMARK INTRA:                  -0.109
REMARK UNBOUND:                -0.138
REMARK  Name = 1550473
REMARK  2 active torsions:
REMARK  status: ('A' for Active; 'I' for Inactive)
REMARK    1  A    between atoms: N_1  and  C_4
REMARK    2  A    between atoms: C_4  and  C_5
REMARK                            x       y       z     vdW  Elec       q    Type
REMARK                         _______ _______ _______ _____ _____    ______ ____
ROOT
ATOM      1  N   UNL     1     -12.190   6.857  -8.143  0.00  0.00    -0.354 N 
ATOM      2  N   UNL     1      -9.918   7.203  -8.436  0.00  0.00    -0.372 N 
ATOM      3  N   UNL     1     -11.341   8.997  -8.583  0.00  0.00    -0.372 N 
ATOM      4  C   UNL     1     -11.166   7.686  -8.386  0.00  0.00    +0.166 C 
ATOM      5  H   UNL     1     -11.994   5.869  -8.033  0.00  0.00    +0.163 HD
ATOM      6  H   UNL     1      -9.125   7.804  -8.614  0.00  0.00    +0.159 HD
ATOM      7  H   UNL     1      -9.720   6.222  -8.280  0.00  0.00    +0.159 HD
ATOM      8  H   UNL     1     -12.258   9.423  -8.563  0.00  0.00    +0.159 HD
ATOM      9  H   UNL     1     -10.561   9.614  -8.774  0.00  0.00    +0.159 HD
ENDROOT
BRANCH   1  10
ATOM     10  C   UNL     1     -13.580   7.291  -8.015  0.00  0.00    +0.151 C 
BRANCH  10  11
ATOM     11  C   UNL     1     -14.383   6.186  -7.387  0.00  0.00    -0.028 A 
ATOM     12  C   UNL     1     -14.201   4.855  -7.791  0.00  0.00    +0.005 A 
ATOM     13  C   UNL     1     -15.325   6.462  -6.384  0.00  0.00    +0.005 A 
ATOM     14  C   UNL     1     -14.925   3.824  -7.187  0.00  0.00    +0.000 A 
ATOM     15  C   UNL     1     -16.047   5.430  -5.785  0.00  0.00    +0.000 A 
ATOM     16  C   UNL     1     -15.845   4.111  -6.185  0.00  0.00    +0.000 A 
ENDBRANCH  10  11
ENDBRANCH   1  10
TORSDOF 2
ENDMDL
