MODEL 1
REMARK VINA RESULT:    -5.121      0.000      0.000
REMARK INTER + INTRA:          -5.894
REMARK INTER:                  -5.719
REMARK INTRA:                  -0.175
REMARK UNBOUND:                -0.175
REMARK  Name = 1550473
REMARK  2 active torsions:
REMARK  status: ('A' for Active; 'I' for Inactive)
REMARK    1  A    between atoms: N_1  and  C_4
REMARK    2  A    between atoms: C_4  and  C_5
REMARK                            x       y       z     vdW  Elec       q    Type
REMARK                         _______ _______ _______ _____ _____    ______ ____
ROOT
ATOM      1  N   UNL     1       2.252 -13.217   9.915  0.00  0.00    -0.354 N 
ATOM      2  N   UNL     1       3.881 -14.014  11.355  0.00  0.00    -0.372 N 
ATOM      3  N   UNL     1       4.527 -12.854   9.484  0.00  0.00    -0.372 N 
ATOM      4  C   UNL     1       3.544 -13.356  10.240  0.00  0.00    +0.166 C 
ATOM      5  H   UNL     1       1.556 -13.647  10.514  0.00  0.00    +0.163 HD
ATOM      6  H   UNL     1       4.848 -14.132  11.628  0.00  0.00    +0.159 HD
ATOM      7  H   UNL     1       3.182 -14.403  11.976  0.00  0.00    +0.159 HD
ATOM      8  H   UNL     1       4.340 -12.352   8.627  0.00  0.00    +0.159 HD
ATOM      9  H   UNL     1       5.501 -12.971   9.734  0.00  0.00    +0.159 HD
ENDROOT
BRANCH   1  10
ATOM     10  C   UNL     1       1.777 -12.472   8.750  0.00  0.00    +0.151 C 
BRANCH  10  11
ATOM     11  C   UNL     1       1.218 -11.152   9.206  0.00  0.00    -0.028 A 
ATOM     12  C   UNL     1       2.054 -10.035   9.345  0.00  0.00    +0.005 A 
ATOM     13  C   UNL     1      -0.148 -11.012   9.495  0.00  0.00    +0.005 A 
ATOM     14  C   UNL     1       1.530  -8.801   9.740  0.00  0.00    +0.000 A 
ATOM     15  C   UNL     1      -0.667  -9.779   9.890  0.00  0.00    +0.000 A 
ATOM     16  C   UNL     1       0.171  -8.673  10.009  0.00  0.00    +0.000 A 
ENDBRANCH  10  11
ENDBRANCH   1  10
TORSDOF 2
ENDMDL
MODEL 2
REMARK VINA RESULT:    -4.873     25.717     26.843
REMARK INTER + INTRA:          -5.617
REMARK INTER:                  -5.457
REMARK INTRA:                  -0.160
REMARK UNBOUND:                -0.175
REMARK  Name = 1550473
REMARK  2 active torsions:
REMARK  status: ('A' for Active; 'I' for Inactive)
REMARK    1  A    between atoms: N_1  and  C_4
REMARK    2  A    between atoms: C_4  and  C_5
REMARK                            x       y       z     vdW  Elec       q    Type
REMARK                         _______ _______ _______ _____ _____    ______ ____
ROOT
ATOM      1  N   UNL     1     -14.745   0.988  -5.938  0.00  0.00    -0.354 N 
ATOM      2  N   UNL     1     -13.982   3.167  -6.125  0.00  0.00    -0.372 N 
ATOM      3  N   UNL     1     -16.094   2.664  -6.866  0.00  0.00    -0.372 N 
ATOM      4  C   UNL     1     -14.948   2.259  -6.310  0.00  0.00    +0.166 C 
ATOM      5  H   UNL     1     -13.842   0.739  -5.549  0.00  0.00    +0.163 HD
ATOM      6  H   UNL     1     -14.107   4.134  -6.393  0.00  0.00    +0.159 HD
ATOM      7  H   UNL     1     -13.098   2.924  -5.695  0.00  0.00    +0.159 HD
ATOM      8  H   UNL     1     -16.860   2.027  -7.038  0.00  0.00    +0.159 HD
ATOM      9  H   UNL     1     -16.235   3.625  -7.151  0.00  0.00    +0.159 HD
ENDROOT
BRANCH   1  10
ATOM     10  C   UNL     1     -15.751  -0.066  -6.046  0.00  0.00    +0.151 C 
BRANCH  10  11
ATOM     11  C   UNL     1     -15.367  -1.000  -7.160  0.00  0.00    -0.028 A 
ATOM     12  C   UNL     1     -14.033  -1.398  -7.327  0.00  0.00    +0.005 A 
ATOM     13  C   UNL     1     -16.334  -1.493  -8.050  0.00  0.00    +0.005 A 
ATOM     14  C   UNL     1     -13.681  -2.289  -8.345  0.00  0.00    +0.000 A 
ATOM     15  C   UNL     1     -15.978  -2.381  -9.065  0.00  0.00    +0.000 A 
ATOM     16  C   UNL     1     -14.652  -2.781  -9.210  0.00  0.00    +0.000 A 
ENDBRANCH  10  11
ENDBRANCH   1  10
TORSDOF 2
ENDMDL
MODEL 3
REMARK VINA RESULT:    -4.770     25.774     26.990
REMARK INTER + INTRA:          -5.502
REMARK INTER:                  -5.373
REMARK INTRA:                  -0.129
REMARK UNBOUND:                -0.175
REMARK  Name = 1550473
REMARK  2 active torsions:
REMARK  status: ('A' for Active; 'I' for Inactive)
REMARK    1  A    between atoms: N_1  and  C_4
REMARK    2  A    between atoms: C_4  and  C_5
REMARK                            x       y       z     vdW  Elec       q    Type
REMARK                         _______ _______ _______ _____ _____    ______ ____
ROOT
ATOM      1  N   UNL     1     -14.970  -2.640  -9.946  0.00  0.00    -0.354 N 
ATOM      2  N   UNL     1     -14.140  -2.950 -12.086  0.00  0.00    -0.372 N 
ATOM      3  N   UNL     1     -16.289  -2.187 -11.830  0.00  0.00    -0.372 N 
ATOM      4  C   UNL     1     -15.141  -2.590 -11.274  0.00  0.00    +0.166 C 
ATOM      5  H   UNL     1     -14.087  -2.983  -9.588  0.00  0.00    +0.163 HD
ATOM      6  H   UNL     1     -14.239  -2.919 -13.092  0.00  0.00    +0.159 HD
ATOM      7  H   UNL     1     -13.243  -3.249 -11.725  0.00  0.00    +0.159 HD
ATOM      8  H   UNL     1     -17.085  -1.907 -11.272  0.00  0.00    +0.159 HD
ATOM      9  H   UNL     1     -16.411  -2.160 -12.835  0.00  0.00    +0.159 HD
ENDROOT
BRANCH   1  10
ATOM     10  C   UNL     1     -15.979  -2.218  -8.976  0.00  0.00    +0.151 C 
BRANCH  10  11
ATOM     11  C   UNL     1     -15.303  -1.471  -7.859  0.00  0.00    -0.028 A 
ATOM     12  C   UNL     1     -13.961  -1.726  -7.541  0.00  0.00    +0.005 A 
ATOM     13  C   UNL     1     -15.998  -0.502  -7.119  0.00  0.00    +0.005 A 
ATOM     14  C   UNL     1     -13.324  -1.011  -6.524  0.00  0.00    +0.000 A 
ATOM     15  C   UNL     1     -15.359   0.209  -6.103  0.00  0.00    +0.000 A 
ATOM     16  C   UNL     1     -14.022  -0.044  -5.808  0.00  0.00    +0.000 A 
ENDBRANCH  10  11
ENDBRANCH   1  10
TORSDOF 2
ENDMDL
MODEL 4
REMARK VINA RESULT:    -4.734     30.155     31.269
REMARK INTER + INTRA:          -5.463
REMARK INTER:                  -5.363
REMARK INTRA:                  -0.099
REMARK UNBOUND:                -0.175
REMARK  Name = 1550473
REMARK  2 active torsions:
REMARK  status: ('A' for Active; 'I' for Inactive)
REMARK    1  A    between atoms: N_1  and  C_4
REMARK    2  A    between atoms: C_4  and  C_5
REMARK                            x       y       z     vdW  Elec       q    Type
REMARK                         _______ _______ _______ _____ _____    ______ ____
ROOT
ATOM      1  N   UNL     1     -15.635  -0.214 -14.506  0.00  0.00    -0.354 N 
ATOM      2  N   UNL     1     -14.969   1.920 -15.113  0.00  0.00    -0.372 N 
ATOM      3  N   UNL     1     -16.328   0.736 -16.533  0.00  0.00    -0.372 N 
ATOM      4  C   UNL     1     -15.650   0.799 -15.382  0.00  0.00    +0.166 C 
ATOM      5  H   UNL     1     -15.077  -0.115 -13.665  0.00  0.00    +0.163 HD
ATOM      6  H   UNL     1     -14.964   2.702 -15.753  0.00  0.00    +0.159 HD
ATOM      7  H   UNL     1     -14.449   2.033 -14.251  0.00  0.00    +0.159 HD
ATOM      8  H   UNL     1     -16.858  -0.084 -16.798  0.00  0.00    +0.159 HD
ATOM      9  H   UNL     1     -16.326   1.504 -17.192  0.00  0.00    +0.159 HD
ENDROOT
BRANCH   1  10
ATOM     10  C   UNL     1     -16.386  -1.456 -14.679  0.00  0.00    +0.151 C 
BRANCH  10  11
ATOM     11  C   UNL     1     -15.984  -2.428 -13.604  0.00  0.00    -0.028 A 
ATOM     12  C   UNL     1     -15.421  -3.668 -13.940  0.00  0.00    +0.005 A 
ATOM     13  C   UNL     1     -16.157  -2.112 -12.248  0.00  0.00    +0.005 A 
ATOM     14  C   UNL     1     -15.019  -4.558 -12.941  0.00  0.00    +0.000 A 
ATOM     15  C   UNL     1     -15.755  -3.004 -11.254  0.00  0.00    +0.000 A 
ATOM     16  C   UNL     1     -15.184  -4.226 -11.601  0.00  0.00    +0.000 A 
ENDBRANCH  10  11
ENDBRANCH   1  10
TORSDOF 2
ENDMDL
MODEL 5
REMARK VINA RESULT:    -4.711     23.442     24.597
REMARK INTER + INTRA:          -5.436
REMARK INTER:                  -5.310
REMARK INTRA:                  -0.127
REMARK UNBOUND:                -0.175
REMARK  Name = 1550473
REMARK  2 active torsions:
REMARK  status: ('A' for Active; 'I' for Inactive)
REMARK    1  A    between atoms: N_1  and  C_4
REMARK    2  A    between atoms: C_4  and  C_5
REMARK                            x       y       z     vdW  Elec       q    Type
REMARK                         _______ _______ _______ _____ _____    ______ ____
ROOT
ATOM      1  N   UNL     1     -11.569  -2.215  -7.319  0.00  0.00    -0.354 N 
ATOM      2  N   UNL     1      -9.911  -2.887  -8.789  0.00  0.00    -0.372 N 
ATOM      3  N   UNL     1      -9.363  -1.460  -7.078  0.00  0.00    -0.372 N 
ATOM      4  C   UNL     1     -10.290  -2.181  -7.717  0.00  0.00    +0.166 C 
ATOM      5  H   UNL     1     -12.229  -2.757  -7.864  0.00  0.00    +0.163 HD
ATOM      6  H   UNL     1      -8.952  -2.884  -9.112  0.00  0.00    +0.159 HD
ATOM      7  H   UNL     1     -10.563  -3.465  -9.305  0.00  0.00    +0.159 HD
ATOM      8  H   UNL     1      -9.587  -0.900  -6.266  0.00  0.00    +0.159 HD
ATOM      9  H   UNL     1      -8.402  -1.434  -7.393  0.00  0.00    +0.159 HD
ENDROOT
BRANCH   1  10
ATOM     10  C   UNL     1     -12.074  -1.525  -6.133  0.00  0.00    +0.151 C 
BRANCH  10  11
ATOM     11  C   UNL     1     -13.482  -1.065  -6.395  0.00  0.00    -0.028 A 
ATOM     12  C   UNL     1     -14.035  -0.010  -5.655  0.00  0.00    +0.005 A 
ATOM     13  C   UNL     1     -14.265  -1.676  -7.386  0.00  0.00    +0.005 A 
ATOM     14  C   UNL     1     -15.332   0.437  -5.918  0.00  0.00    +0.000 A 
ATOM     15  C   UNL     1     -15.560  -1.227  -7.645  0.00  0.00    +0.000 A 
ATOM     16  C   UNL     1     -16.092  -0.169  -6.913  0.00  0.00    +0.000 A 
ENDBRANCH  10  11
ENDBRANCH   1  10
TORSDOF 2
ENDMDL
MODEL 6
REMARK VINA RESULT:    -4.682     14.861     16.611
REMARK INTER + INTRA:          -5.403
REMARK INTER:                  -5.228
REMARK INTRA:                  -0.176
REMARK UNBOUND:                -0.175
REMARK  Name = 1550473
REMARK  2 active torsions:
REMARK  status: ('A' for Active; 'I' for Inactive)
REMARK    1  A    between atoms: N_1  and  C_4
REMARK    2  A    between atoms: C_4  and  C_5
REMARK                            x       y       z     vdW  Elec       q    Type
REMARK                         _______ _______ _______ _____ _____    ______ ____
ROOT
ATOM      1  N   UNL     1      -9.870  -2.670  11.438  0.00  0.00    -0.354 N 
ATOM      2  N   UNL     1      -9.293  -4.037   9.660  0.00  0.00    -0.372 N 
ATOM      3  N   UNL     1     -11.448  -4.089  10.445  0.00  0.00    -0.372 N 
ATOM      4  C   UNL     1     -10.210  -3.591  10.527  0.00  0.00    +0.166 C 
ATOM      5  H   UNL     1      -8.907  -2.355  11.468  0.00  0.00    +0.163 HD
ATOM      6  H   UNL     1      -9.521  -4.729   8.959  0.00  0.00    +0.159 HD
ATOM      7  H   UNL     1      -8.343  -3.686   9.662  0.00  0.00    +0.159 HD
ATOM      8  H   UNL     1     -12.185  -3.798  11.074  0.00  0.00    +0.159 HD
ATOM      9  H   UNL     1     -11.693  -4.791   9.758  0.00  0.00    +0.159 HD
ENDROOT
BRANCH   1  10
ATOM     10  C   UNL     1     -10.807  -2.079  12.392  0.00  0.00    +0.151 C 
BRANCH  10  11
ATOM     11  C   UNL     1     -11.358  -0.805  11.814  0.00  0.00    -0.028 A 
ATOM     12  C   UNL     1     -10.498   0.240  11.444  0.00  0.00    +0.005 A 
ATOM     13  C   UNL     1     -12.739  -0.638  11.629  0.00  0.00    +0.005 A 
ATOM     14  C   UNL     1     -11.007   1.412  10.879  0.00  0.00    +0.000 A 
ATOM     15  C   UNL     1     -13.244   0.534  11.065  0.00  0.00    +0.000 A 
ATOM     16  C   UNL     1     -12.377   1.557  10.688  0.00  0.00    +0.000 A 
ENDBRANCH  10  11
ENDBRANCH   1  10
TORSDOF 2
ENDMDL
MODEL 7
REMARK VINA RESULT:    -4.624     24.382     25.733
REMARK INTER + INTRA:          -5.339
REMARK INTER:                  -5.175
REMARK INTRA:                  -0.164
REMARK UNBOUND:                -0.175
REMARK  Name = 1550473
REMARK  2 active torsions:
REMARK  status: ('A' for Active; 'I' for Inactive)
REMARK    1  A    between atoms: N_1  and  C_4
REMARK    2  A    between atoms: C_4  and  C_5
REMARK                            x       y       z     vdW  Elec       q    Type
REMARK                         _______ _______ _______ _____ _____    ______ ____
ROOT
ATOM      1  N   UNL     1     -14.162   1.523  -5.262  0.00  0.00    -0.354 N 
ATOM      2  N   UNL     1     -13.961   3.786  -5.715  0.00  0.00    -0.372 N 
ATOM      3  N   UNL     1     -15.650   2.600  -6.718  0.00  0.00    -0.372 N 
ATOM      4  C   UNL     1     -14.594   2.621  -5.897  0.00  0.00    +0.166 C 
ATOM      5  H   UNL     1     -13.338   1.599  -4.677  0.00  0.00    +0.163 HD
ATOM      6  H   UNL     1     -14.266   4.631  -6.178  0.00  0.00    +0.159 HD
ATOM      7  H   UNL     1     -13.165   3.868  -5.094  0.00  0.00    +0.159 HD
ATOM      8  H   UNL     1     -16.168   1.751  -6.903  0.00  0.00    +0.159 HD
ATOM      9  H   UNL     1     -15.964   3.433  -7.199  0.00  0.00    +0.159 HD
ENDROOT
BRANCH   1  10
ATOM     10  C   UNL     1     -14.813   0.218  -5.350  0.00  0.00    +0.151 C 
BRANCH  10  11
ATOM     11  C   UNL     1     -13.951  -0.708  -6.164  0.00  0.00    -0.028 A 
ATOM     12  C   UNL     1     -14.458  -1.324  -7.317  0.00  0.00    +0.005 A 
ATOM     13  C   UNL     1     -12.623  -0.967  -5.790  0.00  0.00    +0.005 A 
ATOM     14  C   UNL     1     -13.648  -2.160  -8.089  0.00  0.00    +0.000 A 
ATOM     15  C   UNL     1     -11.818  -1.803  -6.563  0.00  0.00    +0.000 A 
ATOM     16  C   UNL     1     -12.330  -2.398  -7.714  0.00  0.00    +0.000 A 
ENDBRANCH  10  11
ENDBRANCH   1  10
TORSDOF 2
ENDMDL
MODEL 8
REMARK VINA RESULT:    -4.595     28.360     29.499
REMARK INTER + INTRA:          -5.307
REMARK INTER:                  -5.185
REMARK INTRA:                  -0.121
REMARK UNBOUND:                -0.175
REMARK  Name = 1550473
REMARK  2 active torsions:
REMARK  status: ('A' for Active; 'I' for Inactive)
REMARK    1  A    between atoms: N_1  and  C_4
REMARK    2  A    between atoms: C_4  and  C_5
REMARK                            x       y       z     vdW  Elec       q    Type
REMARK                         _______ _______ _______ _____ _____    ______ ____
ROOT
ATOM      1  N   UNL     1     -15.865  -2.918 -13.592  0.00  0.00    -0.354 N 
ATOM      2  N   UNL     1     -17.346  -2.257 -15.245  0.00  0.00    -0.372 N 
ATOM      3  N   UNL     1     -15.824  -0.736 -14.447  0.00  0.00    -0.372 N 
ATOM      4  C   UNL     1     -16.334  -1.972 -14.417  0.00  0.00    +0.166 C 
ATOM      5  H   UNL     1     -16.314  -3.827 -13.596  0.00  0.00    +0.163 HD
ATOM      6  H   UNL     1     -17.719  -1.565 -15.881  0.00  0.00    +0.159 HD
ATOM      7  H   UNL     1     -17.763  -3.180 -15.280  0.00  0.00    +0.159 HD
ATOM      8  H   UNL     1     -15.064  -0.456 -13.842  0.00  0.00    +0.159 HD
ATOM      9  H   UNL     1     -16.192  -0.027 -15.068  0.00  0.00    +0.159 HD
ENDROOT
BRANCH   1  10
ATOM     10  C   UNL     1     -14.731  -2.726 -12.689  0.00  0.00    +0.151 C 
BRANCH  10  11
ATOM     11  C   UNL     1     -15.207  -2.859 -11.268  0.00  0.00    -0.028 A 
ATOM     12  C   UNL     1     -14.450  -3.573 -10.328  0.00  0.00    +0.005 A 
ATOM     13  C   UNL     1     -16.411  -2.267 -10.855  0.00  0.00    +0.005 A 
ATOM     14  C   UNL     1     -14.877  -3.670  -9.001  0.00  0.00    +0.000 A 
ATOM     15  C   UNL     1     -16.833  -2.368  -9.530  0.00  0.00    +0.000 A 
ATOM     16  C   UNL     1     -16.065  -3.067  -8.603  0.00  0.00    +0.000 A 
ENDBRANCH  10  11
ENDBRANCH   1  10
TORSDOF 2
ENDMDL
MODEL 9
REMARK VINA RESULT:    -4.513     23.904     25.218
REMARK INTER + INTRA:          -5.215
REMARK INTER:                  -5.087
REMARK INTRA:                  -0.128
REMARK UNBOUND:                -0.175
REMARK  Name = 1550473
REMARK  2 active torsions:
REMARK  status: ('A' for Active; 'I' for Inactive)
REMARK    1  A    between atoms: N_1  and  C_4
REMARK    2  A    between atoms: C_4  and  C_5
REMARK                            x       y       z     vdW  Elec       q    Type
REMARK                         _______ _______ _______ _____ _____    ______ ____
ROOT
ATOM      1  N   UNL     1     -13.688   0.745  -4.016  0.00  0.00    -0.354 N 
ATOM      2  N   UNL     1     -12.112   1.227  -2.389  0.00  0.00    -0.372 N 
ATOM      3  N   UNL     1     -13.249   2.957  -3.380  0.00  0.00    -0.372 N 
ATOM      4  C   UNL     1     -13.027   1.642  -3.273  0.00  0.00    +0.166 C 
ATOM      5  H   UNL     1     -13.453  -0.235  -3.909  0.00  0.00    +0.163 HD
ATOM      6  H   UNL     1     -11.600   1.881  -1.812  0.00  0.00    +0.159 HD
ATOM      7  H   UNL     1     -11.912   0.244  -2.252  0.00  0.00    +0.159 HD
ATOM      8  H   UNL     1     -13.922   3.335  -4.032  0.00  0.00    +0.159 HD
ATOM      9  H   UNL     1     -12.738   3.627  -2.819  0.00  0.00    +0.159 HD
ENDROOT
BRANCH   1  10
ATOM     10  C   UNL     1     -14.742   1.089  -4.969  0.00  0.00    +0.151 C 
BRANCH  10  11
ATOM     11  C   UNL     1     -14.791   0.041  -6.047  0.00  0.00    -0.028 A 
ATOM     12  C   UNL     1     -13.643  -0.690  -6.382  0.00  0.00    +0.005 A 
ATOM     13  C   UNL     1     -15.986  -0.229  -6.732  0.00  0.00    +0.005 A 
ATOM     14  C   UNL     1     -13.695  -1.684  -7.362  0.00  0.00    +0.000 A 
ATOM     15  C   UNL     1     -16.034  -1.222  -7.710  0.00  0.00    +0.000 A 
ATOM     16  C   UNL     1     -14.889  -1.951  -8.023  0.00  0.00    +0.000 A 
ENDBRANCH  10  11
ENDBRANCH   1  10
TORSDOF 2
ENDMDL
