MODEL 1
REMARK VINA RESULT:    -5.488      0.000      0.000
REMARK INTER + INTRA:          -6.251
REMARK INTER:                  -6.130
REMARK INTRA:                  -0.121
REMARK UNBOUND:                -0.121
REMARK  Name = 1550473
REMARK  2 active torsions:
REMARK  status: ('A' for Active; 'I' for Inactive)
REMARK    1  A    between atoms: N_1  and  C_4
REMARK    2  A    between atoms: C_4  and  C_5
REMARK                            x       y       z     vdW  Elec       q    Type
REMARK                         _______ _______ _______ _____ _____    ______ ____
ROOT
ATOM      1  N   UNL     1      -9.008 -12.235  -5.163  0.00  0.00    -0.354 N 
ATOM      2  N   UNL     1     -10.602 -11.917  -3.512  0.00  0.00    -0.372 N 
ATOM      3  N   UNL     1      -9.362 -13.849  -3.500  0.00  0.00    -0.372 N 
ATOM      4  C   UNL     1      -9.646 -12.672  -4.069  0.00  0.00    +0.166 C 
ATOM      5  H   UNL     1      -9.291 -11.348  -5.563  0.00  0.00    +0.163 HD
ATOM      6  H   UNL     1     -11.098 -12.219  -2.684  0.00  0.00    +0.159 HD
ATOM      7  H   UNL     1     -10.850 -11.010  -3.888  0.00  0.00    +0.159 HD
ATOM      8  H   UNL     1      -8.656 -14.468  -3.875  0.00  0.00    +0.159 HD
ATOM      9  H   UNL     1      -9.856 -14.173  -2.678  0.00  0.00    +0.159 HD
ENDROOT
BRANCH   1  10
ATOM     10  C   UNL     1      -7.916 -12.956  -5.815  0.00  0.00    +0.151 C 
BRANCH  10  11
ATOM     11  C   UNL     1      -7.876 -12.575  -7.269  0.00  0.00    -0.028 A 
ATOM     12  C   UNL     1      -9.054 -12.545  -8.030  0.00  0.00    +0.005 A 
ATOM     13  C   UNL     1      -6.663 -12.239  -7.891  0.00  0.00    +0.005 A 
ATOM     14  C   UNL     1      -9.021 -12.162  -9.373  0.00  0.00    +0.000 A 
ATOM     15  C   UNL     1      -6.635 -11.858  -9.232  0.00  0.00    +0.000 A 
ATOM     16  C   UNL     1      -7.814 -11.818  -9.973  0.00  0.00    +0.000 A 
ENDBRANCH  10  11
ENDBRANCH   1  10
TORSDOF 2
ENDMDL
MODEL 2
REMARK VINA RESULT:    -5.395      2.766      3.277
REMARK INTER + INTRA:          -6.146
REMARK INTER:                  -6.010
REMARK INTRA:                  -0.136
REMARK UNBOUND:                -0.121
REMARK  Name = 1550473
REMARK  2 active torsions:
REMARK  status: ('A' for Active; 'I' for Inactive)
REMARK    1  A    between atoms: N_1  and  C_4
REMARK    2  A    between atoms: C_4  and  C_5
REMARK                            x       y       z     vdW  Elec       q    Type
REMARK                         _______ _______ _______ _____ _____    ______ ____
ROOT
ATOM      1  N   UNL     1      -8.566 -11.862  -5.358  0.00  0.00    -0.354 N 
ATOM      2  N   UNL     1      -9.145 -13.050  -3.456  0.00  0.00    -0.372 N 
ATOM      3  N   UNL     1      -7.975 -14.116  -5.117  0.00  0.00    -0.372 N 
ATOM      4  C   UNL     1      -8.557 -13.004  -4.658  0.00  0.00    +0.166 C 
ATOM      5  H   UNL     1      -9.051 -11.062  -4.968  0.00  0.00    +0.163 HD
ATOM      6  H   UNL     1      -9.150 -13.897  -2.903  0.00  0.00    +0.159 HD
ATOM      7  H   UNL     1      -9.588 -12.236  -3.048  0.00  0.00    +0.159 HD
ATOM      8  H   UNL     1      -7.519 -14.149  -6.020  0.00  0.00    +0.159 HD
ATOM      9  H   UNL     1      -7.980 -14.977  -4.584  0.00  0.00    +0.159 HD
ENDROOT
BRANCH   1  10
ATOM     10  C   UNL     1      -7.909 -11.691  -6.653  0.00  0.00    +0.151 C 
BRANCH  10  11
ATOM     11  C   UNL     1      -7.055 -10.454  -6.610  0.00  0.00    -0.028 A 
ATOM     12  C   UNL     1      -7.406  -9.320  -7.357  0.00  0.00    +0.005 A 
ATOM     13  C   UNL     1      -5.896 -10.407  -5.820  0.00  0.00    +0.005 A 
ATOM     14  C   UNL     1      -6.630  -8.160  -7.294  0.00  0.00    +0.000 A 
ATOM     15  C   UNL     1      -5.122  -9.248  -5.761  0.00  0.00    +0.000 A 
ATOM     16  C   UNL     1      -5.491  -8.124  -6.496  0.00  0.00    +0.000 A 
ENDBRANCH  10  11
ENDBRANCH   1  10
TORSDOF 2
ENDMDL
MODEL 3
REMARK VINA RESULT:    -5.290      6.138      7.557
REMARK INTER + INTRA:          -6.030
REMARK INTER:                  -5.901
REMARK INTRA:                  -0.128
REMARK UNBOUND:                -0.121
REMARK  Name = 1550473
REMARK  2 active torsions:
REMARK  status: ('A' for Active; 'I' for Inactive)
REMARK    1  A    between atoms: N_1  and  C_4
REMARK    2  A    between atoms: C_4  and  C_5
REMARK                            x       y       z     vdW  Elec       q    Type
REMARK                         _______ _______ _______ _____ _____    ______ ____
ROOT
ATOM      1  N   UNL     1      -5.447  -6.192  -8.583  0.00  0.00    -0.354 N 
ATOM      2  N   UNL     1      -4.635  -5.632 -10.679  0.00  0.00    -0.372 N 
ATOM      3  N   UNL     1      -3.317  -5.250  -8.841  0.00  0.00    -0.372 N 
ATOM      4  C   UNL     1      -4.469  -5.694  -9.352  0.00  0.00    +0.166 C 
ATOM      5  H   UNL     1      -6.309  -6.484  -9.029  0.00  0.00    +0.163 HD
ATOM      6  H   UNL     1      -3.914  -5.265 -11.285  0.00  0.00    +0.159 HD
ATOM      7  H   UNL     1      -5.480  -5.968 -11.126  0.00  0.00    +0.159 HD
ATOM      8  H   UNL     1      -3.131  -5.263  -7.846  0.00  0.00    +0.159 HD
ATOM      9  H   UNL     1      -2.587  -4.867  -9.430  0.00  0.00    +0.159 HD
ENDROOT
BRANCH   1  10
ATOM     10  C   UNL     1      -5.345  -6.352  -7.134  0.00  0.00    +0.151 C 
BRANCH  10  11
ATOM     11  C   UNL     1      -5.676  -7.774  -6.772  0.00  0.00    -0.028 A 
ATOM     12  C   UNL     1      -4.858  -8.492  -5.888  0.00  0.00    +0.005 A 
ATOM     13  C   UNL     1      -6.808  -8.407  -7.307  0.00  0.00    +0.005 A 
ATOM     14  C   UNL     1      -5.181  -9.803  -5.529  0.00  0.00    +0.000 A 
ATOM     15  C   UNL     1      -7.127  -9.716  -6.947  0.00  0.00    +0.000 A 
ATOM     16  C   UNL     1      -6.315 -10.413  -6.056  0.00  0.00    +0.000 A 
ENDBRANCH  10  11
ENDBRANCH   1  10
TORSDOF 2
ENDMDL
MODEL 4
REMARK VINA RESULT:    -5.059      4.063      4.836
REMARK INTER + INTRA:          -5.771
REMARK INTER:                  -5.647
REMARK INTRA:                  -0.124
REMARK UNBOUND:                -0.121
REMARK  Name = 1550473
REMARK  2 active torsions:
REMARK  status: ('A' for Active; 'I' for Inactive)
REMARK    1  A    between atoms: N_1  and  C_4
REMARK    2  A    between atoms: C_4  and  C_5
REMARK                            x       y       z     vdW  Elec       q    Type
REMARK                         _______ _______ _______ _____ _____    ______ ____
ROOT
ATOM      1  N   UNL     1      -6.405 -11.101  -5.770  0.00  0.00    -0.354 N 
ATOM      2  N   UNL     1      -5.998 -13.188  -4.850  0.00  0.00    -0.372 N 
ATOM      3  N   UNL     1      -7.565 -12.997  -6.515  0.00  0.00    -0.372 N 
ATOM      4  C   UNL     1      -6.661 -12.416  -5.719  0.00  0.00    +0.166 C 
ATOM      5  H   UNL     1      -5.730 -10.717  -5.120  0.00  0.00    +0.163 HD
ATOM      6  H   UNL     1      -6.167 -14.183  -4.792  0.00  0.00    +0.159 HD
ATOM      7  H   UNL     1      -5.290 -12.808  -4.233  0.00  0.00    +0.159 HD
ATOM      8  H   UNL     1      -8.104 -12.469  -7.188  0.00  0.00    +0.159 HD
ATOM      9  H   UNL     1      -7.757 -13.989  -6.463  0.00  0.00    +0.159 HD
ENDROOT
BRANCH   1  10
ATOM     10  C   UNL     1      -7.034 -10.182  -6.717  0.00  0.00    +0.151 C 
BRANCH  10  11
ATOM     11  C   UNL     1      -6.274  -8.885  -6.720  0.00  0.00    -0.028 A 
ATOM     12  C   UNL     1      -6.654  -7.839  -7.574  0.00  0.00    +0.005 A 
ATOM     13  C   UNL     1      -5.175  -8.693  -5.868  0.00  0.00    +0.005 A 
ATOM     14  C   UNL     1      -5.967  -6.622  -7.555  0.00  0.00    +0.000 A 
ATOM     15  C   UNL     1      -4.491  -7.477  -5.853  0.00  0.00    +0.000 A 
ATOM     16  C   UNL     1      -4.889  -6.442  -6.695  0.00  0.00    +0.000 A 
ENDBRANCH  10  11
ENDBRANCH   1  10
TORSDOF 2
ENDMDL
MODEL 5
REMARK VINA RESULT:    -5.053      4.566      5.769
REMARK INTER + INTRA:          -5.764
REMARK INTER:                  -5.586
REMARK INTRA:                  -0.178
REMARK UNBOUND:                -0.121
REMARK  Name = 1550473
REMARK  2 active torsions:
REMARK  status: ('A' for Active; 'I' for Inactive)
REMARK    1  A    between atoms: N_1  and  C_4
REMARK    2  A    between atoms: C_4  and  C_5
REMARK                            x       y       z     vdW  Elec       q    Type
REMARK                         _______ _______ _______ _____ _____    ______ ____
ROOT
ATOM      1  N   UNL     1      -2.982 -13.615  -6.051  0.00  0.00    -0.354 N 
ATOM      2  N   UNL     1      -1.818 -15.609  -6.223  0.00  0.00    -0.372 N 
ATOM      3  N   UNL     1      -1.199 -13.846  -7.554  0.00  0.00    -0.372 N 
ATOM      4  C   UNL     1      -2.006 -14.342  -6.610  0.00  0.00    +0.166 C 
ATOM      5  H   UNL     1      -3.579 -14.058  -5.363  0.00  0.00    +0.163 HD
ATOM      6  H   UNL     1      -1.087 -16.182  -6.624  0.00  0.00    +0.159 HD
ATOM      7  H   UNL     1      -2.387 -16.036  -5.501  0.00  0.00    +0.159 HD
ATOM      8  H   UNL     1      -1.293 -12.899  -7.895  0.00  0.00    +0.159 HD
ATOM      9  H   UNL     1      -0.470 -14.407  -7.976  0.00  0.00    +0.159 HD
ENDROOT
BRANCH   1  10
ATOM     10  C   UNL     1      -3.236 -12.209  -6.364  0.00  0.00    +0.151 C 
BRANCH  10  11
ATOM     11  C   UNL     1      -4.460 -12.113  -7.232  0.00  0.00    -0.028 A 
ATOM     12  C   UNL     1      -4.346 -11.777  -8.589  0.00  0.00    +0.005 A 
ATOM     13  C   UNL     1      -5.737 -12.361  -6.705  0.00  0.00    +0.005 A 
ATOM     14  C   UNL     1      -5.480 -11.717  -9.403  0.00  0.00    +0.000 A 
ATOM     15  C   UNL     1      -6.867 -12.299  -7.521  0.00  0.00    +0.000 A 
ATOM     16  C   UNL     1      -6.737 -11.979  -8.871  0.00  0.00    +0.000 A 
ENDBRANCH  10  11
ENDBRANCH   1  10
TORSDOF 2
ENDMDL
MODEL 6
REMARK VINA RESULT:    -4.899     45.903     47.336
REMARK INTER + INTRA:          -5.593
REMARK INTER:                  -5.498
REMARK INTRA:                  -0.095
REMARK UNBOUND:                -0.121
REMARK  Name = 1550473
REMARK  2 active torsions:
REMARK  status: ('A' for Active; 'I' for Inactive)
REMARK    1  A    between atoms: N_1  and  C_4
REMARK    2  A    between atoms: C_4  and  C_5
REMARK                            x       y       z     vdW  Elec       q    Type
REMARK                         _______ _______ _______ _____ _____    ______ ____
ROOT
ATOM      1  N   UNL     1       4.051  17.082  28.893  0.00  0.00    -0.354 N 
ATOM      2  N   UNL     1       4.436  15.453  30.493  0.00  0.00    -0.372 N 
ATOM      3  N   UNL     1       6.155  16.853  29.900  0.00  0.00    -0.372 N 
ATOM      4  C   UNL     1       4.881  16.475  29.751  0.00  0.00    +0.166 C 
ATOM      5  H   UNL     1       3.105  16.728  28.805  0.00  0.00    +0.163 HD
ATOM      6  H   UNL     1       5.038  14.977  31.152  0.00  0.00    +0.159 HD
ATOM      7  H   UNL     1       3.478  15.131  30.437  0.00  0.00    +0.159 HD
ATOM      8  H   UNL     1       6.553  17.613  29.365  0.00  0.00    +0.159 HD
ATOM      9  H   UNL     1       6.776  16.382  30.545  0.00  0.00    +0.159 HD
ENDROOT
BRANCH   1  10
ATOM     10  C   UNL     1       4.420  18.238  28.078  0.00  0.00    +0.151 C 
BRANCH  10  11
ATOM     11  C   UNL     1       3.378  18.442  27.013  0.00  0.00    -0.028 A 
ATOM     12  C   UNL     1       3.393  17.667  25.844  0.00  0.00    +0.005 A 
ATOM     13  C   UNL     1       2.369  19.404  27.170  0.00  0.00    +0.005 A 
ATOM     14  C   UNL     1       2.408  17.835  24.869  0.00  0.00    +0.000 A 
ATOM     15  C   UNL     1       1.387  19.569  26.193  0.00  0.00    +0.000 A 
ATOM     16  C   UNL     1       1.405  18.783  25.044  0.00  0.00    +0.000 A 
ENDBRANCH  10  11
ENDBRANCH   1  10
TORSDOF 2
ENDMDL
MODEL 7
REMARK VINA RESULT:    -4.856     17.929     19.600
REMARK INTER + INTRA:          -5.545
REMARK INTER:                  -5.418
REMARK INTRA:                  -0.126
REMARK UNBOUND:                -0.121
REMARK  Name = 1550473
REMARK  2 active torsions:
REMARK  status: ('A' for Active; 'I' for Inactive)
REMARK    1  A    between atoms: N_1  and  C_4
REMARK    2  A    between atoms: C_4  and  C_5
REMARK                            x       y       z     vdW  Elec       q    Type
REMARK                         _______ _______ _______ _____ _____    ______ ____
ROOT
ATOM      1  N   UNL     1     -15.419  -8.656 -23.803  0.00  0.00    -0.354 N 
ATOM      2  N   UNL     1     -14.598  -7.015 -22.389  0.00  0.00    -0.372 N 
ATOM      3  N   UNL     1     -14.894  -9.138 -21.571  0.00  0.00    -0.372 N 
ATOM      4  C   UNL     1     -14.976  -8.282 -22.595  0.00  0.00    +0.166 C 
ATOM      5  H   UNL     1     -15.485  -7.952 -24.530  0.00  0.00    +0.163 HD
ATOM      6  H   UNL     1     -14.257  -6.705 -21.489  0.00  0.00    +0.159 HD
ATOM      7  H   UNL     1     -14.622  -6.325 -23.130  0.00  0.00    +0.159 HD
ATOM      8  H   UNL     1     -15.170 -10.107 -21.659  0.00  0.00    +0.159 HD
ATOM      9  H   UNL     1     -14.566  -8.844 -20.659  0.00  0.00    +0.159 HD
ENDROOT
BRANCH   1  10
ATOM     10  C   UNL     1     -15.803 -10.024 -24.146  0.00  0.00    +0.151 C 
BRANCH  10  11
ATOM     11  C   UNL     1     -15.181 -10.393 -25.464  0.00  0.00    -0.028 A 
ATOM     12  C   UNL     1     -15.952 -10.411 -26.636  0.00  0.00    +0.005 A 
ATOM     13  C   UNL     1     -13.819 -10.721 -25.549  0.00  0.00    +0.005 A 
ATOM     14  C   UNL     1     -15.367 -10.725 -27.865  0.00  0.00    +0.000 A 
ATOM     15  C   UNL     1     -13.239 -11.035 -26.778  0.00  0.00    +0.000 A 
ATOM     16  C   UNL     1     -14.013 -11.034 -27.936  0.00  0.00    +0.000 A 
ENDBRANCH  10  11
ENDBRANCH   1  10
TORSDOF 2
ENDMDL
MODEL 8
REMARK VINA RESULT:    -4.831      5.904      7.120
REMARK INTER + INTRA:          -5.517
REMARK INTER:                  -5.387
REMARK INTRA:                  -0.130
REMARK UNBOUND:                -0.121
REMARK  Name = 1550473
REMARK  2 active torsions:
REMARK  status: ('A' for Active; 'I' for Inactive)
REMARK    1  A    between atoms: N_1  and  C_4
REMARK    2  A    between atoms: C_4  and  C_5
REMARK                            x       y       z     vdW  Elec       q    Type
REMARK                         _______ _______ _______ _____ _____    ______ ____
ROOT
ATOM      1  N   UNL     1      -5.416  -6.102  -8.677  0.00  0.00    -0.354 N 
ATOM      2  N   UNL     1      -4.270  -4.552  -9.960  0.00  0.00    -0.372 N 
ATOM      3  N   UNL     1      -3.476  -5.065  -7.870  0.00  0.00    -0.372 N 
ATOM      4  C   UNL     1      -4.393  -5.249  -8.825  0.00  0.00    +0.166 C 
ATOM      5  H   UNL     1      -6.095  -6.174  -9.426  0.00  0.00    +0.163 HD
ATOM      6  H   UNL     1      -3.507  -3.904 -10.102  0.00  0.00    +0.159 HD
ATOM      7  H   UNL     1      -4.924  -4.660 -10.726  0.00  0.00    +0.159 HD
ATOM      8  H   UNL     1      -3.516  -5.556  -6.987  0.00  0.00    +0.159 HD
ATOM      9  H   UNL     1      -2.711  -4.412  -7.988  0.00  0.00    +0.159 HD
ENDROOT
BRANCH   1  10
ATOM     10  C   UNL     1      -5.612  -6.948  -7.501  0.00  0.00    +0.151 C 
BRANCH  10  11
ATOM     11  C   UNL     1      -6.311  -8.213  -7.917  0.00  0.00    -0.028 A 
ATOM     12  C   UNL     1      -6.268  -8.644  -9.251  0.00  0.00    +0.005 A 
ATOM     13  C   UNL     1      -7.013  -8.987  -6.981  0.00  0.00    +0.005 A 
ATOM     14  C   UNL     1      -6.892  -9.835  -9.632  0.00  0.00    +0.000 A 
ATOM     15  C   UNL     1      -7.636 -10.175  -7.366  0.00  0.00    +0.000 A 
ATOM     16  C   UNL     1      -7.573 -10.599  -8.691  0.00  0.00    +0.000 A 
ENDBRANCH  10  11
ENDBRANCH   1  10
TORSDOF 2
ENDMDL
MODEL 9
REMARK VINA RESULT:    -4.619     24.814     26.226
REMARK INTER + INTRA:          -5.280
REMARK INTER:                  -5.180
REMARK INTRA:                  -0.100
REMARK UNBOUND:                -0.121
REMARK  Name = 1550473
REMARK  2 active torsions:
REMARK  status: ('A' for Active; 'I' for Inactive)
REMARK    1  A    between atoms: N_1  and  C_4
REMARK    2  A    between atoms: C_4  and  C_5
REMARK                            x       y       z     vdW  Elec       q    Type
REMARK                         _______ _______ _______ _____ _____    ______ ____
ROOT
ATOM      1  N   UNL     1     -12.623  -0.406  16.250  0.00  0.00    -0.354 N 
ATOM      2  N   UNL     1     -12.813   1.544  15.015  0.00  0.00    -0.372 N 
ATOM      3  N   UNL     1     -11.524   1.555  16.913  0.00  0.00    -0.372 N 
ATOM      4  C   UNL     1     -12.317   0.886  16.070  0.00  0.00    +0.166 C 
ATOM      5  H   UNL     1     -13.254  -0.848  15.591  0.00  0.00    +0.163 HD
ATOM      6  H   UNL     1     -12.596   2.518  14.851  0.00  0.00    +0.159 HD
ATOM      7  H   UNL     1     -13.406   1.088  14.333  0.00  0.00    +0.159 HD
ATOM      8  H   UNL     1     -11.123   1.117  17.732  0.00  0.00    +0.159 HD
ATOM      9  H   UNL     1     -11.306   2.533  16.773  0.00  0.00    +0.159 HD
ENDROOT
BRANCH   1  10
ATOM     10  C   UNL     1     -12.093  -1.228  17.337  0.00  0.00    +0.151 C 
BRANCH  10  11
ATOM     11  C   UNL     1     -12.460  -2.665  17.090  0.00  0.00    -0.028 A 
ATOM     12  C   UNL     1     -11.954  -3.347  15.974  0.00  0.00    +0.005 A 
ATOM     13  C   UNL     1     -13.310  -3.352  17.971  0.00  0.00    +0.005 A 
ATOM     14  C   UNL     1     -12.270  -4.691  15.760  0.00  0.00    +0.000 A 
ATOM     15  C   UNL     1     -13.624  -4.693  17.753  0.00  0.00    +0.000 A 
ATOM     16  C   UNL     1     -13.102  -5.363  16.649  0.00  0.00    +0.000 A 
ENDBRANCH  10  11
ENDBRANCH   1  10
TORSDOF 2
ENDMDL
