MODEL 1
REMARK VINA RESULT:    -6.130      0.000      0.000
REMARK INTER + INTRA:          -6.975
REMARK INTER:                  -6.846
REMARK INTRA:                  -0.128
REMARK UNBOUND:                -0.128
REMARK  Name = 1550473
REMARK  2 active torsions:
REMARK  status: ('A' for Active; 'I' for Inactive)
REMARK    1  A    between atoms: N_1  and  C_4
REMARK    2  A    between atoms: C_4  and  C_5
REMARK                            x       y       z     vdW  Elec       q    Type
REMARK                         _______ _______ _______ _____ _____    ______ ____
ROOT
ATOM      1  N   UNL     1       9.737 -10.113  16.783  0.00  0.00    -0.354 N 
ATOM      2  N   UNL     1      10.627 -12.013  17.765  0.00  0.00    -0.372 N 
ATOM      3  N   UNL     1       8.592 -12.157  16.715  0.00  0.00    -0.372 N 
ATOM      4  C   UNL     1       9.644 -11.416  17.081  0.00  0.00    +0.166 C 
ATOM      5  H   UNL     1      10.546  -9.601  17.115  0.00  0.00    +0.163 HD
ATOM      6  H   UNL     1      10.587 -12.995  18.001  0.00  0.00    +0.159 HD
ATOM      7  H   UNL     1      11.456 -11.508  18.056  0.00  0.00    +0.159 HD
ATOM      8  H   UNL     1       7.814 -11.765  16.202  0.00  0.00    +0.159 HD
ATOM      9  H   UNL     1       8.528 -13.139  16.952  0.00  0.00    +0.159 HD
ENDROOT
BRANCH   1  10
ATOM     10  C   UNL     1       8.747  -9.381  15.996  0.00  0.00    +0.151 C 
BRANCH  10  11
ATOM     11  C   UNL     1       9.459  -8.493  15.014  0.00  0.00    -0.028 A 
ATOM     12  C   UNL     1      10.714  -7.950  15.325  0.00  0.00    +0.005 A 
ATOM     13  C   UNL     1       8.886  -8.194  13.768  0.00  0.00    +0.005 A 
ATOM     14  C   UNL     1      11.390  -7.149  14.401  0.00  0.00    +0.000 A 
ATOM     15  C   UNL     1       9.563  -7.393  12.849  0.00  0.00    +0.000 A 
ATOM     16  C   UNL     1      10.816  -6.873  13.165  0.00  0.00    +0.000 A 
ENDBRANCH  10  11
ENDBRANCH   1  10
TORSDOF 2
ENDMDL
MODEL 2
REMARK VINA RESULT:    -5.683      9.851     11.071
REMARK INTER + INTRA:          -6.476
REMARK INTER:                  -6.300
REMARK INTRA:                  -0.176
REMARK UNBOUND:                -0.128
REMARK  Name = 1550473
REMARK  2 active torsions:
REMARK  status: ('A' for Active; 'I' for Inactive)
REMARK    1  A    between atoms: N_1  and  C_4
REMARK    2  A    between atoms: C_4  and  C_5
REMARK                            x       y       z     vdW  Elec       q    Type
REMARK                         _______ _______ _______ _____ _____    ______ ____
ROOT
ATOM      1  N   UNL     1       2.410 -10.476   8.261  0.00  0.00    -0.354 N 
ATOM      2  N   UNL     1       2.048  -8.575   9.534  0.00  0.00    -0.372 N 
ATOM      3  N   UNL     1       4.078  -9.636   9.677  0.00  0.00    -0.372 N 
ATOM      4  C   UNL     1       2.850  -9.575   9.150  0.00  0.00    +0.166 C 
ATOM      5  H   UNL     1       1.459 -10.392   7.921  0.00  0.00    +0.163 HD
ATOM      6  H   UNL     1       2.354  -7.879  10.200  0.00  0.00    +0.159 HD
ATOM      7  H   UNL     1       1.114  -8.467   9.158  0.00  0.00    +0.159 HD
ATOM      8  H   UNL     1       4.730 -10.370   9.433  0.00  0.00    +0.159 HD
ATOM      9  H   UNL     1       4.398  -8.955  10.354  0.00  0.00    +0.159 HD
ENDROOT
BRANCH   1  10
ATOM     10  C   UNL     1       3.223 -11.572   7.736  0.00  0.00    +0.151 C 
BRANCH  10  11
ATOM     11  C   UNL     1       3.672 -11.227   6.343  0.00  0.00    -0.028 A 
ATOM     12  C   UNL     1       5.035 -11.059   6.056  0.00  0.00    +0.005 A 
ATOM     13  C   UNL     1       2.741 -11.073   5.305  0.00  0.00    +0.005 A 
ATOM     14  C   UNL     1       5.455 -10.769   4.756  0.00  0.00    +0.000 A 
ATOM     15  C   UNL     1       3.165 -10.782   4.008  0.00  0.00    +0.000 A 
ATOM     16  C   UNL     1       4.522 -10.632   3.734  0.00  0.00    +0.000 A 
ENDBRANCH  10  11
ENDBRANCH   1  10
TORSDOF 2
ENDMDL
MODEL 3
REMARK VINA RESULT:    -5.644     26.393     28.096
REMARK INTER + INTRA:          -6.432
REMARK INTER:                  -6.310
REMARK INTRA:                  -0.122
REMARK UNBOUND:                -0.128
REMARK  Name = 1550473
REMARK  2 active torsions:
REMARK  status: ('A' for Active; 'I' for Inactive)
REMARK    1  A    between atoms: N_1  and  C_4
REMARK    2  A    between atoms: C_4  and  C_5
REMARK                            x       y       z     vdW  Elec       q    Type
REMARK                         _______ _______ _______ _____ _____    ______ ____
ROOT
ATOM      1  N   UNL     1      11.742  10.375  -5.872  0.00  0.00    -0.354 N 
ATOM      2  N   UNL     1      13.040  10.587  -7.778  0.00  0.00    -0.372 N 
ATOM      3  N   UNL     1      10.781  10.960  -7.927  0.00  0.00    -0.372 N 
ATOM      4  C   UNL     1      11.843  10.640  -7.181  0.00  0.00    +0.166 C 
ATOM      5  H   UNL     1      12.581  10.109  -5.368  0.00  0.00    +0.163 HD
ATOM      6  H   UNL     1      13.148  10.784  -8.764  0.00  0.00    +0.159 HD
ATOM      7  H   UNL     1      13.883  10.365  -7.263  0.00  0.00    +0.159 HD
ATOM      8  H   UNL     1       9.849  11.011  -7.538  0.00  0.00    +0.159 HD
ATOM      9  H   UNL     1      10.867  11.150  -8.918  0.00  0.00    +0.159 HD
ENDROOT
BRANCH   1  10
ATOM     10  C   UNL     1      10.495  10.458  -5.115  0.00  0.00    +0.151 C 
BRANCH  10  11
ATOM     11  C   UNL     1      10.784  10.199  -3.662  0.00  0.00    -0.028 A 
ATOM     12  C   UNL     1      12.099  10.246  -3.178  0.00  0.00    +0.005 A 
ATOM     13  C   UNL     1       9.745   9.913  -2.762  0.00  0.00    +0.005 A 
ATOM     14  C   UNL     1      12.365  10.036  -1.823  0.00  0.00    +0.000 A 
ATOM     15  C   UNL     1      10.015   9.702  -1.410  0.00  0.00    +0.000 A 
ATOM     16  C   UNL     1      11.324   9.766  -0.940  0.00  0.00    +0.000 A 
ENDBRANCH  10  11
ENDBRANCH   1  10
TORSDOF 2
ENDMDL
MODEL 4
REMARK VINA RESULT:    -5.639     27.780     29.413
REMARK INTER + INTRA:          -6.426
REMARK INTER:                  -6.261
REMARK INTRA:                  -0.165
REMARK UNBOUND:                -0.128
REMARK  Name = 1550473
REMARK  2 active torsions:
REMARK  status: ('A' for Active; 'I' for Inactive)
REMARK    1  A    between atoms: N_1  and  C_4
REMARK    2  A    between atoms: C_4  and  C_5
REMARK                            x       y       z     vdW  Elec       q    Type
REMARK                         _______ _______ _______ _____ _____    ______ ____
ROOT
ATOM      1  N   UNL     1      12.053  11.813  -6.857  0.00  0.00    -0.354 N 
ATOM      2  N   UNL     1      11.095  13.321  -8.331  0.00  0.00    -0.372 N 
ATOM      3  N   UNL     1      10.716  11.079  -8.636  0.00  0.00    -0.372 N 
ATOM      4  C   UNL     1      11.294  12.059  -7.933  0.00  0.00    +0.166 C 
ATOM      5  H   UNL     1      12.487  12.598  -6.385  0.00  0.00    +0.163 HD
ATOM      6  H   UNL     1      10.524  13.538  -9.137  0.00  0.00    +0.159 HD
ATOM      7  H   UNL     1      11.493  14.107  -7.830  0.00  0.00    +0.159 HD
ATOM      8  H   UNL     1      10.832  10.105  -8.392  0.00  0.00    +0.159 HD
ATOM      9  H   UNL     1      10.151  11.275  -9.453  0.00  0.00    +0.159 HD
ENDROOT
BRANCH   1  10
ATOM     10  C   UNL     1      12.288  10.478  -6.309  0.00  0.00    +0.151 C 
BRANCH  10  11
ATOM     11  C   UNL     1      11.644  10.383  -4.954  0.00  0.00    -0.028 A 
ATOM     12  C   UNL     1      10.263  10.166  -4.835  0.00  0.00    +0.005 A 
ATOM     13  C   UNL     1      12.409  10.504  -3.784  0.00  0.00    +0.005 A 
ATOM     14  C   UNL     1       9.669  10.047  -3.576  0.00  0.00    +0.000 A 
ATOM     15  C   UNL     1      11.812  10.386  -2.529  0.00  0.00    +0.000 A 
ATOM     16  C   UNL     1      10.443  10.155  -2.426  0.00  0.00    +0.000 A 
ENDBRANCH  10  11
ENDBRANCH   1  10
TORSDOF 2
ENDMDL
MODEL 5
REMARK VINA RESULT:    -5.498     10.548     11.585
REMARK INTER + INTRA:          -6.269
REMARK INTER:                  -6.131
REMARK INTRA:                  -0.138
REMARK UNBOUND:                -0.128
REMARK  Name = 1550473
REMARK  2 active torsions:
REMARK  status: ('A' for Active; 'I' for Inactive)
REMARK    1  A    between atoms: N_1  and  C_4
REMARK    2  A    between atoms: C_4  and  C_5
REMARK                            x       y       z     vdW  Elec       q    Type
REMARK                         _______ _______ _______ _____ _____    ______ ____
ROOT
ATOM      1  N   UNL     1       2.439  -9.105   6.235  0.00  0.00    -0.354 N 
ATOM      2  N   UNL     1       1.539  -7.093   6.948  0.00  0.00    -0.372 N 
ATOM      3  N   UNL     1       3.717  -7.140   6.225  0.00  0.00    -0.372 N 
ATOM      4  C   UNL     1       2.574  -7.792   6.464  0.00  0.00    +0.166 C 
ATOM      5  H   UNL     1       1.557  -9.546   6.466  0.00  0.00    +0.163 HD
ATOM      6  H   UNL     1       1.610  -6.101   7.128  0.00  0.00    +0.159 HD
ATOM      7  H   UNL     1       0.644  -7.528   7.135  0.00  0.00    +0.159 HD
ATOM      8  H   UNL     1       4.536  -7.610   5.865  0.00  0.00    +0.159 HD
ATOM      9  H   UNL     1       3.810  -6.149   6.410  0.00  0.00    +0.159 HD
ENDROOT
BRANCH   1  10
ATOM     10  C   UNL     1       3.487  -9.946   5.659  0.00  0.00    +0.151 C 
BRANCH  10  11
ATOM     11  C   UNL     1       3.807 -11.059   6.618  0.00  0.00    -0.028 A 
ATOM     12  C   UNL     1       5.139 -11.390   6.906  0.00  0.00    +0.005 A 
ATOM     13  C   UNL     1       2.781 -11.783   7.246  0.00  0.00    +0.005 A 
ATOM     14  C   UNL     1       5.436 -12.404   7.820  0.00  0.00    +0.000 A 
ATOM     15  C   UNL     1       3.082 -12.795   8.157  0.00  0.00    +0.000 A 
ATOM     16  C   UNL     1       4.409 -13.104   8.446  0.00  0.00    +0.000 A 
ENDBRANCH  10  11
ENDBRANCH   1  10
TORSDOF 2
ENDMDL
MODEL 6
REMARK VINA RESULT:    -5.487     28.134     29.398
REMARK INTER + INTRA:          -6.257
REMARK INTER:                  -6.101
REMARK INTRA:                  -0.156
REMARK UNBOUND:                -0.128
REMARK  Name = 1550473
REMARK  2 active torsions:
REMARK  status: ('A' for Active; 'I' for Inactive)
REMARK    1  A    between atoms: N_1  and  C_4
REMARK    2  A    between atoms: C_4  and  C_5
REMARK                            x       y       z     vdW  Elec       q    Type
REMARK                         _______ _______ _______ _____ _____    ______ ____
ROOT
ATOM      1  N   UNL     1      -9.897 -17.529  -3.038  0.00  0.00    -0.354 N 
ATOM      2  N   UNL     1     -10.918 -19.073  -1.646  0.00  0.00    -0.372 N 
ATOM      3  N   UNL     1     -11.096 -16.841  -1.145  0.00  0.00    -0.372 N 
ATOM      4  C   UNL     1     -10.631 -17.802  -1.951  0.00  0.00    +0.166 C 
ATOM      5  H   UNL     1      -9.549 -18.304  -3.591  0.00  0.00    +0.163 HD
ATOM      6  H   UNL     1     -11.472 -19.310  -0.834  0.00  0.00    +0.159 HD
ATOM      7  H   UNL     1     -10.608 -19.844  -2.226  0.00  0.00    +0.159 HD
ATOM      8  H   UNL     1     -10.909 -15.862  -1.317  0.00  0.00    +0.159 HD
ATOM      9  H   UNL     1     -11.642 -17.058  -0.321  0.00  0.00    +0.159 HD
ENDROOT
BRANCH   1  10
ATOM     10  C   UNL     1      -9.574 -16.177  -3.488  0.00  0.00    +0.151 C 
BRANCH  10  11
ATOM     11  C   UNL     1     -10.647 -15.702  -4.428  0.00  0.00    -0.028 A 
ATOM     12  C   UNL     1     -10.779 -16.271  -5.703  0.00  0.00    +0.005 A 
ATOM     13  C   UNL     1     -11.539 -14.687  -4.048  0.00  0.00    +0.005 A 
ATOM     14  C   UNL     1     -11.795 -15.852  -6.566  0.00  0.00    +0.000 A 
ATOM     15  C   UNL     1     -12.551 -14.270  -4.913  0.00  0.00    +0.000 A 
ATOM     16  C   UNL     1     -12.680 -14.855  -6.170  0.00  0.00    +0.000 A 
ENDBRANCH  10  11
ENDBRANCH   1  10
TORSDOF 2
ENDMDL
MODEL 7
REMARK VINA RESULT:    -5.486      9.788     11.125
REMARK INTER + INTRA:          -6.255
REMARK INTER:                  -6.129
REMARK INTRA:                  -0.126
REMARK UNBOUND:                -0.128
REMARK  Name = 1550473
REMARK  2 active torsions:
REMARK  status: ('A' for Active; 'I' for Inactive)
REMARK    1  A    between atoms: N_1  and  C_4
REMARK    2  A    between atoms: C_4  and  C_5
REMARK                            x       y       z     vdW  Elec       q    Type
REMARK                         _______ _______ _______ _____ _____    ______ ____
ROOT
ATOM      1  N   UNL     1       3.587 -11.734   9.043  0.00  0.00    -0.354 N 
ATOM      2  N   UNL     1       4.350  -9.705   9.859  0.00  0.00    -0.372 N 
ATOM      3  N   UNL     1       2.394  -9.753   8.661  0.00  0.00    -0.372 N 
ATOM      4  C   UNL     1       3.436 -10.410   9.181  0.00  0.00    +0.166 C 
ATOM      5  H   UNL     1       4.415 -12.167   9.435  0.00  0.00    +0.163 HD
ATOM      6  H   UNL     1       4.261  -8.706   9.983  0.00  0.00    +0.159 HD
ATOM      7  H   UNL     1       5.153 -10.148  10.289  0.00  0.00    +0.159 HD
ATOM      8  H   UNL     1       1.673 -10.226   8.133  0.00  0.00    +0.159 HD
ATOM      9  H   UNL     1       2.294  -8.751   8.764  0.00  0.00    +0.159 HD
ENDROOT
BRANCH   1  10
ATOM     10  C   UNL     1       2.622 -12.601   8.369  0.00  0.00    +0.151 C 
BRANCH  10  11
ATOM     11  C   UNL     1       1.949 -13.475   9.391  0.00  0.00    -0.028 A 
ATOM     12  C   UNL     1       2.404 -13.498  10.718  0.00  0.00    +0.005 A 
ATOM     13  C   UNL     1       0.853 -14.277   9.041  0.00  0.00    +0.005 A 
ATOM     14  C   UNL     1       1.761 -14.287  11.674  0.00  0.00    +0.000 A 
ATOM     15  C   UNL     1       0.214 -15.064   9.999  0.00  0.00    +0.000 A 
ATOM     16  C   UNL     1       0.666 -15.067  11.316  0.00  0.00    +0.000 A 
ENDBRANCH  10  11
ENDBRANCH   1  10
TORSDOF 2
ENDMDL
MODEL 8
REMARK VINA RESULT:    -5.447     17.921     18.971
REMARK INTER + INTRA:          -6.212
REMARK INTER:                  -6.119
REMARK INTRA:                  -0.093
REMARK UNBOUND:                -0.128
REMARK  Name = 1550473
REMARK  2 active torsions:
REMARK  status: ('A' for Active; 'I' for Inactive)
REMARK    1  A    between atoms: N_1  and  C_4
REMARK    2  A    between atoms: C_4  and  C_5
REMARK                            x       y       z     vdW  Elec       q    Type
REMARK                         _______ _______ _______ _____ _____    ______ ____
ROOT
ATOM      1  N   UNL     1       8.200   8.891  20.498  0.00  0.00    -0.354 N 
ATOM      2  N   UNL     1       8.981  10.134  18.706  0.00  0.00    -0.372 N 
ATOM      3  N   UNL     1       9.252  10.959  20.830  0.00  0.00    -0.372 N 
ATOM      4  C   UNL     1       8.806   9.988  20.025  0.00  0.00    +0.166 C 
ATOM      5  H   UNL     1       7.858   8.206  19.834  0.00  0.00    +0.163 HD
ATOM      6  H   UNL     1       9.438  10.949  18.321  0.00  0.00    +0.159 HD
ATOM      7  H   UNL     1       8.680   9.426  18.048  0.00  0.00    +0.159 HD
ATOM      8  H   UNL     1       9.145  10.913  21.835  0.00  0.00    +0.159 HD
ATOM      9  H   UNL     1       9.701  11.788  20.462  0.00  0.00    +0.159 HD
ENDROOT
BRANCH   1  10
ATOM     10  C   UNL     1       8.008   8.611  21.920  0.00  0.00    +0.151 C 
BRANCH  10  11
ATOM     11  C   UNL     1       7.066   7.449  22.069  0.00  0.00    -0.028 A 
ATOM     12  C   UNL     1       5.679   7.655  22.092  0.00  0.00    +0.005 A 
ATOM     13  C   UNL     1       7.554   6.138  22.183  0.00  0.00    +0.005 A 
ATOM     14  C   UNL     1       4.803   6.572  22.200  0.00  0.00    +0.000 A 
ATOM     15  C   UNL     1       6.676   5.060  22.291  0.00  0.00    +0.000 A 
ATOM     16  C   UNL     1       5.300   5.277  22.298  0.00  0.00    +0.000 A 
ENDBRANCH  10  11
ENDBRANCH   1  10
TORSDOF 2
ENDMDL
MODEL 9
REMARK VINA RESULT:    -5.258      9.448     10.702
REMARK INTER + INTRA:          -6.001
REMARK INTER:                  -5.890
REMARK INTRA:                  -0.111
REMARK UNBOUND:                -0.128
REMARK  Name = 1550473
REMARK  2 active torsions:
REMARK  status: ('A' for Active; 'I' for Inactive)
REMARK    1  A    between atoms: N_1  and  C_4
REMARK    2  A    between atoms: C_4  and  C_5
REMARK                            x       y       z     vdW  Elec       q    Type
REMARK                         _______ _______ _______ _____ _____    ______ ____
ROOT
ATOM      1  N   UNL     1       3.675  -9.018   7.442  0.00  0.00    -0.354 N 
ATOM      2  N   UNL     1       3.772  -7.101   6.147  0.00  0.00    -0.372 N 
ATOM      3  N   UNL     1       1.878  -7.515   7.375  0.00  0.00    -0.372 N 
ATOM      4  C   UNL     1       3.105  -7.890   6.998  0.00  0.00    +0.166 C 
ATOM      5  H   UNL     1       4.595  -9.262   7.095  0.00  0.00    +0.163 HD
ATOM      6  H   UNL     1       3.369  -6.242   5.797  0.00  0.00    +0.159 HD
ATOM      7  H   UNL     1       4.710  -7.323   5.837  0.00  0.00    +0.159 HD
ATOM      8  H   UNL     1       1.320  -8.070   8.011  0.00  0.00    +0.159 HD
ATOM      9  H   UNL     1       1.453  -6.665   7.027  0.00  0.00    +0.159 HD
ENDROOT
BRANCH   1  10
ATOM     10  C   UNL     1       3.056  -9.920   8.412  0.00  0.00    +0.151 C 
BRANCH  10  11
ATOM     11  C   UNL     1       3.879 -11.174   8.512  0.00  0.00    -0.028 A 
ATOM     12  C   UNL     1       3.259 -12.424   8.650  0.00  0.00    +0.005 A 
ATOM     13  C   UNL     1       5.281 -11.120   8.463  0.00  0.00    +0.005 A 
ATOM     14  C   UNL     1       4.022 -13.593   8.713  0.00  0.00    +0.000 A 
ATOM     15  C   UNL     1       6.040 -12.289   8.527  0.00  0.00    +0.000 A 
ATOM     16  C   UNL     1       5.410 -13.525   8.649  0.00  0.00    +0.000 A 
ENDBRANCH  10  11
ENDBRANCH   1  10
TORSDOF 2
ENDMDL
