MODEL 1
REMARK VINA RESULT:    -5.020      0.000      0.000
REMARK INTER + INTRA:          -5.689
REMARK INTER:                  -5.607
REMARK INTRA:                  -0.081
REMARK UNBOUND:                -0.081
REMARK  Name = 1550473
REMARK  2 active torsions:
REMARK  status: ('A' for Active; 'I' for Inactive)
REMARK    1  A    between atoms: N_1  and  C_4
REMARK    2  A    between atoms: C_4  and  C_5
REMARK                            x       y       z     vdW  Elec       q    Type
REMARK                         _______ _______ _______ _____ _____    ______ ____
ROOT
ATOM      1  N   UNL     1       1.490  -0.444  12.261  0.00  0.00    -0.354 N 
ATOM      2  N   UNL     1       1.268   0.669  14.279  0.00  0.00    -0.372 N 
ATOM      3  N   UNL     1      -0.409   0.849  12.723  0.00  0.00    -0.372 N 
ATOM      4  C   UNL     1       0.782   0.352  13.073  0.00  0.00    +0.166 C 
ATOM      5  H   UNL     1       2.400  -0.764  12.573  0.00  0.00    +0.163 HD
ATOM      6  H   UNL     1       0.755   1.265  14.915  0.00  0.00    +0.159 HD
ATOM      7  H   UNL     1       2.157   0.311  14.607  0.00  0.00    +0.159 HD
ATOM      8  H   UNL     1      -0.828   0.652  11.825  0.00  0.00    +0.159 HD
ATOM      9  H   UNL     1      -0.932   1.456  13.342  0.00  0.00    +0.159 HD
ENDROOT
BRANCH   1  10
ATOM     10  C   UNL     1       1.026  -0.894  10.949  0.00  0.00    +0.151 C 
BRANCH  10  11
ATOM     11  C   UNL     1       0.674  -2.354  11.026  0.00  0.00    -0.028 A 
ATOM     12  C   UNL     1      -0.161  -2.832  12.047  0.00  0.00    +0.005 A 
ATOM     13  C   UNL     1       1.168  -3.264  10.079  0.00  0.00    +0.005 A 
ATOM     14  C   UNL     1      -0.513  -4.183  12.101  0.00  0.00    +0.000 A 
ATOM     15  C   UNL     1       0.816  -4.612  10.137  0.00  0.00    +0.000 A 
ATOM     16  C   UNL     1      -0.027  -5.071  11.147  0.00  0.00    +0.000 A 
ENDBRANCH  10  11
ENDBRANCH   1  10
TORSDOF 2
ENDMDL
MODEL 2
REMARK VINA RESULT:    -4.961      3.594      5.451
REMARK INTER + INTRA:          -5.622
REMARK INTER:                  -5.490
REMARK INTRA:                  -0.132
REMARK UNBOUND:                -0.081
REMARK  Name = 1550473
REMARK  2 active torsions:
REMARK  status: ('A' for Active; 'I' for Inactive)
REMARK    1  A    between atoms: N_1  and  C_4
REMARK    2  A    between atoms: C_4  and  C_5
REMARK                            x       y       z     vdW  Elec       q    Type
REMARK                         _______ _______ _______ _____ _____    ______ ____
ROOT
ATOM      1  N   UNL     1      -0.831  -4.495   9.647  0.00  0.00    -0.354 N 
ATOM      2  N   UNL     1      -1.212  -5.499   7.595  0.00  0.00    -0.372 N 
ATOM      3  N   UNL     1       0.252  -6.488   9.059  0.00  0.00    -0.372 N 
ATOM      4  C   UNL     1      -0.592  -5.489   8.782  0.00  0.00    +0.166 C 
ATOM      5  H   UNL     1      -1.459  -3.751   9.365  0.00  0.00    +0.163 HD
ATOM      6  H   UNL     1      -1.055  -6.238   6.923  0.00  0.00    +0.159 HD
ATOM      7  H   UNL     1      -1.874  -4.779   7.334  0.00  0.00    +0.159 HD
ATOM      8  H   UNL     1       0.756  -6.536   9.935  0.00  0.00    +0.159 HD
ATOM      9  H   UNL     1       0.432  -7.231   8.394  0.00  0.00    +0.159 HD
ENDROOT
BRANCH   1  10
ATOM     10  C   UNL     1      -0.249  -4.419  10.986  0.00  0.00    +0.151 C 
BRANCH  10  11
ATOM     11  C   UNL     1       0.140  -2.995  11.273  0.00  0.00    -0.028 A 
ATOM     12  C   UNL     1       0.901  -2.265  10.349  0.00  0.00    +0.005 A 
ATOM     13  C   UNL     1      -0.255  -2.368  12.465  0.00  0.00    +0.005 A 
ATOM     14  C   UNL     1       1.237  -0.933  10.601  0.00  0.00    +0.000 A 
ATOM     15  C   UNL     1       0.083  -1.038  12.713  0.00  0.00    +0.000 A 
ATOM     16  C   UNL     1       0.827  -0.320  11.780  0.00  0.00    +0.000 A 
ENDBRANCH  10  11
ENDBRANCH   1  10
TORSDOF 2
ENDMDL
MODEL 3
REMARK VINA RESULT:    -4.827     24.793     25.851
REMARK INTER + INTRA:          -5.473
REMARK INTER:                  -5.365
REMARK INTRA:                  -0.108
REMARK UNBOUND:                -0.081
REMARK  Name = 1550473
REMARK  2 active torsions:
REMARK  status: ('A' for Active; 'I' for Inactive)
REMARK    1  A    between atoms: N_1  and  C_4
REMARK    2  A    between atoms: C_4  and  C_5
REMARK                            x       y       z     vdW  Elec       q    Type
REMARK                         _______ _______ _______ _____ _____    ______ ____
ROOT
ATOM      1  N   UNL     1     -12.162  -6.602 -11.263  0.00  0.00    -0.354 N 
ATOM      2  N   UNL     1     -13.516  -7.500 -12.914  0.00  0.00    -0.372 N 
ATOM      3  N   UNL     1     -13.230  -8.666 -10.958  0.00  0.00    -0.372 N 
ATOM      4  C   UNL     1     -12.960  -7.586 -11.699  0.00  0.00    +0.166 C 
ATOM      5  H   UNL     1     -11.973  -5.824 -11.884  0.00  0.00    +0.163 HD
ATOM      6  H   UNL     1     -14.125  -8.225 -13.268  0.00  0.00    +0.159 HD
ATOM      7  H   UNL     1     -13.362  -6.699 -13.514  0.00  0.00    +0.159 HD
ATOM      8  H   UNL     1     -12.837  -8.794 -10.035  0.00  0.00    +0.159 HD
ATOM      9  H   UNL     1     -13.828  -9.408 -11.301  0.00  0.00    +0.159 HD
ENDROOT
BRANCH   1  10
ATOM     10  C   UNL     1     -11.551  -6.574  -9.935  0.00  0.00    +0.151 C 
BRANCH  10  11
ATOM     11  C   UNL     1     -10.308  -5.728  -9.985  0.00  0.00    -0.028 A 
ATOM     12  C   UNL     1     -10.238  -4.523  -9.270  0.00  0.00    +0.005 A 
ATOM     13  C   UNL     1      -9.195  -6.129 -10.740  0.00  0.00    +0.005 A 
ATOM     14  C   UNL     1      -9.074  -3.752  -9.292  0.00  0.00    +0.000 A 
ATOM     15  C   UNL     1      -8.035  -5.355 -10.760  0.00  0.00    +0.000 A 
ATOM     16  C   UNL     1      -7.973  -4.168 -10.034  0.00  0.00    +0.000 A 
ENDBRANCH  10  11
ENDBRANCH   1  10
TORSDOF 2
ENDMDL
MODEL 4
REMARK VINA RESULT:    -4.761     37.998     39.635
REMARK INTER + INTRA:          -5.398
REMARK INTER:                  -5.275
REMARK INTRA:                  -0.124
REMARK UNBOUND:                -0.081
REMARK  Name = 1550473
REMARK  2 active torsions:
REMARK  status: ('A' for Active; 'I' for Inactive)
REMARK    1  A    between atoms: N_1  and  C_4
REMARK    2  A    between atoms: C_4  and  C_5
REMARK                            x       y       z     vdW  Elec       q    Type
REMARK                         _______ _______ _______ _____ _____    ______ ____
ROOT
ATOM      1  N   UNL     1      -6.952 -25.504 -19.811  0.00  0.00    -0.354 N 
ATOM      2  N   UNL     1      -4.801 -25.824 -20.610  0.00  0.00    -0.372 N 
ATOM      3  N   UNL     1      -6.452 -27.283 -21.251  0.00  0.00    -0.372 N 
ATOM      4  C   UNL     1      -6.084 -26.204 -20.553  0.00  0.00    +0.166 C 
ATOM      5  H   UNL     1      -6.603 -24.713 -19.281  0.00  0.00    +0.163 HD
ATOM      6  H   UNL     1      -4.124 -26.331 -21.164  0.00  0.00    +0.159 HD
ATOM      7  H   UNL     1      -4.466 -25.007 -20.116  0.00  0.00    +0.159 HD
ATOM      8  H   UNL     1      -7.404 -27.625 -21.246  0.00  0.00    +0.159 HD
ATOM      9  H   UNL     1      -5.786 -27.811 -21.803  0.00  0.00    +0.159 HD
ENDROOT
BRANCH   1  10
ATOM     10  C   UNL     1      -8.380 -25.801 -19.725  0.00  0.00    +0.151 C 
BRANCH  10  11
ATOM     11  C   UNL     1      -8.999 -24.936 -18.662  0.00  0.00    -0.028 A 
ATOM     12  C   UNL     1      -8.229 -23.978 -17.986  0.00  0.00    +0.005 A 
ATOM     13  C   UNL     1     -10.357 -25.064 -18.331  0.00  0.00    +0.005 A 
ATOM     14  C   UNL     1      -8.811 -23.153 -17.020  0.00  0.00    +0.000 A 
ATOM     15  C   UNL     1     -10.933 -24.239 -17.365  0.00  0.00    +0.000 A 
ATOM     16  C   UNL     1     -10.161 -23.282 -16.712  0.00  0.00    +0.000 A 
ENDBRANCH  10  11
ENDBRANCH   1  10
TORSDOF 2
ENDMDL
MODEL 5
REMARK VINA RESULT:    -4.745     10.261     11.740
REMARK INTER + INTRA:          -5.381
REMARK INTER:                  -5.243
REMARK INTRA:                  -0.138
REMARK UNBOUND:                -0.081
REMARK  Name = 1550473
REMARK  2 active torsions:
REMARK  status: ('A' for Active; 'I' for Inactive)
REMARK    1  A    between atoms: N_1  and  C_4
REMARK    2  A    between atoms: C_4  and  C_5
REMARK                            x       y       z     vdW  Elec       q    Type
REMARK                         _______ _______ _______ _____ _____    ______ ____
ROOT
ATOM      1  N   UNL     1       6.873   5.382   3.599  0.00  0.00    -0.354 N 
ATOM      2  N   UNL     1       7.575   6.902   1.999  0.00  0.00    -0.372 N 
ATOM      3  N   UNL     1       8.877   6.569   3.860  0.00  0.00    -0.372 N 
ATOM      4  C   UNL     1       7.772   6.275   3.165  0.00  0.00    +0.166 C 
ATOM      5  H   UNL     1       6.042   5.226   3.041  0.00  0.00    +0.163 HD
ATOM      6  H   UNL     1       8.238   7.579   1.645  0.00  0.00    +0.159 HD
ATOM      7  H   UNL     1       6.766   6.710   1.421  0.00  0.00    +0.159 HD
ATOM      8  H   UNL     1       9.081   6.135   4.750  0.00  0.00    +0.159 HD
ATOM      9  H   UNL     1       9.546   7.252   3.527  0.00  0.00    +0.159 HD
ENDROOT
BRANCH   1  10
ATOM     10  C   UNL     1       7.020   4.605   4.829  0.00  0.00    +0.151 C 
BRANCH  10  11
ATOM     11  C   UNL     1       5.684   4.509   5.512  0.00  0.00    -0.028 A 
ATOM     12  C   UNL     1       4.641   5.378   5.161  0.00  0.00    +0.005 A 
ATOM     13  C   UNL     1       5.452   3.546   6.506  0.00  0.00    +0.005 A 
ATOM     14  C   UNL     1       3.390   5.270   5.774  0.00  0.00    +0.000 A 
ATOM     15  C   UNL     1       4.202   3.441   7.116  0.00  0.00    +0.000 A 
ATOM     16  C   UNL     1       3.171   4.301   6.748  0.00  0.00    +0.000 A 
ENDBRANCH  10  11
ENDBRANCH   1  10
TORSDOF 2
ENDMDL
MODEL 6
REMARK VINA RESULT:    -4.687     36.819     38.470
REMARK INTER + INTRA:          -5.317
REMARK INTER:                  -5.195
REMARK INTRA:                  -0.122
REMARK UNBOUND:                -0.081
REMARK  Name = 1550473
REMARK  2 active torsions:
REMARK  status: ('A' for Active; 'I' for Inactive)
REMARK    1  A    between atoms: N_1  and  C_4
REMARK    2  A    between atoms: C_4  and  C_5
REMARK                            x       y       z     vdW  Elec       q    Type
REMARK                         _______ _______ _______ _____ _____    ______ ____
ROOT
ATOM      1  N   UNL     1      -8.550 -25.570 -18.899  0.00  0.00    -0.354 N 
ATOM      2  N   UNL     1      -7.210 -27.327 -19.593  0.00  0.00    -0.372 N 
ATOM      3  N   UNL     1      -7.343 -25.448 -20.903  0.00  0.00    -0.372 N 
ATOM      4  C   UNL     1      -7.709 -26.102 -19.796  0.00  0.00    +0.166 C 
ATOM      5  H   UNL     1      -8.813 -26.129 -18.095  0.00  0.00    +0.163 HD
ATOM      6  H   UNL     1      -6.570 -27.752 -20.250  0.00  0.00    +0.159 HD
ATOM      7  H   UNL     1      -7.438 -27.864 -18.765  0.00  0.00    +0.159 HD
ATOM      8  H   UNL     1      -7.689 -24.523 -21.119  0.00  0.00    +0.159 HD
ATOM      9  H   UNL     1      -6.713 -25.862 -21.579  0.00  0.00    +0.159 HD
ENDROOT
BRANCH   1  10
ATOM     10  C   UNL     1      -9.108 -24.222 -18.999  0.00  0.00    +0.151 C 
BRANCH  10  11
ATOM     11  C   UNL     1      -9.073 -23.574 -17.643  0.00  0.00    -0.028 A 
ATOM     12  C   UNL     1      -7.859 -23.143 -17.091  0.00  0.00    +0.005 A 
ATOM     13  C   UNL     1     -10.253 -23.383 -16.907  0.00  0.00    +0.005 A 
ATOM     14  C   UNL     1      -7.830 -22.513 -15.844  0.00  0.00    +0.000 A 
ATOM     15  C   UNL     1     -10.220 -22.755 -15.662  0.00  0.00    +0.000 A 
ATOM     16  C   UNL     1      -9.009 -22.318 -15.132  0.00  0.00    +0.000 A 
ENDBRANCH  10  11
ENDBRANCH   1  10
TORSDOF 2
ENDMDL
MODEL 7
REMARK VINA RESULT:    -4.595     37.163     38.548
REMARK INTER + INTRA:          -5.214
REMARK INTER:                  -5.074
REMARK INTRA:                  -0.139
REMARK UNBOUND:                -0.081
REMARK  Name = 1550473
REMARK  2 active torsions:
REMARK  status: ('A' for Active; 'I' for Inactive)
REMARK    1  A    between atoms: N_1  and  C_4
REMARK    2  A    between atoms: C_4  and  C_5
REMARK                            x       y       z     vdW  Elec       q    Type
REMARK                         _______ _______ _______ _____ _____    ______ ____
ROOT
ATOM      1  N   UNL     1      -5.949 -25.582 -17.887  0.00  0.00    -0.354 N 
ATOM      2  N   UNL     1      -3.684 -25.158 -17.655  0.00  0.00    -0.372 N 
ATOM      3  N   UNL     1      -4.537 -25.507 -19.756  0.00  0.00    -0.372 N 
ATOM      4  C   UNL     1      -4.738 -25.419 -18.437  0.00  0.00    +0.166 C 
ATOM      5  H   UNL     1      -6.030 -25.532 -16.878  0.00  0.00    +0.163 HD
ATOM      6  H   UNL     1      -2.759 -25.026 -18.041  0.00  0.00    +0.159 HD
ATOM      7  H   UNL     1      -3.776 -25.063 -16.650  0.00  0.00    +0.159 HD
ATOM      8  H   UNL     1      -5.290 -25.708 -20.400  0.00  0.00    +0.159 HD
ATOM      9  H   UNL     1      -3.616 -25.390 -20.161  0.00  0.00    +0.159 HD
ENDROOT
BRANCH   1  10
ATOM     10  C   UNL     1      -7.170 -25.816 -18.655  0.00  0.00    +0.151 C 
BRANCH  10  11
ATOM     11  C   UNL     1      -8.269 -24.946 -18.108  0.00  0.00    -0.028 A 
ATOM     12  C   UNL     1      -9.614 -25.269 -18.338  0.00  0.00    +0.005 A 
ATOM     13  C   UNL     1      -7.970 -23.800 -17.355  0.00  0.00    +0.005 A 
ATOM     14  C   UNL     1     -10.635 -24.478 -17.805  0.00  0.00    +0.000 A 
ATOM     15  C   UNL     1      -8.992 -23.012 -16.826  0.00  0.00    +0.000 A 
ATOM     16  C   UNL     1     -10.324 -23.353 -17.049  0.00  0.00    +0.000 A 
ENDBRANCH  10  11
ENDBRANCH   1  10
TORSDOF 2
ENDMDL
MODEL 8
REMARK VINA RESULT:    -4.538     14.891     16.509
REMARK INTER + INTRA:          -5.150
REMARK INTER:                  -5.003
REMARK INTRA:                  -0.147
REMARK UNBOUND:                -0.081
REMARK  Name = 1550473
REMARK  2 active torsions:
REMARK  status: ('A' for Active; 'I' for Inactive)
REMARK    1  A    between atoms: N_1  and  C_4
REMARK    2  A    between atoms: C_4  and  C_5
REMARK                            x       y       z     vdW  Elec       q    Type
REMARK                         _______ _______ _______ _____ _____    ______ ____
ROOT
ATOM      1  N   UNL     1      -0.204  -9.653  -2.781  0.00  0.00    -0.354 N 
ATOM      2  N   UNL     1      -2.405 -10.311  -3.068  0.00  0.00    -0.372 N 
ATOM      3  N   UNL     1      -1.158  -9.775  -4.918  0.00  0.00    -0.372 N 
ATOM      4  C   UNL     1      -1.241  -9.908  -3.590  0.00  0.00    +0.166 C 
ATOM      5  H   UNL     1      -0.339  -9.743  -1.781  0.00  0.00    +0.163 HD
ATOM      6  H   UNL     1      -3.204 -10.514  -3.653  0.00  0.00    +0.159 HD
ATOM      7  H   UNL     1      -2.525 -10.445  -2.071  0.00  0.00    +0.159 HD
ATOM      8  H   UNL     1      -0.309  -9.469  -5.374  0.00  0.00    +0.159 HD
ATOM      9  H   UNL     1      -1.950  -9.963  -5.519  0.00  0.00    +0.159 HD
ENDROOT
BRANCH   1  10
ATOM     10  C   UNL     1       1.123  -9.260  -3.252  0.00  0.00    +0.151 C 
BRANCH  10  11
ATOM     11  C   UNL     1       1.462  -7.906  -2.694  0.00  0.00    -0.028 A 
ATOM     12  C   UNL     1       2.589  -7.208  -3.152  0.00  0.00    +0.005 A 
ATOM     13  C   UNL     1       0.657  -7.312  -1.710  0.00  0.00    +0.005 A 
ATOM     14  C   UNL     1       2.888  -5.937  -2.656  0.00  0.00    +0.000 A 
ATOM     15  C   UNL     1       0.959  -6.043  -1.216  0.00  0.00    +0.000 A 
ATOM     16  C   UNL     1       2.073  -5.355  -1.691  0.00  0.00    +0.000 A 
ENDBRANCH  10  11
ENDBRANCH   1  10
TORSDOF 2
ENDMDL
MODEL 9
REMARK VINA RESULT:    -4.406     45.897     47.320
REMARK INTER + INTRA:          -5.003
REMARK INTER:                  -4.898
REMARK INTRA:                  -0.105
REMARK UNBOUND:                -0.081
REMARK  Name = 1550473
REMARK  2 active torsions:
REMARK  status: ('A' for Active; 'I' for Inactive)
REMARK    1  A    between atoms: N_1  and  C_4
REMARK    2  A    between atoms: C_4  and  C_5
REMARK                            x       y       z     vdW  Elec       q    Type
REMARK                         _______ _______ _______ _____ _____    ______ ____
ROOT
ATOM      1  N   UNL     1      -9.776 -19.047 -29.125  0.00  0.00    -0.354 N 
ATOM      2  N   UNL     1     -10.765 -17.498 -27.716  0.00  0.00    -0.372 N 
ATOM      3  N   UNL     1     -11.123 -19.732 -27.333  0.00  0.00    -0.372 N 
ATOM      4  C   UNL     1     -10.549 -18.771 -28.066  0.00  0.00    +0.166 C 
ATOM      5  H   UNL     1      -9.395 -18.273 -29.657  0.00  0.00    +0.163 HD
ATOM      6  H   UNL     1     -11.341 -17.259 -26.920  0.00  0.00    +0.159 HD
ATOM      7  H   UNL     1     -10.346 -16.728 -28.222  0.00  0.00    +0.159 HD
ATOM      8  H   UNL     1     -11.004 -20.713 -27.549  0.00  0.00    +0.159 HD
ATOM      9  H   UNL     1     -11.712 -19.513 -26.540  0.00  0.00    +0.159 HD
ENDROOT
BRANCH   1  10
ATOM     10  C   UNL     1      -9.435 -20.401 -29.558  0.00  0.00    +0.151 C 
BRANCH  10  11
ATOM     11  C   UNL     1     -10.045 -20.653 -30.909  0.00  0.00    -0.028 A 
ATOM     12  C   UNL     1      -9.569 -21.692 -31.722  0.00  0.00    +0.005 A 
ATOM     13  C   UNL     1     -11.102 -19.860 -31.380  0.00  0.00    +0.005 A 
ATOM     14  C   UNL     1     -10.155 -21.946 -32.965  0.00  0.00    +0.000 A 
ATOM     15  C   UNL     1     -11.684 -20.115 -32.622  0.00  0.00    +0.000 A 
ATOM     16  C   UNL     1     -11.212 -21.160 -33.413  0.00  0.00    +0.000 A 
ENDBRANCH  10  11
ENDBRANCH   1  10
TORSDOF 2
ENDMDL
