MODEL 1
REMARK VINA RESULT:    -5.525      0.000      0.000
REMARK INTER + INTRA:          -6.322
REMARK INTER:                  -6.171
REMARK INTRA:                  -0.151
REMARK UNBOUND:                -0.151
REMARK  Name = 1550473
REMARK  2 active torsions:
REMARK  status: ('A' for Active; 'I' for Inactive)
REMARK    1  A    between atoms: N_1  and  C_4
REMARK    2  A    between atoms: C_4  and  C_5
REMARK                            x       y       z     vdW  Elec       q    Type
REMARK                         _______ _______ _______ _____ _____    ______ ____
ROOT
ATOM      1  N   UNL     1       2.731  -9.977 -26.331  0.00  0.00    -0.354 N 
ATOM      2  N   UNL     1       4.392  -9.833 -24.722  0.00  0.00    -0.372 N 
ATOM      3  N   UNL     1       4.831  -9.071 -26.842  0.00  0.00    -0.372 N 
ATOM      4  C   UNL     1       3.975  -9.627 -25.978  0.00  0.00    +0.166 C 
ATOM      5  H   UNL     1       2.141 -10.422 -25.637  0.00  0.00    +0.163 HD
ATOM      6  H   UNL     1       5.324  -9.576 -24.426  0.00  0.00    +0.159 HD
ATOM      7  H   UNL     1       3.784 -10.236 -24.019  0.00  0.00    +0.159 HD
ATOM      8  H   UNL     1       4.580  -8.894 -27.805  0.00  0.00    +0.159 HD
ATOM      9  H   UNL     1       5.772  -8.818 -26.567  0.00  0.00    +0.159 HD
ENDROOT
BRANCH   1  10
ATOM     10  C   UNL     1       2.162  -9.746 -27.657  0.00  0.00    +0.151 C 
BRANCH  10  11
ATOM     11  C   UNL     1       2.096 -11.054 -28.397  0.00  0.00    -0.028 A 
ATOM     12  C   UNL     1       2.052 -12.267 -27.696  0.00  0.00    +0.005 A 
ATOM     13  C   UNL     1       2.071 -11.085 -29.800  0.00  0.00    +0.005 A 
ATOM     14  C   UNL     1       1.960 -13.481 -28.382  0.00  0.00    +0.000 A 
ATOM     15  C   UNL     1       1.981 -12.298 -30.482  0.00  0.00    +0.000 A 
ATOM     16  C   UNL     1       1.923 -13.496 -29.773  0.00  0.00    +0.000 A 
ENDBRANCH  10  11
ENDBRANCH   1  10
TORSDOF 2
ENDMDL
MODEL 2
REMARK VINA RESULT:    -4.931     15.491     16.659
REMARK INTER + INTRA:          -5.658
REMARK INTER:                  -5.549
REMARK INTRA:                  -0.109
REMARK UNBOUND:                -0.151
REMARK  Name = 1550473
REMARK  2 active torsions:
REMARK  status: ('A' for Active; 'I' for Inactive)
REMARK    1  A    between atoms: N_1  and  C_4
REMARK    2  A    between atoms: C_4  and  C_5
REMARK                            x       y       z     vdW  Elec       q    Type
REMARK                         _______ _______ _______ _____ _____    ______ ____
ROOT
ATOM      1  N   UNL     1     -11.086  -5.267 -31.428  0.00  0.00    -0.354 N 
ATOM      2  N   UNL     1     -11.959  -5.489 -33.561  0.00  0.00    -0.372 N 
ATOM      3  N   UNL     1     -10.753  -3.606 -33.047  0.00  0.00    -0.372 N 
ATOM      4  C   UNL     1     -11.259  -4.784 -32.665  0.00  0.00    +0.166 C 
ATOM      5  H   UNL     1     -11.521  -6.152 -31.192  0.00  0.00    +0.163 HD
ATOM      6  H   UNL     1     -12.103  -5.151 -34.504  0.00  0.00    +0.159 HD
ATOM      7  H   UNL     1     -12.354  -6.394 -33.337  0.00  0.00    +0.159 HD
ATOM      8  H   UNL     1     -10.220  -3.023 -32.416  0.00  0.00    +0.159 HD
ATOM      9  H   UNL     1     -10.896  -3.246 -33.982  0.00  0.00    +0.159 HD
ENDROOT
BRANCH   1  10
ATOM     10  C   UNL     1     -10.296  -4.603 -30.393  0.00  0.00    +0.151 C 
BRANCH  10  11
ATOM     11  C   UNL     1     -11.198  -4.229 -29.250  0.00  0.00    -0.028 A 
ATOM     12  C   UNL     1     -12.580  -4.098 -29.447  0.00  0.00    +0.005 A 
ATOM     13  C   UNL     1     -10.677  -4.011 -27.965  0.00  0.00    +0.005 A 
ATOM     14  C   UNL     1     -13.423  -3.780 -28.379  0.00  0.00    +0.000 A 
ATOM     15  C   UNL     1     -11.522  -3.693 -26.901  0.00  0.00    +0.000 A 
ATOM     16  C   UNL     1     -12.894  -3.580 -27.108  0.00  0.00    +0.000 A 
ENDBRANCH  10  11
ENDBRANCH   1  10
TORSDOF 2
ENDMDL
MODEL 3
REMARK VINA RESULT:    -4.800     43.980     45.385
REMARK INTER + INTRA:          -5.512
REMARK INTER:                  -5.341
REMARK INTRA:                  -0.170
REMARK UNBOUND:                -0.151
REMARK  Name = 1550473
REMARK  2 active torsions:
REMARK  status: ('A' for Active; 'I' for Inactive)
REMARK    1  A    between atoms: N_1  and  C_4
REMARK    2  A    between atoms: C_4  and  C_5
REMARK                            x       y       z     vdW  Elec       q    Type
REMARK                         _______ _______ _______ _____ _____    ______ ____
ROOT
ATOM      1  N   UNL     1     -14.029   1.555  13.331  0.00  0.00    -0.354 N 
ATOM      2  N   UNL     1     -13.526  -0.696  13.544  0.00  0.00    -0.372 N 
ATOM      3  N   UNL     1     -12.077   0.660  12.392  0.00  0.00    -0.372 N 
ATOM      4  C   UNL     1     -13.212   0.522  13.086  0.00  0.00    +0.166 C 
ATOM      5  H   UNL     1     -14.889   1.379  13.837  0.00  0.00    +0.163 HD
ATOM      6  H   UNL     1     -12.928  -1.494  13.378  0.00  0.00    +0.159 HD
ATOM      7  H   UNL     1     -14.364  -0.860  14.089  0.00  0.00    +0.159 HD
ATOM      8  H   UNL     1     -11.786   1.551  12.013  0.00  0.00    +0.159 HD
ATOM      9  H   UNL     1     -11.471  -0.129  12.205  0.00  0.00    +0.159 HD
ENDROOT
BRANCH   1  10
ATOM     10  C   UNL     1     -13.752   2.931  12.922  0.00  0.00    +0.151 C 
BRANCH  10  11
ATOM     11  C   UNL     1     -14.665   3.299  11.785  0.00  0.00    -0.028 A 
ATOM     12  C   UNL     1     -14.353   2.921  10.471  0.00  0.00    +0.005 A 
ATOM     13  C   UNL     1     -15.847   4.020  12.016  0.00  0.00    +0.005 A 
ATOM     14  C   UNL     1     -15.215   3.237   9.418  0.00  0.00    +0.000 A 
ATOM     15  C   UNL     1     -16.705   4.333  10.962  0.00  0.00    +0.000 A 
ATOM     16  C   UNL     1     -16.390   3.940   9.664  0.00  0.00    +0.000 A 
ENDBRANCH  10  11
ENDBRANCH   1  10
TORSDOF 2
ENDMDL
MODEL 4
REMARK VINA RESULT:    -4.764     15.680     16.807
REMARK INTER + INTRA:          -5.472
REMARK INTER:                  -5.378
REMARK INTRA:                  -0.094
REMARK UNBOUND:                -0.151
REMARK  Name = 1550473
REMARK  2 active torsions:
REMARK  status: ('A' for Active; 'I' for Inactive)
REMARK    1  A    between atoms: N_1  and  C_4
REMARK    2  A    between atoms: C_4  and  C_5
REMARK                            x       y       z     vdW  Elec       q    Type
REMARK                         _______ _______ _______ _____ _____    ______ ____
ROOT
ATOM      1  N   UNL     1     -12.172  -5.861 -34.074  0.00  0.00    -0.354 N 
ATOM      2  N   UNL     1     -13.512  -7.357 -35.228  0.00  0.00    -0.372 N 
ATOM      3  N   UNL     1     -11.854  -6.249 -36.364  0.00  0.00    -0.372 N 
ATOM      4  C   UNL     1     -12.502  -6.478 -35.217  0.00  0.00    +0.166 C 
ATOM      5  H   UNL     1     -12.722  -6.056 -33.246  0.00  0.00    +0.163 HD
ATOM      6  H   UNL     1     -13.782  -7.840 -36.075  0.00  0.00    +0.159 HD
ATOM      7  H   UNL     1     -14.031  -7.584 -34.389  0.00  0.00    +0.159 HD
ATOM      8  H   UNL     1     -11.087  -5.593 -36.423  0.00  0.00    +0.159 HD
ATOM      9  H   UNL     1     -12.117  -6.715 -37.223  0.00  0.00    +0.159 HD
ENDROOT
BRANCH   1  10
ATOM     10  C   UNL     1     -11.055  -4.928 -33.943  0.00  0.00    +0.151 C 
BRANCH  10  11
ATOM     11  C   UNL     1     -10.845  -4.615 -32.487  0.00  0.00    -0.028 A 
ATOM     12  C   UNL     1     -10.190  -5.528 -31.649  0.00  0.00    +0.005 A 
ATOM     13  C   UNL     1     -11.295  -3.403 -31.941  0.00  0.00    +0.005 A 
ATOM     14  C   UNL     1      -9.969  -5.225 -30.303  0.00  0.00    +0.000 A 
ATOM     15  C   UNL     1     -11.073  -3.104 -30.596  0.00  0.00    +0.000 A 
ATOM     16  C   UNL     1     -10.408  -4.014 -29.779  0.00  0.00    +0.000 A 
ENDBRANCH  10  11
ENDBRANCH   1  10
TORSDOF 2
ENDMDL
MODEL 5
REMARK VINA RESULT:    -4.719     15.732     16.832
REMARK INTER + INTRA:          -5.422
REMARK INTER:                  -5.292
REMARK INTRA:                  -0.130
REMARK UNBOUND:                -0.151
REMARK  Name = 1550473
REMARK  2 active torsions:
REMARK  status: ('A' for Active; 'I' for Inactive)
REMARK    1  A    between atoms: N_1  and  C_4
REMARK    2  A    between atoms: C_4  and  C_5
REMARK                            x       y       z     vdW  Elec       q    Type
REMARK                         _______ _______ _______ _____ _____    ______ ____
ROOT
ATOM      1  N   UNL     1     -11.921  -5.140 -34.051  0.00  0.00    -0.354 N 
ATOM      2  N   UNL     1     -11.133  -5.436 -36.209  0.00  0.00    -0.372 N 
ATOM      3  N   UNL     1     -12.406  -7.091 -35.256  0.00  0.00    -0.372 N 
ATOM      4  C   UNL     1     -11.826  -5.890 -35.158  0.00  0.00    +0.166 C 
ATOM      5  H   UNL     1     -11.433  -4.252 -34.029  0.00  0.00    +0.163 HD
ATOM      6  H   UNL     1     -11.047  -5.978 -37.059  0.00  0.00    +0.159 HD
ATOM      7  H   UNL     1     -10.685  -4.528 -36.200  0.00  0.00    +0.159 HD
ATOM      8  H   UNL     1     -12.938  -7.493 -34.496  0.00  0.00    +0.159 HD
ATOM      9  H   UNL     1     -12.321  -7.653 -36.094  0.00  0.00    +0.159 HD
ENDROOT
BRANCH   1  10
ATOM     10  C   UNL     1     -12.696  -5.519 -32.871  0.00  0.00    +0.151 C 
BRANCH  10  11
ATOM     11  C   UNL     1     -11.950  -5.096 -31.636  0.00  0.00    -0.028 A 
ATOM     12  C   UNL     1     -12.617  -4.443 -30.589  0.00  0.00    +0.005 A 
ATOM     13  C   UNL     1     -10.576  -5.350 -31.505  0.00  0.00    +0.005 A 
ATOM     14  C   UNL     1     -11.930  -4.077 -29.429  0.00  0.00    +0.000 A 
ATOM     15  C   UNL     1      -9.893  -4.982 -30.345  0.00  0.00    +0.000 A 
ATOM     16  C   UNL     1     -10.571  -4.348 -29.307  0.00  0.00    +0.000 A 
ENDBRANCH  10  11
ENDBRANCH   1  10
TORSDOF 2
ENDMDL
MODEL 6
REMARK VINA RESULT:    -4.506     15.491     16.573
REMARK INTER + INTRA:          -5.184
REMARK INTER:                  -5.059
REMARK INTRA:                  -0.125
REMARK UNBOUND:                -0.151
REMARK  Name = 1550473
REMARK  2 active torsions:
REMARK  status: ('A' for Active; 'I' for Inactive)
REMARK    1  A    between atoms: N_1  and  C_4
REMARK    2  A    between atoms: C_4  and  C_5
REMARK                            x       y       z     vdW  Elec       q    Type
REMARK                         _______ _______ _______ _____ _____    ______ ____
ROOT
ATOM      1  N   UNL     1     -10.456  -4.407 -33.102  0.00  0.00    -0.354 N 
ATOM      2  N   UNL     1     -10.802  -3.722 -35.287  0.00  0.00    -0.372 N 
ATOM      3  N   UNL     1     -10.889  -5.962 -34.801  0.00  0.00    -0.372 N 
ATOM      4  C   UNL     1     -10.713  -4.704 -34.383  0.00  0.00    +0.166 C 
ATOM      5  H   UNL     1     -10.303  -3.436 -32.855  0.00  0.00    +0.163 HD
ATOM      6  H   UNL     1     -10.998  -3.915 -36.260  0.00  0.00    +0.159 HD
ATOM      7  H   UNL     1     -10.694  -2.749 -35.029  0.00  0.00    +0.159 HD
ATOM      8  H   UNL     1     -10.829  -6.750 -34.169  0.00  0.00    +0.159 HD
ATOM      9  H   UNL     1     -11.075  -6.177 -35.772  0.00  0.00    +0.159 HD
ENDROOT
BRANCH   1  10
ATOM     10  C   UNL     1     -10.393  -5.398 -32.029  0.00  0.00    +0.151 C 
BRANCH  10  11
ATOM     11  C   UNL     1     -11.169  -4.891 -30.845  0.00  0.00    -0.028 A 
ATOM     12  C   UNL     1     -10.503  -4.345 -29.739  0.00  0.00    +0.005 A 
ATOM     13  C   UNL     1     -12.571  -4.948 -30.827  0.00  0.00    +0.005 A 
ATOM     14  C   UNL     1     -11.224  -3.846 -28.651  0.00  0.00    +0.000 A 
ATOM     15  C   UNL     1     -13.288  -4.450 -29.739  0.00  0.00    +0.000 A 
ATOM     16  C   UNL     1     -12.614  -3.896 -28.653  0.00  0.00    +0.000 A 
ENDBRANCH  10  11
ENDBRANCH   1  10
TORSDOF 2
ENDMDL
MODEL 7
REMARK VINA RESULT:    -4.329     15.837     17.584
REMARK INTER + INTRA:          -4.986
REMARK INTER:                  -4.866
REMARK INTRA:                  -0.120
REMARK UNBOUND:                -0.151
REMARK  Name = 1550473
REMARK  2 active torsions:
REMARK  status: ('A' for Active; 'I' for Inactive)
REMARK    1  A    between atoms: N_1  and  C_4
REMARK    2  A    between atoms: C_4  and  C_5
REMARK                            x       y       z     vdW  Elec       q    Type
REMARK                         _______ _______ _______ _____ _____    ______ ____
ROOT
ATOM      1  N   UNL     1       3.417   0.591 -12.767  0.00  0.00    -0.354 N 
ATOM      2  N   UNL     1       4.054   2.640 -11.896  0.00  0.00    -0.372 N 
ATOM      3  N   UNL     1       5.505   0.870 -11.740  0.00  0.00    -0.372 N 
ATOM      4  C   UNL     1       4.324   1.352 -12.139  0.00  0.00    +0.166 C 
ATOM      5  H   UNL     1       2.528   1.008 -13.017  0.00  0.00    +0.163 HD
ATOM      6  H   UNL     1       4.720   3.240 -11.427  0.00  0.00    +0.159 HD
ATOM      7  H   UNL     1       3.183   3.067 -12.188  0.00  0.00    +0.159 HD
ATOM      8  H   UNL     1       5.767  -0.096 -11.888  0.00  0.00    +0.159 HD
ATOM      9  H   UNL     1       6.180   1.451 -11.258  0.00  0.00    +0.159 HD
ENDROOT
BRANCH   1  10
ATOM     10  C   UNL     1       3.634  -0.809 -13.127  0.00  0.00    +0.151 C 
BRANCH  10  11
ATOM     11  C   UNL     1       2.692  -1.182 -14.238  0.00  0.00    -0.028 A 
ATOM     12  C   UNL     1       2.993  -2.248 -15.099  0.00  0.00    +0.005 A 
ATOM     13  C   UNL     1       1.495  -0.476 -14.433  0.00  0.00    +0.005 A 
ATOM     14  C   UNL     1       2.104  -2.614 -16.113  0.00  0.00    +0.000 A 
ATOM     15  C   UNL     1       0.611  -0.844 -15.448  0.00  0.00    +0.000 A 
ATOM     16  C   UNL     1       0.914  -1.914 -16.285  0.00  0.00    +0.000 A 
ENDBRANCH  10  11
ENDBRANCH   1  10
TORSDOF 2
ENDMDL
MODEL 8
REMARK VINA RESULT:    -4.235     16.494     17.681
REMARK INTER + INTRA:          -4.881
REMARK INTER:                  -4.702
REMARK INTRA:                  -0.179
REMARK UNBOUND:                -0.151
REMARK  Name = 1550473
REMARK  2 active torsions:
REMARK  status: ('A' for Active; 'I' for Inactive)
REMARK    1  A    between atoms: N_1  and  C_4
REMARK    2  A    between atoms: C_4  and  C_5
REMARK                            x       y       z     vdW  Elec       q    Type
REMARK                         _______ _______ _______ _____ _____    ______ ____
ROOT
ATOM      1  N   UNL     1     -12.659  -4.330 -31.486  0.00  0.00    -0.354 N 
ATOM      2  N   UNL     1     -13.768  -6.092 -32.500  0.00  0.00    -0.372 N 
ATOM      3  N   UNL     1     -14.993  -4.510 -31.378  0.00  0.00    -0.372 N 
ATOM      4  C   UNL     1     -13.802  -4.964 -31.780  0.00  0.00    +0.166 C 
ATOM      5  H   UNL     1     -11.786  -4.742 -31.795  0.00  0.00    +0.163 HD
ATOM      6  H   UNL     1     -14.614  -6.591 -32.740  0.00  0.00    +0.159 HD
ATOM      7  H   UNL     1     -12.898  -6.478 -32.847  0.00  0.00    +0.159 HD
ATOM      8  H   UNL     1     -15.086  -3.667 -30.826  0.00  0.00    +0.159 HD
ATOM      9  H   UNL     1     -15.850  -5.001 -31.598  0.00  0.00    +0.159 HD
ENDROOT
BRANCH   1  10
ATOM     10  C   UNL     1     -12.591  -3.066 -30.754  0.00  0.00    +0.151 C 
BRANCH  10  11
ATOM     11  C   UNL     1     -12.275  -3.351 -29.311  0.00  0.00    -0.028 A 
ATOM     12  C   UNL     1     -11.016  -3.845 -28.942  0.00  0.00    +0.005 A 
ATOM     13  C   UNL     1     -13.230  -3.124 -28.309  0.00  0.00    +0.005 A 
ATOM     14  C   UNL     1     -10.712  -4.081 -27.599  0.00  0.00    +0.000 A 
ATOM     15  C   UNL     1     -12.924  -3.362 -26.969  0.00  0.00    +0.000 A 
ATOM     16  C   UNL     1     -11.664  -3.838 -26.614  0.00  0.00    +0.000 A 
ENDBRANCH  10  11
ENDBRANCH   1  10
TORSDOF 2
ENDMDL
MODEL 9
REMARK VINA RESULT:    -4.231     11.886     13.760
REMARK INTER + INTRA:          -4.876
REMARK INTER:                  -4.739
REMARK INTRA:                  -0.138
REMARK UNBOUND:                -0.151
REMARK  Name = 1550473
REMARK  2 active torsions:
REMARK  status: ('A' for Active; 'I' for Inactive)
REMARK    1  A    between atoms: N_1  and  C_4
REMARK    2  A    between atoms: C_4  and  C_5
REMARK                            x       y       z     vdW  Elec       q    Type
REMARK                         _______ _______ _______ _____ _____    ______ ____
ROOT
ATOM      1  N   UNL     1       1.775   1.247 -27.650  0.00  0.00    -0.354 N 
ATOM      2  N   UNL     1       0.771  -0.537 -28.732  0.00  0.00    -0.372 N 
ATOM      3  N   UNL     1      -0.546   0.939 -27.570  0.00  0.00    -0.372 N 
ATOM      4  C   UNL     1       0.671   0.562 -27.976  0.00  0.00    +0.166 C 
ATOM      5  H   UNL     1       2.671   0.892 -27.964  0.00  0.00    +0.163 HD
ATOM      6  H   UNL     1      -0.046  -1.073 -28.997  0.00  0.00    +0.159 HD
ATOM      7  H   UNL     1       1.663  -0.864 -29.083  0.00  0.00    +0.159 HD
ATOM      8  H   UNL     1      -0.689   1.756 -26.991  0.00  0.00    +0.159 HD
ATOM      9  H   UNL     1      -1.374   0.409 -27.814  0.00  0.00    +0.159 HD
ENDROOT
BRANCH   1  10
ATOM     10  C   UNL     1       1.770   2.487 -26.876  0.00  0.00    +0.151 C 
BRANCH  10  11
ATOM     11  C   UNL     1       2.829   2.405 -25.811  0.00  0.00    -0.028 A 
ATOM     12  C   UNL     1       3.866   1.466 -25.908  0.00  0.00    +0.005 A 
ATOM     13  C   UNL     1       2.804   3.269 -24.705  0.00  0.00    +0.005 A 
ATOM     14  C   UNL     1       4.866   1.410 -24.935  0.00  0.00    +0.000 A 
ATOM     15  C   UNL     1       3.805   3.209 -23.735  0.00  0.00    +0.000 A 
ATOM     16  C   UNL     1       4.837   2.281 -23.852  0.00  0.00    +0.000 A 
ENDBRANCH  10  11
ENDBRANCH   1  10
TORSDOF 2
ENDMDL
