MODEL 1
REMARK VINA RESULT:    -5.551      0.000      0.000
REMARK INTER + INTRA:          -6.377
REMARK INTER:                  -6.200
REMARK INTRA:                  -0.177
REMARK UNBOUND:                -0.177
REMARK  Name = 1550473
REMARK  2 active torsions:
REMARK  status: ('A' for Active; 'I' for Inactive)
REMARK    1  A    between atoms: N_1  and  C_4
REMARK    2  A    between atoms: C_4  and  C_5
REMARK                            x       y       z     vdW  Elec       q    Type
REMARK                         _______ _______ _______ _____ _____    ______ ____
ROOT
ATOM      1  N   UNL     1       8.771  12.800  40.754  0.00  0.00    -0.354 N 
ATOM      2  N   UNL     1       8.481  10.622  40.021  0.00  0.00    -0.372 N 
ATOM      3  N   UNL     1       6.651  11.801  40.746  0.00  0.00    -0.372 N 
ATOM      4  C   UNL     1       7.967  11.756  40.513  0.00  0.00    +0.166 C 
ATOM      5  H   UNL     1       9.765  12.692  40.585  0.00  0.00    +0.163 HD
ATOM      6  H   UNL     1       7.899   9.819  39.826  0.00  0.00    +0.159 HD
ATOM      7  H   UNL     1       9.468  10.532  39.809  0.00  0.00    +0.159 HD
ATOM      8  H   UNL     1       6.202  12.625  41.123  0.00  0.00    +0.159 HD
ATOM      9  H   UNL     1       6.054  11.003  40.568  0.00  0.00    +0.159 HD
ENDROOT
BRANCH   1  10
ATOM     10  C   UNL     1       8.304  14.097  41.239  0.00  0.00    +0.151 C 
BRANCH  10  11
ATOM     11  C   UNL     1       8.323  15.082  40.103  0.00  0.00    -0.028 A 
ATOM     12  C   UNL     1       9.536  15.615  39.644  0.00  0.00    +0.005 A 
ATOM     13  C   UNL     1       7.132  15.482  39.478  0.00  0.00    +0.005 A 
ATOM     14  C   UNL     1       9.558  16.507  38.569  0.00  0.00    +0.000 A 
ATOM     15  C   UNL     1       7.158  16.374  38.405  0.00  0.00    +0.000 A 
ATOM     16  C   UNL     1       8.371  16.884  37.950  0.00  0.00    +0.000 A 
ENDBRANCH  10  11
ENDBRANCH   1  10
TORSDOF 2
ENDMDL
MODEL 2
REMARK VINA RESULT:    -5.229     93.439     94.254
REMARK INTER + INTRA:          -6.017
REMARK INTER:                  -5.889
REMARK INTRA:                  -0.128
REMARK UNBOUND:                -0.177
REMARK  Name = 1550473
REMARK  2 active torsions:
REMARK  status: ('A' for Active; 'I' for Inactive)
REMARK    1  A    between atoms: N_1  and  C_4
REMARK    2  A    between atoms: C_4  and  C_5
REMARK                            x       y       z     vdW  Elec       q    Type
REMARK                         _______ _______ _______ _____ _____    ______ ____
ROOT
ATOM      1  N   UNL     1      -9.509 -17.497 -48.212  0.00  0.00    -0.354 N 
ATOM      2  N   UNL     1      -7.997 -19.235 -48.455  0.00  0.00    -0.372 N 
ATOM      3  N   UNL     1     -10.243 -19.699 -48.536  0.00  0.00    -0.372 N 
ATOM      4  C   UNL     1      -9.262 -18.801 -48.400  0.00  0.00    +0.166 C 
ATOM      5  H   UNL     1      -8.721 -16.872 -48.085  0.00  0.00    +0.163 HD
ATOM      6  H   UNL     1      -7.780 -20.212 -48.599  0.00  0.00    +0.159 HD
ATOM      7  H   UNL     1      -7.212 -18.601 -48.375  0.00  0.00    +0.159 HD
ATOM      8  H   UNL     1     -11.219 -19.436 -48.497  0.00  0.00    +0.159 HD
ATOM      9  H   UNL     1     -10.046 -20.683 -48.669  0.00  0.00    +0.159 HD
ENDROOT
BRANCH   1  10
ATOM     10  C   UNL     1     -10.849 -16.914 -48.190  0.00  0.00    +0.151 C 
BRANCH  10  11
ATOM     11  C   UNL     1     -10.809 -15.622 -47.421  0.00  0.00    -0.028 A 
ATOM     12  C   UNL     1     -11.958 -14.826 -47.307  0.00  0.00    +0.005 A 
ATOM     13  C   UNL     1      -9.628 -15.192 -46.798  0.00  0.00    +0.005 A 
ATOM     14  C   UNL     1     -11.930 -13.641 -46.568  0.00  0.00    +0.000 A 
ATOM     15  C   UNL     1      -9.603 -14.008 -46.061  0.00  0.00    +0.000 A 
ATOM     16  C   UNL     1     -10.755 -13.234 -45.944  0.00  0.00    +0.000 A 
ENDBRANCH  10  11
ENDBRANCH   1  10
TORSDOF 2
ENDMDL
MODEL 3
REMARK VINA RESULT:    -5.192     92.847     93.672
REMARK INTER + INTRA:          -5.976
REMARK INTER:                  -5.830
REMARK INTRA:                  -0.146
REMARK UNBOUND:                -0.177
REMARK  Name = 1550473
REMARK  2 active torsions:
REMARK  status: ('A' for Active; 'I' for Inactive)
REMARK    1  A    between atoms: N_1  and  C_4
REMARK    2  A    between atoms: C_4  and  C_5
REMARK                            x       y       z     vdW  Elec       q    Type
REMARK                         _______ _______ _______ _____ _____    ______ ____
ROOT
ATOM      1  N   UNL     1     -13.982 -12.808 -47.445  0.00  0.00    -0.354 N 
ATOM      2  N   UNL     1     -15.682 -12.836 -49.018  0.00  0.00    -0.372 N 
ATOM      3  N   UNL     1     -15.938 -14.047 -47.086  0.00  0.00    -0.372 N 
ATOM      4  C   UNL     1     -15.190 -13.232 -47.838  0.00  0.00    +0.166 C 
ATOM      5  H   UNL     1     -13.452 -12.215 -48.074  0.00  0.00    +0.163 HD
ATOM      6  H   UNL     1     -16.592 -13.137 -49.339  0.00  0.00    +0.159 HD
ATOM      7  H   UNL     1     -15.170 -12.206 -49.624  0.00  0.00    +0.159 HD
ATOM      8  H   UNL     1     -15.622 -14.387 -46.188  0.00  0.00    +0.159 HD
ATOM      9  H   UNL     1     -16.847 -14.369 -47.396  0.00  0.00    +0.159 HD
ENDROOT
BRANCH   1  10
ATOM     10  C   UNL     1     -13.379 -13.137 -46.155  0.00  0.00    +0.151 C 
BRANCH  10  11
ATOM     11  C   UNL     1     -12.051 -13.802 -46.389  0.00  0.00    -0.028 A 
ATOM     12  C   UNL     1     -11.946 -14.898 -47.259  0.00  0.00    +0.005 A 
ATOM     13  C   UNL     1     -10.891 -13.338 -45.749  0.00  0.00    +0.005 A 
ATOM     14  C   UNL     1     -10.708 -15.497 -47.500  0.00  0.00    +0.000 A 
ATOM     15  C   UNL     1      -9.656 -13.940 -45.992  0.00  0.00    +0.000 A 
ATOM     16  C   UNL     1      -9.565 -15.017 -46.869  0.00  0.00    +0.000 A 
ENDBRANCH  10  11
ENDBRANCH   1  10
TORSDOF 2
ENDMDL
MODEL 4
REMARK VINA RESULT:    -5.019     10.129     11.131
REMARK INTER + INTRA:          -5.783
REMARK INTER:                  -5.686
REMARK INTRA:                  -0.097
REMARK UNBOUND:                -0.177
REMARK  Name = 1550473
REMARK  2 active torsions:
REMARK  status: ('A' for Active; 'I' for Inactive)
REMARK    1  A    between atoms: N_1  and  C_4
REMARK    2  A    between atoms: C_4  and  C_5
REMARK                            x       y       z     vdW  Elec       q    Type
REMARK                         _______ _______ _______ _____ _____    ______ ____
ROOT
ATOM      1  N   UNL     1      15.446   7.572  38.436  0.00  0.00    -0.354 N 
ATOM      2  N   UNL     1      16.279   9.254  37.079  0.00  0.00    -0.372 N 
ATOM      3  N   UNL     1      15.878   7.188  36.165  0.00  0.00    -0.372 N 
ATOM      4  C   UNL     1      15.863   7.991  37.234  0.00  0.00    +0.166 C 
ATOM      5  H   UNL     1      15.487   8.221  39.213  0.00  0.00    +0.163 HD
ATOM      6  H   UNL     1      16.596   9.600  36.183  0.00  0.00    +0.159 HD
ATOM      7  H   UNL     1      16.276   9.914  37.847  0.00  0.00    +0.159 HD
ATOM      8  H   UNL     1      15.582   6.222  36.217  0.00  0.00    +0.159 HD
ATOM      9  H   UNL     1      16.203   7.512  35.263  0.00  0.00    +0.159 HD
ENDROOT
BRANCH   1  10
ATOM     10  C   UNL     1      14.923   6.232  38.699  0.00  0.00    +0.151 C 
BRANCH  10  11
ATOM     11  C   UNL     1      14.561   6.123  40.154  0.00  0.00    -0.028 A 
ATOM     12  C   UNL     1      13.227   5.934  40.544  0.00  0.00    +0.005 A 
ATOM     13  C   UNL     1      15.548   6.202  41.148  0.00  0.00    +0.005 A 
ATOM     14  C   UNL     1      12.894   5.802  41.894  0.00  0.00    +0.000 A 
ATOM     15  C   UNL     1      15.211   6.071  42.495  0.00  0.00    +0.000 A 
ATOM     16  C   UNL     1      13.885   5.869  42.868  0.00  0.00    +0.000 A 
ENDBRANCH  10  11
ENDBRANCH   1  10
TORSDOF 2
ENDMDL
MODEL 5
REMARK VINA RESULT:    -4.910     14.061     15.550
REMARK INTER + INTRA:          -5.661
REMARK INTER:                  -5.531
REMARK INTRA:                  -0.130
REMARK UNBOUND:                -0.177
REMARK  Name = 1550473
REMARK  2 active torsions:
REMARK  status: ('A' for Active; 'I' for Inactive)
REMARK    1  A    between atoms: N_1  and  C_4
REMARK    2  A    between atoms: C_4  and  C_5
REMARK                            x       y       z     vdW  Elec       q    Type
REMARK                         _______ _______ _______ _____ _____    ______ ____
ROOT
ATOM      1  N   UNL     1       9.876  19.710  24.408  0.00  0.00    -0.354 N 
ATOM      2  N   UNL     1       8.076  21.003  23.736  0.00  0.00    -0.372 N 
ATOM      3  N   UNL     1       9.945  22.047  24.560  0.00  0.00    -0.372 N 
ATOM      4  C   UNL     1       9.312  20.914  24.240  0.00  0.00    +0.166 C 
ATOM      5  H   UNL     1       9.332  18.887  24.174  0.00  0.00    +0.163 HD
ATOM      6  H   UNL     1       7.626  21.898  23.595  0.00  0.00    +0.159 HD
ATOM      7  H   UNL     1       7.552  20.182  23.460  0.00  0.00    +0.159 HD
ATOM      8  H   UNL     1      10.878  22.048  24.951  0.00  0.00    +0.159 HD
ATOM      9  H   UNL     1       9.508  22.952  24.437  0.00  0.00    +0.159 HD
ENDROOT
BRANCH   1  10
ATOM     10  C   UNL     1      11.237  19.505  24.899  0.00  0.00    +0.151 C 
BRANCH  10  11
ATOM     11  C   UNL     1      11.203  18.545  26.056  0.00  0.00    -0.028 A 
ATOM     12  C   UNL     1      11.925  18.816  27.228  0.00  0.00    +0.005 A 
ATOM     13  C   UNL     1      10.446  17.366  25.990  0.00  0.00    +0.005 A 
ATOM     14  C   UNL     1      11.870  17.940  28.314  0.00  0.00    +0.000 A 
ATOM     15  C   UNL     1      10.394  16.493  27.076  0.00  0.00    +0.000 A 
ATOM     16  C   UNL     1      11.104  16.781  28.239  0.00  0.00    +0.000 A 
ENDBRANCH  10  11
ENDBRANCH   1  10
TORSDOF 2
ENDMDL
MODEL 6
REMARK VINA RESULT:    -4.620     10.294     10.813
REMARK INTER + INTRA:          -5.338
REMARK INTER:                  -5.195
REMARK INTRA:                  -0.143
REMARK UNBOUND:                -0.177
REMARK  Name = 1550473
REMARK  2 active torsions:
REMARK  status: ('A' for Active; 'I' for Inactive)
REMARK    1  A    between atoms: N_1  and  C_4
REMARK    2  A    between atoms: C_4  and  C_5
REMARK                            x       y       z     vdW  Elec       q    Type
REMARK                         _______ _______ _______ _____ _____    ______ ____
ROOT
ATOM      1  N   UNL     1      17.498   8.726  40.001  0.00  0.00    -0.354 N 
ATOM      2  N   UNL     1      18.454  10.471  41.188  0.00  0.00    -0.372 N 
ATOM      3  N   UNL     1      16.225  10.016  41.487  0.00  0.00    -0.372 N 
ATOM      4  C   UNL     1      17.384   9.727  40.885  0.00  0.00    +0.166 C 
ATOM      5  H   UNL     1      18.397   8.578  39.557  0.00  0.00    +0.163 HD
ATOM      6  H   UNL     1      18.399  11.230  41.853  0.00  0.00    +0.159 HD
ATOM      7  H   UNL     1      19.362  10.291  40.776  0.00  0.00    +0.159 HD
ATOM      8  H   UNL     1      15.379   9.495  41.298  0.00  0.00    +0.159 HD
ATOM      9  H   UNL     1      16.147  10.779  42.148  0.00  0.00    +0.159 HD
ENDROOT
BRANCH   1  10
ATOM     10  C   UNL     1      16.407   7.823  39.643  0.00  0.00    +0.151 C 
BRANCH  10  11
ATOM     11  C   UNL     1      16.233   7.831  38.149  0.00  0.00    -0.028 A 
ATOM     12  C   UNL     1      17.030   8.657  37.344  0.00  0.00    +0.005 A 
ATOM     13  C   UNL     1      15.276   7.010  37.533  0.00  0.00    +0.005 A 
ATOM     14  C   UNL     1      16.889   8.643  35.954  0.00  0.00    +0.000 A 
ATOM     15  C   UNL     1      15.138   6.999  36.145  0.00  0.00    +0.000 A 
ATOM     16  C   UNL     1      15.946   7.814  35.356  0.00  0.00    +0.000 A 
ENDBRANCH  10  11
ENDBRANCH   1  10
TORSDOF 2
ENDMDL
MODEL 7
REMARK VINA RESULT:    -4.577     17.167     18.165
REMARK INTER + INTRA:          -5.289
REMARK INTER:                  -5.136
REMARK INTRA:                  -0.153
REMARK UNBOUND:                -0.177
REMARK  Name = 1550473
REMARK  2 active torsions:
REMARK  status: ('A' for Active; 'I' for Inactive)
REMARK    1  A    between atoms: N_1  and  C_4
REMARK    2  A    between atoms: C_4  and  C_5
REMARK                            x       y       z     vdW  Elec       q    Type
REMARK                         _______ _______ _______ _____ _____    ______ ____
ROOT
ATOM      1  N   UNL     1      25.212   7.769  41.143  0.00  0.00    -0.354 N 
ATOM      2  N   UNL     1      24.990   9.587  42.561  0.00  0.00    -0.372 N 
ATOM      3  N   UNL     1      26.659   9.606  40.986  0.00  0.00    -0.372 N 
ATOM      4  C   UNL     1      25.624   8.976  41.552  0.00  0.00    +0.166 C 
ATOM      5  H   UNL     1      24.441   7.331  41.634  0.00  0.00    +0.163 HD
ATOM      6  H   UNL     1      25.276  10.499  42.889  0.00  0.00    +0.159 HD
ATOM      7  H   UNL     1      24.190   9.167  43.019  0.00  0.00    +0.159 HD
ATOM      8  H   UNL     1      27.183   9.196  40.225  0.00  0.00    +0.159 HD
ATOM      9  H   UNL     1      26.967  10.514  41.309  0.00  0.00    +0.159 HD
ENDROOT
BRANCH   1  10
ATOM     10  C   UNL     1      25.800   7.042  40.019  0.00  0.00    +0.151 C 
BRANCH  10  11
ATOM     11  C   UNL     1      24.787   6.947  38.911  0.00  0.00    -0.028 A 
ATOM     12  C   UNL     1      23.416   6.910  39.202  0.00  0.00    +0.005 A 
ATOM     13  C   UNL     1      25.193   6.901  37.569  0.00  0.00    +0.005 A 
ATOM     14  C   UNL     1      22.474   6.852  38.172  0.00  0.00    +0.000 A 
ATOM     15  C   UNL     1      24.249   6.843  36.543  0.00  0.00    +0.000 A 
ATOM     16  C   UNL     1      22.890   6.821  36.845  0.00  0.00    +0.000 A 
ENDBRANCH  10  11
ENDBRANCH   1  10
TORSDOF 2
ENDMDL
MODEL 8
REMARK VINA RESULT:    -4.473     75.767     76.471
REMARK INTER + INTRA:          -5.173
REMARK INTER:                  -5.032
REMARK INTRA:                  -0.142
REMARK UNBOUND:                -0.177
REMARK  Name = 1550473
REMARK  2 active torsions:
REMARK  status: ('A' for Active; 'I' for Inactive)
REMARK    1  A    between atoms: N_1  and  C_4
REMARK    2  A    between atoms: C_4  and  C_5
REMARK                            x       y       z     vdW  Elec       q    Type
REMARK                         _______ _______ _______ _____ _____    ______ ____
ROOT
ATOM      1  N   UNL     1      -1.017 -18.065 -30.681  0.00  0.00    -0.354 N 
ATOM      2  N   UNL     1      -2.460 -19.484 -31.807  0.00  0.00    -0.372 N 
ATOM      3  N   UNL     1      -1.460 -20.221 -29.878  0.00  0.00    -0.372 N 
ATOM      4  C   UNL     1      -1.635 -19.249 -30.779  0.00  0.00    +0.166 C 
ATOM      5  H   UNL     1      -1.168 -17.381 -31.413  0.00  0.00    +0.163 HD
ATOM      6  H   UNL     1      -2.944 -20.366 -31.906  0.00  0.00    +0.159 HD
ATOM      7  H   UNL     1      -2.645 -18.781 -32.513  0.00  0.00    +0.159 HD
ATOM      8  H   UNL     1      -0.847 -20.110 -29.082  0.00  0.00    +0.159 HD
ATOM      9  H   UNL     1      -1.926 -21.116 -29.966  0.00  0.00    +0.159 HD
ENDROOT
BRANCH   1  10
ATOM     10  C   UNL     1      -0.141 -17.690 -29.573  0.00  0.00    +0.151 C 
BRANCH  10  11
ATOM     11  C   UNL     1      -0.634 -16.403 -28.971  0.00  0.00    -0.028 A 
ATOM     12  C   UNL     1       0.022 -15.193 -29.242  0.00  0.00    +0.005 A 
ATOM     13  C   UNL     1      -1.760 -16.386 -28.133  0.00  0.00    +0.005 A 
ATOM     14  C   UNL     1      -0.454 -13.993 -28.707  0.00  0.00    +0.000 A 
ATOM     15  C   UNL     1      -2.231 -15.186 -27.601  0.00  0.00    +0.000 A 
ATOM     16  C   UNL     1      -1.579 -13.989 -27.890  0.00  0.00    +0.000 A 
ENDBRANCH  10  11
ENDBRANCH   1  10
TORSDOF 2
ENDMDL
MODEL 9
REMARK VINA RESULT:    -4.382     10.136     11.741
REMARK INTER + INTRA:          -5.072
REMARK INTER:                  -4.961
REMARK INTRA:                  -0.110
REMARK UNBOUND:                -0.177
REMARK  Name = 1550473
REMARK  2 active torsions:
REMARK  status: ('A' for Active; 'I' for Inactive)
REMARK    1  A    between atoms: N_1  and  C_4
REMARK    2  A    between atoms: C_4  and  C_5
REMARK                            x       y       z     vdW  Elec       q    Type
REMARK                         _______ _______ _______ _____ _____    ______ ____
ROOT
ATOM      1  N   UNL     1       0.886  19.958  33.949  0.00  0.00    -0.354 N 
ATOM      2  N   UNL     1       0.135  19.869  36.138  0.00  0.00    -0.372 N 
ATOM      3  N   UNL     1       2.394  19.936  35.743  0.00  0.00    -0.372 N 
ATOM      4  C   UNL     1       1.146  19.921  35.263  0.00  0.00    +0.166 C 
ATOM      5  H   UNL     1      -0.081  19.914  33.648  0.00  0.00    +0.163 HD
ATOM      6  H   UNL     1       0.300  19.843  37.135  0.00  0.00    +0.159 HD
ATOM      7  H   UNL     1      -0.832  19.871  35.836  0.00  0.00    +0.159 HD
ATOM      8  H   UNL     1       3.201  19.969  35.135  0.00  0.00    +0.159 HD
ATOM      9  H   UNL     1       2.580  19.900  36.737  0.00  0.00    +0.159 HD
ENDROOT
BRANCH   1  10
ATOM     10  C   UNL     1       1.914  20.071  32.915  0.00  0.00    +0.151 C 
BRANCH  10  11
ATOM     11  C   UNL     1       1.545  19.184  31.758  0.00  0.00    -0.028 A 
ATOM     12  C   UNL     1       0.321  19.353  31.093  0.00  0.00    +0.005 A 
ATOM     13  C   UNL     1       2.417  18.177  31.316  0.00  0.00    +0.005 A 
ATOM     14  C   UNL     1      -0.009  18.550  29.999  0.00  0.00    +0.000 A 
ATOM     15  C   UNL     1       2.083  17.377  30.224  0.00  0.00    +0.000 A 
ATOM     16  C   UNL     1       0.871  17.565  29.564  0.00  0.00    +0.000 A 
ENDBRANCH  10  11
ENDBRANCH   1  10
TORSDOF 2
ENDMDL
