MODEL 1
REMARK VINA RESULT:    -5.542      0.000      0.000
REMARK INTER + INTRA:          -6.282
REMARK INTER:                  -6.190
REMARK INTRA:                  -0.092
REMARK UNBOUND:                -0.092
REMARK  Name = 1550473
REMARK  2 active torsions:
REMARK  status: ('A' for Active; 'I' for Inactive)
REMARK    1  A    between atoms: N_1  and  C_4
REMARK    2  A    between atoms: C_4  and  C_5
REMARK                            x       y       z     vdW  Elec       q    Type
REMARK                         _______ _______ _______ _____ _____    ______ ____
ROOT
ATOM      1  N   UNL     1      -4.403  -4.697  -9.166  0.00  0.00    -0.354 N 
ATOM      2  N   UNL     1      -4.795  -5.302  -6.965  0.00  0.00    -0.372 N 
ATOM      3  N   UNL     1      -6.355  -5.842  -8.559  0.00  0.00    -0.372 N 
ATOM      4  C   UNL     1      -5.184  -5.277  -8.245  0.00  0.00    +0.166 C 
ATOM      5  H   UNL     1      -3.541  -4.260  -8.859  0.00  0.00    +0.163 HD
ATOM      6  H   UNL     1      -5.362  -5.736  -6.249  0.00  0.00    +0.159 HD
ATOM      7  H   UNL     1      -3.912  -4.905  -6.669  0.00  0.00    +0.159 HD
ATOM      8  H   UNL     1      -6.709  -5.851  -9.506  0.00  0.00    +0.159 HD
ATOM      9  H   UNL     1      -6.942  -6.271  -7.854  0.00  0.00    +0.159 HD
ENDROOT
BRANCH   1  10
ATOM     10  C   UNL     1      -4.709  -4.663 -10.595  0.00  0.00    +0.151 C 
BRANCH  10  11
ATOM     11  C   UNL     1      -3.789  -3.684 -11.271  0.00  0.00    -0.028 A 
ATOM     12  C   UNL     1      -4.178  -2.348 -11.450  0.00  0.00    +0.005 A 
ATOM     13  C   UNL     1      -2.525  -4.084 -11.731  0.00  0.00    +0.005 A 
ATOM     14  C   UNL     1      -3.312  -1.431 -12.051  0.00  0.00    +0.000 A 
ATOM     15  C   UNL     1      -1.664  -3.166 -12.331  0.00  0.00    +0.000 A 
ATOM     16  C   UNL     1      -2.057  -1.839 -12.489  0.00  0.00    +0.000 A 
ENDBRANCH  10  11
ENDBRANCH   1  10
TORSDOF 2
ENDMDL
MODEL 2
REMARK VINA RESULT:    -5.528      4.631      6.268
REMARK INTER + INTRA:          -6.267
REMARK INTER:                  -6.133
REMARK INTRA:                  -0.133
REMARK UNBOUND:                -0.092
REMARK  Name = 1550473
REMARK  2 active torsions:
REMARK  status: ('A' for Active; 'I' for Inactive)
REMARK    1  A    between atoms: N_1  and  C_4
REMARK    2  A    between atoms: C_4  and  C_5
REMARK                            x       y       z     vdW  Elec       q    Type
REMARK                         _______ _______ _______ _____ _____    ______ ____
ROOT
ATOM      1  N   UNL     1      -3.908  -4.514  -4.801  0.00  0.00    -0.354 N 
ATOM      2  N   UNL     1      -2.007  -3.293  -4.294  0.00  0.00    -0.372 N 
ATOM      3  N   UNL     1      -2.449  -5.203  -3.101  0.00  0.00    -0.372 N 
ATOM      4  C   UNL     1      -2.800  -4.347  -4.067  0.00  0.00    +0.166 C 
ATOM      5  H   UNL     1      -4.135  -3.814  -5.498  0.00  0.00    +0.163 HD
ATOM      6  H   UNL     1      -1.163  -3.142  -3.758  0.00  0.00    +0.159 HD
ATOM      7  H   UNL     1      -2.211  -2.619  -5.022  0.00  0.00    +0.159 HD
ATOM      8  H   UNL     1      -3.009  -6.015  -2.876  0.00  0.00    +0.159 HD
ATOM      9  H   UNL     1      -1.614  -5.063  -2.546  0.00  0.00    +0.159 HD
ENDROOT
BRANCH   1  10
ATOM     10  C   UNL     1      -4.811  -5.656  -4.670  0.00  0.00    +0.151 C 
BRANCH  10  11
ATOM     11  C   UNL     1      -5.048  -6.254  -6.029  0.00  0.00    -0.028 A 
ATOM     12  C   UNL     1      -5.248  -7.635  -6.174  0.00  0.00    +0.005 A 
ATOM     13  C   UNL     1      -5.079  -5.445  -7.175  0.00  0.00    +0.005 A 
ATOM     14  C   UNL     1      -5.498  -8.187  -7.433  0.00  0.00    +0.000 A 
ATOM     15  C   UNL     1      -5.328  -6.000  -8.430  0.00  0.00    +0.000 A 
ATOM     16  C   UNL     1      -5.540  -7.371  -8.558  0.00  0.00    +0.000 A 
ENDBRANCH  10  11
ENDBRANCH   1  10
TORSDOF 2
ENDMDL
MODEL 3
REMARK VINA RESULT:    -5.446     22.642     23.422
REMARK INTER + INTRA:          -6.175
REMARK INTER:                  -6.109
REMARK INTRA:                  -0.066
REMARK UNBOUND:                -0.092
REMARK  Name = 1550473
REMARK  2 active torsions:
REMARK  status: ('A' for Active; 'I' for Inactive)
REMARK    1  A    between atoms: N_1  and  C_4
REMARK    2  A    between atoms: C_4  and  C_5
REMARK                            x       y       z     vdW  Elec       q    Type
REMARK                         _______ _______ _______ _____ _____    ______ ____
ROOT
ATOM      1  N   UNL     1       5.697  13.088   2.586  0.00  0.00    -0.354 N 
ATOM      2  N   UNL     1       4.146  13.035   0.867  0.00  0.00    -0.372 N 
ATOM      3  N   UNL     1       6.041  11.753   0.691  0.00  0.00    -0.372 N 
ATOM      4  C   UNL     1       5.307  12.624   1.392  0.00  0.00    +0.166 C 
ATOM      5  H   UNL     1       5.110  13.770   3.053  0.00  0.00    +0.163 HD
ATOM      6  H   UNL     1       3.824  12.699  -0.030  0.00  0.00    +0.159 HD
ATOM      7  H   UNL     1       3.539  13.681   1.357  0.00  0.00    +0.159 HD
ATOM      8  H   UNL     1       6.930  11.409   1.028  0.00  0.00    +0.159 HD
ATOM      9  H   UNL     1       5.741  11.415  -0.215  0.00  0.00    +0.159 HD
ENDROOT
BRANCH   1  10
ATOM     10  C   UNL     1       6.918  12.664   3.269  0.00  0.00    +0.151 C 
BRANCH  10  11
ATOM     11  C   UNL     1       6.591  11.527   4.198  0.00  0.00    -0.028 A 
ATOM     12  C   UNL     1       5.267  11.292   4.598  0.00  0.00    +0.005 A 
ATOM     13  C   UNL     1       7.600  10.677   4.678  0.00  0.00    +0.005 A 
ATOM     14  C   UNL     1       4.959  10.219   5.437  0.00  0.00    +0.000 A 
ATOM     15  C   UNL     1       7.288   9.607   5.516  0.00  0.00    +0.000 A 
ATOM     16  C   UNL     1       5.968   9.376   5.893  0.00  0.00    +0.000 A 
ENDBRANCH  10  11
ENDBRANCH   1  10
TORSDOF 2
ENDMDL
MODEL 4
REMARK VINA RESULT:    -5.354      4.874      6.234
REMARK INTER + INTRA:          -6.073
REMARK INTER:                  -5.901
REMARK INTRA:                  -0.171
REMARK UNBOUND:                -0.092
REMARK  Name = 1550473
REMARK  2 active torsions:
REMARK  status: ('A' for Active; 'I' for Inactive)
REMARK    1  A    between atoms: N_1  and  C_4
REMARK    2  A    between atoms: C_4  and  C_5
REMARK                            x       y       z     vdW  Elec       q    Type
REMARK                         _______ _______ _______ _____ _____    ______ ____
ROOT
ATOM      1  N   UNL     1      -4.194  -5.554  -3.969  0.00  0.00    -0.354 N 
ATOM      2  N   UNL     1      -2.091  -4.759  -3.413  0.00  0.00    -0.372 N 
ATOM      3  N   UNL     1      -3.409  -3.518  -4.823  0.00  0.00    -0.372 N 
ATOM      4  C   UNL     1      -3.246  -4.613  -4.074  0.00  0.00    +0.166 C 
ATOM      5  H   UNL     1      -3.997  -6.375  -3.409  0.00  0.00    +0.163 HD
ATOM      6  H   UNL     1      -1.358  -4.064  -3.470  0.00  0.00    +0.159 HD
ATOM      7  H   UNL     1      -1.915  -5.559  -2.818  0.00  0.00    +0.159 HD
ATOM      8  H   UNL     1      -4.255  -3.351  -5.351  0.00  0.00    +0.159 HD
ATOM      9  H   UNL     1      -2.682  -2.817  -4.902  0.00  0.00    +0.159 HD
ENDROOT
BRANCH   1  10
ATOM     10  C   UNL     1      -5.508  -5.465  -4.605  0.00  0.00    +0.151 C 
BRANCH  10  11
ATOM     11  C   UNL     1      -5.474  -6.214  -5.908  0.00  0.00    -0.028 A 
ATOM     12  C   UNL     1      -5.463  -5.521  -7.127  0.00  0.00    +0.005 A 
ATOM     13  C   UNL     1      -5.448  -7.617  -5.931  0.00  0.00    +0.005 A 
ATOM     14  C   UNL     1      -5.401  -6.216  -8.338  0.00  0.00    +0.000 A 
ATOM     15  C   UNL     1      -5.387  -8.307  -7.141  0.00  0.00    +0.000 A 
ATOM     16  C   UNL     1      -5.361  -7.606  -8.344  0.00  0.00    +0.000 A 
ENDBRANCH  10  11
ENDBRANCH   1  10
TORSDOF 2
ENDMDL
MODEL 5
REMARK VINA RESULT:    -5.110      3.609      5.036
REMARK INTER + INTRA:          -5.800
REMARK INTER:                  -5.667
REMARK INTRA:                  -0.132
REMARK UNBOUND:                -0.092
REMARK  Name = 1550473
REMARK  2 active torsions:
REMARK  status: ('A' for Active; 'I' for Inactive)
REMARK    1  A    between atoms: N_1  and  C_4
REMARK    2  A    between atoms: C_4  and  C_5
REMARK                            x       y       z     vdW  Elec       q    Type
REMARK                         _______ _______ _______ _____ _____    ______ ____
ROOT
ATOM      1  N   UNL     1      -5.601  -6.106  -5.460  0.00  0.00    -0.354 N 
ATOM      2  N   UNL     1      -5.707  -6.959  -3.310  0.00  0.00    -0.372 N 
ATOM      3  N   UNL     1      -4.144  -5.349  -3.788  0.00  0.00    -0.372 N 
ATOM      4  C   UNL     1      -5.148  -6.131  -4.200  0.00  0.00    +0.166 C 
ATOM      5  H   UNL     1      -6.345  -6.745  -5.717  0.00  0.00    +0.163 HD
ATOM      6  H   UNL     1      -5.389  -6.997  -2.351  0.00  0.00    +0.159 HD
ATOM      7  H   UNL     1      -6.481  -7.564  -3.558  0.00  0.00    +0.159 HD
ATOM      8  H   UNL     1      -3.676  -4.706  -4.412  0.00  0.00    +0.159 HD
ATOM      9  H   UNL     1      -3.804  -5.381  -2.835  0.00  0.00    +0.159 HD
ENDROOT
BRANCH   1  10
ATOM     10  C   UNL     1      -5.097  -5.202  -6.493  0.00  0.00    +0.151 C 
BRANCH  10  11
ATOM     11  C   UNL     1      -5.191  -5.884  -7.830  0.00  0.00    -0.028 A 
ATOM     12  C   UNL     1      -4.993  -5.158  -9.014  0.00  0.00    +0.005 A 
ATOM     13  C   UNL     1      -5.471  -7.256  -7.920  0.00  0.00    +0.005 A 
ATOM     14  C   UNL     1      -5.051  -5.797 -10.256  0.00  0.00    +0.000 A 
ATOM     15  C   UNL     1      -5.528  -7.890  -9.161  0.00  0.00    +0.000 A 
ATOM     16  C   UNL     1      -5.316  -7.160 -10.328  0.00  0.00    +0.000 A 
ENDBRANCH  10  11
ENDBRANCH   1  10
TORSDOF 2
ENDMDL
MODEL 6
REMARK VINA RESULT:    -4.765      3.401      4.863
REMARK INTER + INTRA:          -5.414
REMARK INTER:                  -5.293
REMARK INTRA:                  -0.121
REMARK UNBOUND:                -0.092
REMARK  Name = 1550473
REMARK  2 active torsions:
REMARK  status: ('A' for Active; 'I' for Inactive)
REMARK    1  A    between atoms: N_1  and  C_4
REMARK    2  A    between atoms: C_4  and  C_5
REMARK                            x       y       z     vdW  Elec       q    Type
REMARK                         _______ _______ _______ _____ _____    ______ ____
ROOT
ATOM      1  N   UNL     1      -5.223  -6.960  -5.883  0.00  0.00    -0.354 N 
ATOM      2  N   UNL     1      -4.946  -6.473  -3.636  0.00  0.00    -0.372 N 
ATOM      3  N   UNL     1      -6.050  -8.396  -4.226  0.00  0.00    -0.372 N 
ATOM      4  C   UNL     1      -5.410  -7.282  -4.596  0.00  0.00    +0.166 C 
ATOM      5  H   UNL     1      -4.756  -6.086  -6.098  0.00  0.00    +0.163 HD
ATOM      6  H   UNL     1      -5.069  -6.691  -2.656  0.00  0.00    +0.159 HD
ATOM      7  H   UNL     1      -4.439  -5.623  -3.853  0.00  0.00    +0.159 HD
ATOM      8  H   UNL     1      -6.429  -9.045  -4.902  0.00  0.00    +0.159 HD
ATOM      9  H   UNL     1      -6.193  -8.626  -3.250  0.00  0.00    +0.159 HD
ENDROOT
BRANCH   1  10
ATOM     10  C   UNL     1      -5.641  -7.799  -7.005  0.00  0.00    +0.151 C 
BRANCH  10  11
ATOM     11  C   UNL     1      -5.402  -7.056  -8.290  0.00  0.00    -0.028 A 
ATOM     12  C   UNL     1      -5.366  -7.741  -9.513  0.00  0.00    +0.005 A 
ATOM     13  C   UNL     1      -5.218  -5.664  -8.292  0.00  0.00    +0.005 A 
ATOM     14  C   UNL     1      -5.174  -7.047 -10.710  0.00  0.00    +0.000 A 
ATOM     15  C   UNL     1      -5.026  -4.975  -9.489  0.00  0.00    +0.000 A 
ATOM     16  C   UNL     1      -5.006  -5.667 -10.698  0.00  0.00    +0.000 A 
ENDBRANCH  10  11
ENDBRANCH   1  10
TORSDOF 2
ENDMDL
MODEL 7
REMARK VINA RESULT:    -4.706     22.602     23.380
REMARK INTER + INTRA:          -5.348
REMARK INTER:                  -5.169
REMARK INTRA:                  -0.179
REMARK UNBOUND:                -0.092
REMARK  Name = 1550473
REMARK  2 active torsions:
REMARK  status: ('A' for Active; 'I' for Inactive)
REMARK    1  A    between atoms: N_1  and  C_4
REMARK    2  A    between atoms: C_4  and  C_5
REMARK                            x       y       z     vdW  Elec       q    Type
REMARK                         _______ _______ _______ _____ _____    ______ ____
ROOT
ATOM      1  N   UNL     1       6.172  11.950   2.915  0.00  0.00    -0.354 N 
ATOM      2  N   UNL     1       5.746  11.862   0.640  0.00  0.00    -0.372 N 
ATOM      3  N   UNL     1       4.443  13.211   1.962  0.00  0.00    -0.372 N 
ATOM      4  C   UNL     1       5.454  12.343   1.855  0.00  0.00    +0.166 C 
ATOM      5  H   UNL     1       6.907  11.267   2.772  0.00  0.00    +0.163 HD
ATOM      6  H   UNL     1       5.224  12.144  -0.179  0.00  0.00    +0.159 HD
ATOM      7  H   UNL     1       6.511  11.215   0.493  0.00  0.00    +0.159 HD
ATOM      8  H   UNL     1       4.168  13.607   2.851  0.00  0.00    +0.159 HD
ATOM      9  H   UNL     1       3.901  13.496   1.155  0.00  0.00    +0.159 HD
ENDROOT
BRANCH   1  10
ATOM     10  C   UNL     1       5.971  12.455   4.272  0.00  0.00    +0.151 C 
BRANCH  10  11
ATOM     11  C   UNL     1       5.150  11.463   5.048  0.00  0.00    -0.028 A 
ATOM     12  C   UNL     1       3.902  11.828   5.575  0.00  0.00    +0.005 A 
ATOM     13  C   UNL     1       5.611  10.154   5.256  0.00  0.00    +0.005 A 
ATOM     14  C   UNL     1       3.126  10.897   6.270  0.00  0.00    +0.000 A 
ATOM     15  C   UNL     1       4.834   9.228   5.952  0.00  0.00    +0.000 A 
ATOM     16  C   UNL     1       3.590   9.600   6.456  0.00  0.00    +0.000 A 
ENDBRANCH  10  11
ENDBRANCH   1  10
TORSDOF 2
ENDMDL
MODEL 8
REMARK VINA RESULT:    -4.683      4.469      5.902
REMARK INTER + INTRA:          -5.323
REMARK INTER:                  -5.143
REMARK INTRA:                  -0.180
REMARK UNBOUND:                -0.092
REMARK  Name = 1550473
REMARK  2 active torsions:
REMARK  status: ('A' for Active; 'I' for Inactive)
REMARK    1  A    between atoms: N_1  and  C_4
REMARK    2  A    between atoms: C_4  and  C_5
REMARK                            x       y       z     vdW  Elec       q    Type
REMARK                         _______ _______ _______ _____ _____    ______ ____
ROOT
ATOM      1  N   UNL     1      -5.717  -6.678  -7.210  0.00  0.00    -0.354 N 
ATOM      2  N   UNL     1      -5.152  -7.452  -9.318  0.00  0.00    -0.372 N 
ATOM      3  N   UNL     1      -5.820  -5.269  -9.080  0.00  0.00    -0.372 N 
ATOM      4  C   UNL     1      -5.568  -6.459  -8.523  0.00  0.00    +0.166 C 
ATOM      5  H   UNL     1      -5.538  -7.610  -6.854  0.00  0.00    +0.163 HD
ATOM      6  H   UNL     1      -5.027  -7.315 -10.312  0.00  0.00    +0.159 HD
ATOM      7  H   UNL     1      -4.930  -8.370  -8.953  0.00  0.00    +0.159 HD
ATOM      8  H   UNL     1      -6.143  -4.481  -8.536  0.00  0.00    +0.159 HD
ATOM      9  H   UNL     1      -5.712  -5.117 -10.075  0.00  0.00    +0.159 HD
ENDROOT
BRANCH   1  10
ATOM     10  C   UNL     1      -6.113  -5.649  -6.249  0.00  0.00    +0.151 C 
BRANCH  10  11
ATOM     11  C   UNL     1      -4.892  -5.165  -5.517  0.00  0.00    -0.028 A 
ATOM     12  C   UNL     1      -4.204  -4.024  -5.957  0.00  0.00    +0.005 A 
ATOM     13  C   UNL     1      -4.421  -5.838  -4.380  0.00  0.00    +0.005 A 
ATOM     14  C   UNL     1      -3.087  -3.556  -5.260  0.00  0.00    +0.000 A 
ATOM     15  C   UNL     1      -3.305  -5.368  -3.687  0.00  0.00    +0.000 A 
ATOM     16  C   UNL     1      -2.640  -4.226  -4.127  0.00  0.00    +0.000 A 
ENDBRANCH  10  11
ENDBRANCH   1  10
TORSDOF 2
ENDMDL
MODEL 9
REMARK VINA RESULT:    -4.582     26.397     27.357
REMARK INTER + INTRA:          -5.210
REMARK INTER:                  -5.117
REMARK INTRA:                  -0.093
REMARK UNBOUND:                -0.092
REMARK  Name = 1550473
REMARK  2 active torsions:
REMARK  status: ('A' for Active; 'I' for Inactive)
REMARK    1  A    between atoms: N_1  and  C_4
REMARK    2  A    between atoms: C_4  and  C_5
REMARK                            x       y       z     vdW  Elec       q    Type
REMARK                         _______ _______ _______ _____ _____    ______ ____
ROOT
ATOM      1  N   UNL     1      -0.247  -5.833  16.212  0.00  0.00    -0.354 N 
ATOM      2  N   UNL     1      -2.267  -6.900  15.833  0.00  0.00    -0.372 N 
ATOM      3  N   UNL     1      -0.346  -7.833  14.995  0.00  0.00    -0.372 N 
ATOM      4  C   UNL     1      -0.939  -6.850  15.681  0.00  0.00    +0.166 C 
ATOM      5  H   UNL     1      -0.758  -5.104  16.695  0.00  0.00    +0.163 HD
ATOM      6  H   UNL     1      -2.816  -7.656  15.446  0.00  0.00    +0.159 HD
ATOM      7  H   UNL     1      -2.771  -6.193  16.355  0.00  0.00    +0.159 HD
ATOM      8  H   UNL     1       0.653  -7.852  14.839  0.00  0.00    +0.159 HD
ATOM      9  H   UNL     1      -0.880  -8.593  14.590  0.00  0.00    +0.159 HD
ENDROOT
BRANCH   1  10
ATOM     10  C   UNL     1       1.209  -5.714  16.149  0.00  0.00    +0.151 C 
BRANCH  10  11
ATOM     11  C   UNL     1       1.601  -4.303  16.490  0.00  0.00    -0.028 A 
ATOM     12  C   UNL     1       1.601  -3.866  17.823  0.00  0.00    +0.005 A 
ATOM     13  C   UNL     1       1.980  -3.399  15.485  0.00  0.00    +0.005 A 
ATOM     14  C   UNL     1       1.994  -2.564  18.143  0.00  0.00    +0.000 A 
ATOM     15  C   UNL     1       2.371  -2.100  15.808  0.00  0.00    +0.000 A 
ATOM     16  C   UNL     1       2.380  -1.684  17.137  0.00  0.00    +0.000 A 
ENDBRANCH  10  11
ENDBRANCH   1  10
TORSDOF 2
ENDMDL
