MODEL 1
REMARK VINA RESULT:    -4.402      0.000      0.000
REMARK INTER + INTRA:          -5.063
REMARK INTER:                  -4.917
REMARK INTRA:                  -0.146
REMARK UNBOUND:                -0.146
REMARK  Name = 1550473
REMARK  2 active torsions:
REMARK  status: ('A' for Active; 'I' for Inactive)
REMARK    1  A    between atoms: N_1  and  C_4
REMARK    2  A    between atoms: C_4  and  C_5
REMARK                            x       y       z     vdW  Elec       q    Type
REMARK                         _______ _______ _______ _____ _____    ______ ____
ROOT
ATOM      1  N   UNL     1      -9.371  -0.720   4.606  0.00  0.00    -0.354 N 
ATOM      2  N   UNL     1     -11.289  -1.424   5.697  0.00  0.00    -0.372 N 
ATOM      3  N   UNL     1     -10.910  -2.136   3.549  0.00  0.00    -0.372 N 
ATOM      4  C   UNL     1     -10.511  -1.423   4.607  0.00  0.00    +0.166 C 
ATOM      5  H   UNL     1      -9.140  -0.176   5.430  0.00  0.00    +0.163 HD
ATOM      6  H   UNL     1     -12.153  -1.948   5.729  0.00  0.00    +0.159 HD
ATOM      7  H   UNL     1     -11.033  -0.916   6.535  0.00  0.00    +0.159 HD
ATOM      8  H   UNL     1     -10.371  -2.171   2.694  0.00  0.00    +0.159 HD
ATOM      9  H   UNL     1     -11.778  -2.657   3.557  0.00  0.00    +0.159 HD
ENDROOT
BRANCH   1  10
ATOM     10  C   UNL     1      -8.427  -0.695   3.490  0.00  0.00    +0.151 C 
BRANCH  10  11
ATOM     11  C   UNL     1      -8.341   0.706   2.950  0.00  0.00    -0.028 A 
ATOM     12  C   UNL     1      -7.804   1.739   3.732  0.00  0.00    +0.005 A 
ATOM     13  C   UNL     1      -8.790   1.005   1.655  0.00  0.00    +0.005 A 
ATOM     14  C   UNL     1      -7.696   3.034   3.220  0.00  0.00    +0.000 A 
ATOM     15  C   UNL     1      -8.681   2.300   1.147  0.00  0.00    +0.000 A 
ATOM     16  C   UNL     1      -8.132   3.313   1.929  0.00  0.00    +0.000 A 
ENDBRANCH  10  11
ENDBRANCH   1  10
TORSDOF 2
ENDMDL
MODEL 2
REMARK VINA RESULT:    -4.353     12.910     14.288
REMARK INTER + INTRA:          -5.008
REMARK INTER:                  -4.887
REMARK INTRA:                  -0.122
REMARK UNBOUND:                -0.146
REMARK  Name = 1550473
REMARK  2 active torsions:
REMARK  status: ('A' for Active; 'I' for Inactive)
REMARK    1  A    between atoms: N_1  and  C_4
REMARK    2  A    between atoms: C_4  and  C_5
REMARK                            x       y       z     vdW  Elec       q    Type
REMARK                         _______ _______ _______ _____ _____    ______ ____
ROOT
ATOM      1  N   UNL     1       0.356   9.932  -2.665  0.00  0.00    -0.354 N 
ATOM      2  N   UNL     1       1.701  11.599  -1.784  0.00  0.00    -0.372 N 
ATOM      3  N   UNL     1       2.638  10.046  -3.189  0.00  0.00    -0.372 N 
ATOM      4  C   UNL     1       1.558  10.513  -2.553  0.00  0.00    +0.166 C 
ATOM      5  H   UNL     1      -0.416  10.317  -2.134  0.00  0.00    +0.163 HD
ATOM      6  H   UNL     1       2.595  12.061  -1.683  0.00  0.00    +0.159 HD
ATOM      7  H   UNL     1       0.917  12.009  -1.290  0.00  0.00    +0.159 HD
ATOM      8  H   UNL     1       2.598   9.227  -3.780  0.00  0.00    +0.159 HD
ATOM      9  H   UNL     1       3.543  10.488  -3.091  0.00  0.00    +0.159 HD
ENDROOT
BRANCH   1  10
ATOM     10  C   UNL     1       0.083   8.778  -3.520  0.00  0.00    +0.151 C 
BRANCH  10  11
ATOM     11  C   UNL     1      -1.404   8.569  -3.601  0.00  0.00    -0.028 A 
ATOM     12  C   UNL     1      -2.261   9.183  -2.677  0.00  0.00    +0.005 A 
ATOM     13  C   UNL     1      -1.963   7.761  -4.604  0.00  0.00    +0.005 A 
ATOM     14  C   UNL     1      -3.645   9.013  -2.770  0.00  0.00    +0.000 A 
ATOM     15  C   UNL     1      -3.344   7.593  -4.693  0.00  0.00    +0.000 A 
ATOM     16  C   UNL     1      -4.185   8.221  -3.778  0.00  0.00    +0.000 A 
ENDBRANCH  10  11
ENDBRANCH   1  10
TORSDOF 2
ENDMDL
MODEL 3
REMARK VINA RESULT:    -4.298      1.880      2.824
REMARK INTER + INTRA:          -4.946
REMARK INTER:                  -4.821
REMARK INTRA:                  -0.125
REMARK UNBOUND:                -0.146
REMARK  Name = 1550473
REMARK  2 active torsions:
REMARK  status: ('A' for Active; 'I' for Inactive)
REMARK    1  A    between atoms: N_1  and  C_4
REMARK    2  A    between atoms: C_4  and  C_5
REMARK                            x       y       z     vdW  Elec       q    Type
REMARK                         _______ _______ _______ _____ _____    ______ ____
ROOT
ATOM      1  N   UNL     1     -11.124  -2.735   3.009  0.00  0.00    -0.354 N 
ATOM      2  N   UNL     1     -12.764  -4.039   2.023  0.00  0.00    -0.372 N 
ATOM      3  N   UNL     1     -11.182  -5.055   3.338  0.00  0.00    -0.372 N 
ATOM      4  C   UNL     1     -11.677  -3.937   2.798  0.00  0.00    +0.166 C 
ATOM      5  H   UNL     1     -11.529  -1.930   2.546  0.00  0.00    +0.163 HD
ATOM      6  H   UNL     1     -13.206  -4.932   1.848  0.00  0.00    +0.159 HD
ATOM      7  H   UNL     1     -13.194  -3.227   1.598  0.00  0.00    +0.159 HD
ATOM      8  H   UNL     1     -10.360  -5.046   3.928  0.00  0.00    +0.159 HD
ATOM      9  H   UNL     1     -11.603  -5.959   3.166  0.00  0.00    +0.159 HD
ENDROOT
BRANCH   1  10
ATOM     10  C   UNL     1      -9.971  -2.508   3.879  0.00  0.00    +0.151 C 
BRANCH  10  11
ATOM     11  C   UNL     1      -9.371  -1.167   3.558  0.00  0.00    -0.028 A 
ATOM     12  C   UNL     1      -8.363  -0.626   4.370  0.00  0.00    +0.005 A 
ATOM     13  C   UNL     1      -9.800  -0.436   2.440  0.00  0.00    +0.005 A 
ATOM     14  C   UNL     1      -7.784   0.606   4.056  0.00  0.00    +0.000 A 
ATOM     15  C   UNL     1      -9.220   0.794   2.130  0.00  0.00    +0.000 A 
ATOM     16  C   UNL     1      -8.210   1.313   2.937  0.00  0.00    +0.000 A 
ENDBRANCH  10  11
ENDBRANCH   1  10
TORSDOF 2
ENDMDL
MODEL 4
REMARK VINA RESULT:    -4.166      2.335      3.031
REMARK INTER + INTRA:          -4.799
REMARK INTER:                  -4.663
REMARK INTRA:                  -0.136
REMARK UNBOUND:                -0.146
REMARK  Name = 1550473
REMARK  2 active torsions:
REMARK  status: ('A' for Active; 'I' for Inactive)
REMARK    1  A    between atoms: N_1  and  C_4
REMARK    2  A    between atoms: C_4  and  C_5
REMARK                            x       y       z     vdW  Elec       q    Type
REMARK                         _______ _______ _______ _____ _____    ______ ____
ROOT
ATOM      1  N   UNL     1      -7.712  -1.092   5.811  0.00  0.00    -0.354 N 
ATOM      2  N   UNL     1      -7.513  -3.192   6.767  0.00  0.00    -0.372 N 
ATOM      3  N   UNL     1      -5.664  -1.836   6.673  0.00  0.00    -0.372 N 
ATOM      4  C   UNL     1      -6.962  -2.026   6.411  0.00  0.00    +0.166 C 
ATOM      5  H   UNL     1      -8.683  -1.309   5.613  0.00  0.00    +0.163 HD
ATOM      6  H   UNL     1      -6.972  -3.914   7.224  0.00  0.00    +0.159 HD
ATOM      7  H   UNL     1      -8.494  -3.388   6.610  0.00  0.00    +0.159 HD
ATOM      8  H   UNL     1      -5.187  -0.980   6.423  0.00  0.00    +0.159 HD
ATOM      9  H   UNL     1      -5.103  -2.552   7.119  0.00  0.00    +0.159 HD
ENDROOT
BRANCH   1  10
ATOM     10  C   UNL     1      -7.222   0.232   5.431  0.00  0.00    +0.151 C 
BRANCH  10  11
ATOM     11  C   UNL     1      -7.833   0.623   4.114  0.00  0.00    -0.028 A 
ATOM     12  C   UNL     1      -7.783   1.953   3.673  0.00  0.00    +0.005 A 
ATOM     13  C   UNL     1      -8.459  -0.334   3.300  0.00  0.00    +0.005 A 
ATOM     14  C   UNL     1      -8.324   2.311   2.436  0.00  0.00    +0.000 A 
ATOM     15  C   UNL     1      -8.999   0.028   2.066  0.00  0.00    +0.000 A 
ATOM     16  C   UNL     1      -8.929   1.350   1.633  0.00  0.00    +0.000 A 
ENDBRANCH  10  11
ENDBRANCH   1  10
TORSDOF 2
ENDMDL
MODEL 5
REMARK VINA RESULT:    -4.128      2.791      3.355
REMARK INTER + INTRA:          -4.757
REMARK INTER:                  -4.630
REMARK INTRA:                  -0.127
REMARK UNBOUND:                -0.146
REMARK  Name = 1550473
REMARK  2 active torsions:
REMARK  status: ('A' for Active; 'I' for Inactive)
REMARK    1  A    between atoms: N_1  and  C_4
REMARK    2  A    between atoms: C_4  and  C_5
REMARK                            x       y       z     vdW  Elec       q    Type
REMARK                         _______ _______ _______ _____ _____    ______ ____
ROOT
ATOM      1  N   UNL     1      -6.976   1.299   5.685  0.00  0.00    -0.354 N 
ATOM      2  N   UNL     1      -5.278   1.192   7.256  0.00  0.00    -0.372 N 
ATOM      3  N   UNL     1      -6.346  -0.744   6.644  0.00  0.00    -0.372 N 
ATOM      4  C   UNL     1      -6.212   0.580   6.518  0.00  0.00    +0.166 C 
ATOM      5  H   UNL     1      -6.846   2.304   5.658  0.00  0.00    +0.163 HD
ATOM      6  H   UNL     1      -4.684   0.676   7.891  0.00  0.00    +0.159 HD
ATOM      7  H   UNL     1      -5.118   2.190   7.193  0.00  0.00    +0.159 HD
ATOM      8  H   UNL     1      -7.037  -1.265   6.120  0.00  0.00    +0.159 HD
ATOM      9  H   UNL     1      -5.769  -1.277   7.283  0.00  0.00    +0.159 HD
ENDROOT
BRANCH   1  10
ATOM     10  C   UNL     1      -7.986   0.723   4.799  0.00  0.00    +0.151 C 
BRANCH  10  11
ATOM     11  C   UNL     1      -8.078   1.557   3.551  0.00  0.00    -0.028 A 
ATOM     12  C   UNL     1      -7.587   2.871   3.535  0.00  0.00    +0.005 A 
ATOM     13  C   UNL     1      -8.649   1.037   2.379  0.00  0.00    +0.005 A 
ATOM     14  C   UNL     1      -7.645   3.635   2.368  0.00  0.00    +0.000 A 
ATOM     15  C   UNL     1      -8.706   1.804   1.216  0.00  0.00    +0.000 A 
ATOM     16  C   UNL     1      -8.202   3.102   1.210  0.00  0.00    +0.000 A 
ENDBRANCH  10  11
ENDBRANCH   1  10
TORSDOF 2
ENDMDL
MODEL 6
REMARK VINA RESULT:    -3.996      2.880      4.089
REMARK INTER + INTRA:          -4.609
REMARK INTER:                  -4.468
REMARK INTRA:                  -0.141
REMARK UNBOUND:                -0.146
REMARK  Name = 1550473
REMARK  2 active torsions:
REMARK  status: ('A' for Active; 'I' for Inactive)
REMARK    1  A    between atoms: N_1  and  C_4
REMARK    2  A    between atoms: C_4  and  C_5
REMARK                            x       y       z     vdW  Elec       q    Type
REMARK                         _______ _______ _______ _____ _____    ______ ____
ROOT
ATOM      1  N   UNL     1      -7.078   0.412   6.619  0.00  0.00    -0.354 N 
ATOM      2  N   UNL     1      -6.299  -0.848   8.400  0.00  0.00    -0.372 N 
ATOM      3  N   UNL     1      -4.813   0.443   7.221  0.00  0.00    -0.372 N 
ATOM      4  C   UNL     1      -6.066   0.011   7.401  0.00  0.00    +0.166 C 
ATOM      5  H   UNL     1      -7.999   0.025   6.789  0.00  0.00    +0.163 HD
ATOM      6  H   UNL     1      -5.556  -1.166   9.008  0.00  0.00    +0.159 HD
ATOM      7  H   UNL     1      -7.229  -1.198   8.596  0.00  0.00    +0.159 HD
ATOM      8  H   UNL     1      -4.570   1.088   6.481  0.00  0.00    +0.159 HD
ATOM      9  H   UNL     1      -4.054   0.128   7.812  0.00  0.00    +0.159 HD
ENDROOT
BRANCH   1  10
ATOM     10  C   UNL     1      -6.940   1.386   5.538  0.00  0.00    +0.151 C 
BRANCH  10  11
ATOM     11  C   UNL     1      -7.630   0.859   4.311  0.00  0.00    -0.028 A 
ATOM     12  C   UNL     1      -7.897  -0.512   4.177  0.00  0.00    +0.005 A 
ATOM     13  C   UNL     1      -8.026   1.726   3.280  0.00  0.00    +0.005 A 
ATOM     14  C   UNL     1      -8.564  -0.998   3.051  0.00  0.00    +0.000 A 
ATOM     15  C   UNL     1      -8.692   1.236   2.157  0.00  0.00    +0.000 A 
ATOM     16  C   UNL     1      -8.963  -0.125   2.043  0.00  0.00    +0.000 A 
ENDBRANCH  10  11
ENDBRANCH   1  10
TORSDOF 2
ENDMDL
MODEL 7
REMARK VINA RESULT:    -3.926     18.853     19.783
REMARK INTER + INTRA:          -4.531
REMARK INTER:                  -4.388
REMARK INTRA:                  -0.143
REMARK UNBOUND:                -0.146
REMARK  Name = 1550473
REMARK  2 active torsions:
REMARK  status: ('A' for Active; 'I' for Inactive)
REMARK    1  A    between atoms: N_1  and  C_4
REMARK    2  A    between atoms: C_4  and  C_5
REMARK                            x       y       z     vdW  Elec       q    Type
REMARK                         _______ _______ _______ _____ _____    ______ ____
ROOT
ATOM      1  N   UNL     1       5.988   9.871   8.604  0.00  0.00    -0.354 N 
ATOM      2  N   UNL     1       4.888  11.709   9.484  0.00  0.00    -0.372 N 
ATOM      3  N   UNL     1       6.602  12.050   7.997  0.00  0.00    -0.372 N 
ATOM      4  C   UNL     1       5.835  11.199   8.688  0.00  0.00    +0.166 C 
ATOM      5  H   UNL     1       5.395   9.281   9.176  0.00  0.00    +0.163 HD
ATOM      6  H   UNL     1       4.746  12.707   9.566  0.00  0.00    +0.159 HD
ATOM      7  H   UNL     1       4.266  11.116  10.020  0.00  0.00    +0.159 HD
ATOM      8  H   UNL     1       7.338  11.729   7.383  0.00  0.00    +0.159 HD
ATOM      9  H   UNL     1       6.483  13.052   8.074  0.00  0.00    +0.159 HD
ENDROOT
BRANCH   1  10
ATOM     10  C   UNL     1       6.954   9.213   7.726  0.00  0.00    +0.151 C 
BRANCH  10  11
ATOM     11  C   UNL     1       7.749   8.220   8.527  0.00  0.00    -0.028 A 
ATOM     12  C   UNL     1       8.916   7.649   7.997  0.00  0.00    +0.005 A 
ATOM     13  C   UNL     1       7.345   7.849   9.818  0.00  0.00    +0.005 A 
ATOM     14  C   UNL     1       9.672   6.750   8.753  0.00  0.00    +0.000 A 
ATOM     15  C   UNL     1       8.102   6.950  10.569  0.00  0.00    +0.000 A 
ATOM     16  C   UNL     1       9.266   6.402  10.037  0.00  0.00    +0.000 A 
ENDBRANCH  10  11
ENDBRANCH   1  10
TORSDOF 2
ENDMDL
MODEL 8
REMARK VINA RESULT:    -3.923      3.648      5.380
REMARK INTER + INTRA:          -4.528
REMARK INTER:                  -4.383
REMARK INTRA:                  -0.145
REMARK UNBOUND:                -0.146
REMARK  Name = 1550473
REMARK  2 active torsions:
REMARK  status: ('A' for Active; 'I' for Inactive)
REMARK    1  A    between atoms: N_1  and  C_4
REMARK    2  A    between atoms: C_4  and  C_5
REMARK                            x       y       z     vdW  Elec       q    Type
REMARK                         _______ _______ _______ _____ _____    ______ ____
ROOT
ATOM      1  N   UNL     1      -8.284   4.663   3.637  0.00  0.00    -0.354 N 
ATOM      2  N   UNL     1      -8.066   6.252   5.307  0.00  0.00    -0.372 N 
ATOM      3  N   UNL     1      -6.253   5.781   3.982  0.00  0.00    -0.372 N 
ATOM      4  C   UNL     1      -7.533   5.555   4.297  0.00  0.00    +0.166 C 
ATOM      5  H   UNL     1      -9.238   4.516   3.944  0.00  0.00    +0.163 HD
ATOM      6  H   UNL     1      -7.525   6.935   5.821  0.00  0.00    +0.159 HD
ATOM      7  H   UNL     1      -9.034   6.137   5.582  0.00  0.00    +0.159 HD
ATOM      8  H   UNL     1      -5.790   5.283   3.234  0.00  0.00    +0.159 HD
ATOM      9  H   UNL     1      -5.692   6.451   4.493  0.00  0.00    +0.159 HD
ENDROOT
BRANCH   1  10
ATOM     10  C   UNL     1      -7.815   3.891   2.487  0.00  0.00    +0.151 C 
BRANCH  10  11
ATOM     11  C   UNL     1      -8.082   2.432   2.734  0.00  0.00    -0.028 A 
ATOM     12  C   UNL     1      -8.784   1.667   1.790  0.00  0.00    +0.005 A 
ATOM     13  C   UNL     1      -7.631   1.806   3.906  0.00  0.00    +0.005 A 
ATOM     14  C   UNL     1      -9.007   0.305   2.005  0.00  0.00    +0.000 A 
ATOM     15  C   UNL     1      -7.856   0.446   4.117  0.00  0.00    +0.000 A 
ATOM     16  C   UNL     1      -8.542  -0.305   3.165  0.00  0.00    +0.000 A 
ENDBRANCH  10  11
ENDBRANCH   1  10
TORSDOF 2
ENDMDL
MODEL 9
REMARK VINA RESULT:    -3.921     21.495     22.401
REMARK INTER + INTRA:          -4.525
REMARK INTER:                  -4.413
REMARK INTRA:                  -0.113
REMARK UNBOUND:                -0.146
REMARK  Name = 1550473
REMARK  2 active torsions:
REMARK  status: ('A' for Active; 'I' for Inactive)
REMARK    1  A    between atoms: N_1  and  C_4
REMARK    2  A    between atoms: C_4  and  C_5
REMARK                            x       y       z     vdW  Elec       q    Type
REMARK                         _______ _______ _______ _____ _____    ______ ____
ROOT
ATOM      1  N   UNL     1      10.530  -6.215  -4.530  0.00  0.00    -0.354 N 
ATOM      2  N   UNL     1      11.551  -5.659  -6.533  0.00  0.00    -0.372 N 
ATOM      3  N   UNL     1       9.293  -6.068  -6.515  0.00  0.00    -0.372 N 
ATOM      4  C   UNL     1      10.449  -5.985  -5.847  0.00  0.00    +0.166 C 
ATOM      5  H   UNL     1      11.441  -6.165  -4.088  0.00  0.00    +0.163 HD
ATOM      6  H   UNL     1      11.520  -5.476  -7.527  0.00  0.00    +0.159 HD
ATOM      7  H   UNL     1      12.452  -5.565  -6.081  0.00  0.00    +0.159 HD
ATOM      8  H   UNL     1       8.426  -6.315  -6.056  0.00  0.00    +0.159 HD
ATOM      9  H   UNL     1       9.244  -5.900  -7.512  0.00  0.00    +0.159 HD
ENDROOT
BRANCH   1  10
ATOM     10  C   UNL     1       9.380  -6.523  -3.681  0.00  0.00    +0.151 C 
BRANCH  10  11
ATOM     11  C   UNL     1       9.781  -7.563  -2.672  0.00  0.00    -0.028 A 
ATOM     12  C   UNL     1      10.924  -7.384  -1.880  0.00  0.00    +0.005 A 
ATOM     13  C   UNL     1       9.017  -8.728  -2.498  0.00  0.00    +0.005 A 
ATOM     14  C   UNL     1      11.280  -8.336  -0.921  0.00  0.00    +0.000 A 
ATOM     15  C   UNL     1       9.376  -9.676  -1.539  0.00  0.00    +0.000 A 
ATOM     16  C   UNL     1      10.506  -9.478  -0.750  0.00  0.00    +0.000 A 
ENDBRANCH  10  11
ENDBRANCH   1  10
TORSDOF 2
ENDMDL
