MODEL 1
REMARK VINA RESULT:    -6.724      0.000      0.000
REMARK INTER + INTRA:          -7.634
REMARK INTER:                  -7.510
REMARK INTRA:                  -0.124
REMARK UNBOUND:                -0.124
REMARK  Name = 1550473
REMARK  2 active torsions:
REMARK  status: ('A' for Active; 'I' for Inactive)
REMARK    1  A    between atoms: N_1  and  C_4
REMARK    2  A    between atoms: C_4  and  C_5
REMARK                            x       y       z     vdW  Elec       q    Type
REMARK                         _______ _______ _______ _____ _____    ______ ____
ROOT
ATOM      1  N   UNL     1       9.308  17.818  12.594  0.00  0.00    -0.354 N 
ATOM      2  N   UNL     1       9.620  18.943  14.594  0.00  0.00    -0.372 N 
ATOM      3  N   UNL     1       9.386  16.661  14.630  0.00  0.00    -0.372 N 
ATOM      4  C   UNL     1       9.436  17.797  13.927  0.00  0.00    +0.166 C 
ATOM      5  H   UNL     1       9.325  18.715  12.123  0.00  0.00    +0.163 HD
ATOM      6  H   UNL     1       9.722  18.959  15.600  0.00  0.00    +0.159 HD
ATOM      7  H   UNL     1       9.682  19.834  14.116  0.00  0.00    +0.159 HD
ATOM      8  H   UNL     1       9.243  15.763  14.188  0.00  0.00    +0.159 HD
ATOM      9  H   UNL     1       9.475  16.657  15.639  0.00  0.00    +0.159 HD
ENDROOT
BRANCH   1  10
ATOM     10  C   UNL     1       9.158  16.621  11.768  0.00  0.00    +0.151 C 
BRANCH  10  11
ATOM     11  C   UNL     1       8.526  17.004  10.459  0.00  0.00    -0.028 A 
ATOM     12  C   UNL     1       8.782  16.257   9.299  0.00  0.00    +0.005 A 
ATOM     13  C   UNL     1       7.666  18.109  10.371  0.00  0.00    +0.005 A 
ATOM     14  C   UNL     1       8.172  16.595   8.089  0.00  0.00    +0.000 A 
ATOM     15  C   UNL     1       7.059  18.443   9.161  0.00  0.00    +0.000 A 
ATOM     16  C   UNL     1       7.311  17.684   8.020  0.00  0.00    +0.000 A 
ENDBRANCH  10  11
ENDBRANCH   1  10
TORSDOF 2
ENDMDL
MODEL 2
REMARK VINA RESULT:    -5.434     26.809     27.601
REMARK INTER + INTRA:          -6.193
REMARK INTER:                  -6.084
REMARK INTRA:                  -0.108
REMARK UNBOUND:                -0.124
REMARK  Name = 1550473
REMARK  2 active torsions:
REMARK  status: ('A' for Active; 'I' for Inactive)
REMARK    1  A    between atoms: N_1  and  C_4
REMARK    2  A    between atoms: C_4  and  C_5
REMARK                            x       y       z     vdW  Elec       q    Type
REMARK                         _______ _______ _______ _____ _____    ______ ____
ROOT
ATOM      1  N   UNL     1       2.213  10.163 -14.219  0.00  0.00    -0.354 N 
ATOM      2  N   UNL     1       4.040   8.745 -14.115  0.00  0.00    -0.372 N 
ATOM      3  N   UNL     1       2.269   8.377 -12.703  0.00  0.00    -0.372 N 
ATOM      4  C   UNL     1       2.827   9.103 -13.678  0.00  0.00    +0.166 C 
ATOM      5  H   UNL     1       2.702  10.690 -14.934  0.00  0.00    +0.163 HD
ATOM      6  H   UNL     1       4.527   7.947 -13.728  0.00  0.00    +0.159 HD
ATOM      7  H   UNL     1       4.508   9.246 -14.861  0.00  0.00    +0.159 HD
ATOM      8  H   UNL     1       1.358   8.599 -12.325  0.00  0.00    +0.159 HD
ATOM      9  H   UNL     1       2.746   7.583 -12.295  0.00  0.00    +0.159 HD
ENDROOT
BRANCH   1  10
ATOM     10  C   UNL     1       0.869  10.605 -13.852  0.00  0.00    +0.151 C 
BRANCH  10  11
ATOM     11  C   UNL     1       0.548  11.872 -14.595  0.00  0.00    -0.028 A 
ATOM     12  C   UNL     1      -0.696  12.034 -15.223  0.00  0.00    +0.005 A 
ATOM     13  C   UNL     1       1.481  12.918 -14.671  0.00  0.00    +0.005 A 
ATOM     14  C   UNL     1      -1.006  13.223 -15.888  0.00  0.00    +0.000 A 
ATOM     15  C   UNL     1       1.168  14.103 -15.336  0.00  0.00    +0.000 A 
ATOM     16  C   UNL     1      -0.076  14.256 -15.943  0.00  0.00    +0.000 A 
ENDBRANCH  10  11
ENDBRANCH   1  10
TORSDOF 2
ENDMDL
MODEL 3
REMARK VINA RESULT:    -5.267     44.058     45.229
REMARK INTER + INTRA:          -6.007
REMARK INTER:                  -5.893
REMARK INTRA:                  -0.114
REMARK UNBOUND:                -0.124
REMARK  Name = 1550473
REMARK  2 active torsions:
REMARK  status: ('A' for Active; 'I' for Inactive)
REMARK    1  A    between atoms: N_1  and  C_4
REMARK    2  A    between atoms: C_4  and  C_5
REMARK                            x       y       z     vdW  Elec       q    Type
REMARK                         _______ _______ _______ _____ _____    ______ ____
ROOT
ATOM      1  N   UNL     1     -18.924 -14.594  -7.375  0.00  0.00    -0.354 N 
ATOM      2  N   UNL     1     -17.866 -16.607  -7.812  0.00  0.00    -0.372 N 
ATOM      3  N   UNL     1     -17.975 -15.029  -9.474  0.00  0.00    -0.372 N 
ATOM      4  C   UNL     1     -18.262 -15.396  -8.220  0.00  0.00    +0.166 C 
ATOM      5  H   UNL     1     -19.137 -14.942  -6.448  0.00  0.00    +0.163 HD
ATOM      6  H   UNL     1     -17.361 -17.233  -8.425  0.00  0.00    +0.159 HD
ATOM      7  H   UNL     1     -18.040 -16.935  -6.869  0.00  0.00    +0.159 HD
ATOM      8  H   UNL     1     -18.252 -14.130  -9.845  0.00  0.00    +0.159 HD
ATOM      9  H   UNL     1     -17.482 -15.646 -10.107  0.00  0.00    +0.159 HD
ENDROOT
BRANCH   1  10
ATOM     10  C   UNL     1     -19.352 -13.235  -7.704  0.00  0.00    +0.151 C 
BRANCH  10  11
ATOM     11  C   UNL     1     -19.551 -12.461  -6.430  0.00  0.00    -0.028 A 
ATOM     12  C   UNL     1     -19.245 -11.093  -6.373  0.00  0.00    +0.005 A 
ATOM     13  C   UNL     1     -20.049 -13.088  -5.278  0.00  0.00    +0.005 A 
ATOM     14  C   UNL     1     -19.457 -10.367  -5.199  0.00  0.00    +0.000 A 
ATOM     15  C   UNL     1     -20.259 -12.360  -4.107  0.00  0.00    +0.000 A 
ATOM     16  C   UNL     1     -19.965 -10.999  -4.069  0.00  0.00    +0.000 A 
ENDBRANCH  10  11
ENDBRANCH   1  10
TORSDOF 2
ENDMDL
MODEL 4
REMARK VINA RESULT:    -5.231     26.075     27.518
REMARK INTER + INTRA:          -5.966
REMARK INTER:                  -5.814
REMARK INTRA:                  -0.152
REMARK UNBOUND:                -0.124
REMARK  Name = 1550473
REMARK  2 active torsions:
REMARK  status: ('A' for Active; 'I' for Inactive)
REMARK    1  A    between atoms: N_1  and  C_4
REMARK    2  A    between atoms: C_4  and  C_5
REMARK                            x       y       z     vdW  Elec       q    Type
REMARK                         _______ _______ _______ _____ _____    ______ ____
ROOT
ATOM      1  N   UNL     1      -4.012   9.684 -11.791  0.00  0.00    -0.354 N 
ATOM      2  N   UNL     1      -4.532  10.656  -9.755  0.00  0.00    -0.372 N 
ATOM      3  N   UNL     1      -3.109   8.857  -9.794  0.00  0.00    -0.372 N 
ATOM      4  C   UNL     1      -3.879   9.724 -10.459  0.00  0.00    +0.166 C 
ATOM      5  H   UNL     1      -4.636  10.351 -12.233  0.00  0.00    +0.163 HD
ATOM      6  H   UNL     1      -4.448  10.713  -8.748  0.00  0.00    +0.159 HD
ATOM      7  H   UNL     1      -5.118  11.350 -10.203  0.00  0.00    +0.159 HD
ATOM      8  H   UNL     1      -2.594   8.126 -10.266  0.00  0.00    +0.159 HD
ATOM      9  H   UNL     1      -3.021   8.891  -8.786  0.00  0.00    +0.159 HD
ENDROOT
BRANCH   1  10
ATOM     10  C   UNL     1      -3.303   8.743 -12.656  0.00  0.00    +0.151 C 
BRANCH  10  11
ATOM     11  C   UNL     1      -2.311   9.499 -13.496  0.00  0.00    -0.028 A 
ATOM     12  C   UNL     1      -2.701  10.650 -14.197  0.00  0.00    +0.005 A 
ATOM     13  C   UNL     1      -0.977   9.074 -13.590  0.00  0.00    +0.005 A 
ATOM     14  C   UNL     1      -1.773  11.370 -14.953  0.00  0.00    +0.000 A 
ATOM     15  C   UNL     1      -0.053   9.795 -14.346  0.00  0.00    +0.000 A 
ATOM     16  C   UNL     1      -0.451  10.944 -15.025  0.00  0.00    +0.000 A 
ENDBRANCH  10  11
ENDBRANCH   1  10
TORSDOF 2
ENDMDL
MODEL 5
REMARK VINA RESULT:    -5.223     26.778     27.771
REMARK INTER + INTRA:          -5.957
REMARK INTER:                  -5.779
REMARK INTRA:                  -0.179
REMARK UNBOUND:                -0.124
REMARK  Name = 1550473
REMARK  2 active torsions:
REMARK  status: ('A' for Active; 'I' for Inactive)
REMARK    1  A    between atoms: N_1  and  C_4
REMARK    2  A    between atoms: C_4  and  C_5
REMARK                            x       y       z     vdW  Elec       q    Type
REMARK                         _______ _______ _______ _____ _____    ______ ____
ROOT
ATOM      1  N   UNL     1      -1.666   9.059 -12.123  0.00  0.00    -0.354 N 
ATOM      2  N   UNL     1      -3.192   9.147 -10.383  0.00  0.00    -0.372 N 
ATOM      3  N   UNL     1      -3.959   8.770 -12.513  0.00  0.00    -0.372 N 
ATOM      4  C   UNL     1      -2.931   8.991 -11.686  0.00  0.00    +0.166 C 
ATOM      5  H   UNL     1      -0.935   9.259 -11.450  0.00  0.00    +0.163 HD
ATOM      6  H   UNL     1      -4.136   9.098 -10.024  0.00  0.00    +0.159 HD
ATOM      7  H   UNL     1      -2.455   9.301  -9.706  0.00  0.00    +0.159 HD
ATOM      8  H   UNL     1      -3.829   8.650 -13.508  0.00  0.00    +0.159 HD
ATOM      9  H   UNL     1      -4.912   8.729 -12.174  0.00  0.00    +0.159 HD
ENDROOT
BRANCH   1  10
ATOM     10  C   UNL     1      -1.269   8.850 -13.514  0.00  0.00    +0.151 C 
BRANCH  10  11
ATOM     11  C   UNL     1      -0.968  10.181 -14.144  0.00  0.00    -0.028 A 
ATOM     12  C   UNL     1       0.316  10.738 -14.054  0.00  0.00    +0.005 A 
ATOM     13  C   UNL     1      -1.962  10.889 -14.839  0.00  0.00    +0.005 A 
ATOM     14  C   UNL     1       0.604  11.961 -14.665  0.00  0.00    +0.000 A 
ATOM     15  C   UNL     1      -1.671  12.110 -15.447  0.00  0.00    +0.000 A 
ATOM     16  C   UNL     1      -0.387  12.644 -15.362  0.00  0.00    +0.000 A 
ENDBRANCH  10  11
ENDBRANCH   1  10
TORSDOF 2
ENDMDL
MODEL 6
REMARK VINA RESULT:    -5.042     26.977     27.854
REMARK INTER + INTRA:          -5.756
REMARK INTER:                  -5.607
REMARK INTRA:                  -0.148
REMARK UNBOUND:                -0.124
REMARK  Name = 1550473
REMARK  2 active torsions:
REMARK  status: ('A' for Active; 'I' for Inactive)
REMARK    1  A    between atoms: N_1  and  C_4
REMARK    2  A    between atoms: C_4  and  C_5
REMARK                            x       y       z     vdW  Elec       q    Type
REMARK                         _______ _______ _______ _____ _____    ______ ____
ROOT
ATOM      1  N   UNL     1      -1.454   9.455 -13.975  0.00  0.00    -0.354 N 
ATOM      2  N   UNL     1      -3.260   8.874 -12.645  0.00  0.00    -0.372 N 
ATOM      3  N   UNL     1      -1.166   8.931 -11.709  0.00  0.00    -0.372 N 
ATOM      4  C   UNL     1      -1.946   9.090 -12.783  0.00  0.00    +0.166 C 
ATOM      5  H   UNL     1      -2.094   9.529 -14.757  0.00  0.00    +0.163 HD
ATOM      6  H   UNL     1      -3.660   8.602 -11.757  0.00  0.00    +0.159 HD
ATOM      7  H   UNL     1      -3.903   8.994 -13.418  0.00  0.00    +0.159 HD
ATOM      8  H   UNL     1      -0.165   9.072 -11.748  0.00  0.00    +0.159 HD
ATOM      9  H   UNL     1      -1.546   8.647 -10.815  0.00  0.00    +0.159 HD
ENDROOT
BRANCH   1  10
ATOM     10  C   UNL     1      -0.047   9.766 -14.218  0.00  0.00    +0.151 C 
BRANCH  10  11
ATOM     11  C   UNL     1       0.074  11.207 -14.627  0.00  0.00    -0.028 A 
ATOM     12  C   UNL     1       1.234  11.937 -14.330  0.00  0.00    +0.005 A 
ATOM     13  C   UNL     1      -0.966  11.848 -15.318  0.00  0.00    +0.005 A 
ATOM     14  C   UNL     1       1.359  13.268 -14.737  0.00  0.00    +0.000 A 
ATOM     15  C   UNL     1      -0.838  13.177 -15.722  0.00  0.00    +0.000 A 
ATOM     16  C   UNL     1       0.326  13.886 -15.433  0.00  0.00    +0.000 A 
ENDBRANCH  10  11
ENDBRANCH   1  10
TORSDOF 2
ENDMDL
MODEL 7
REMARK VINA RESULT:    -5.017     28.441     29.159
REMARK INTER + INTRA:          -5.728
REMARK INTER:                  -5.602
REMARK INTRA:                  -0.125
REMARK UNBOUND:                -0.124
REMARK  Name = 1550473
REMARK  2 active torsions:
REMARK  status: ('A' for Active; 'I' for Inactive)
REMARK    1  A    between atoms: N_1  and  C_4
REMARK    2  A    between atoms: C_4  and  C_5
REMARK                            x       y       z     vdW  Elec       q    Type
REMARK                         _______ _______ _______ _____ _____    ______ ____
ROOT
ATOM      1  N   UNL     1      -4.924   9.981 -13.755  0.00  0.00    -0.354 N 
ATOM      2  N   UNL     1      -7.115  10.087 -14.496  0.00  0.00    -0.372 N 
ATOM      3  N   UNL     1      -6.426   8.233 -13.333  0.00  0.00    -0.372 N 
ATOM      4  C   UNL     1      -6.141   9.430 -13.855  0.00  0.00    +0.166 C 
ATOM      5  H   UNL     1      -4.763  10.878 -14.198  0.00  0.00    +0.163 HD
ATOM      6  H   UNL     1      -8.044   9.698 -14.585  0.00  0.00    +0.159 HD
ATOM      7  H   UNL     1      -6.965  11.004 -14.898  0.00  0.00    +0.159 HD
ATOM      8  H   UNL     1      -5.733   7.683 -12.843  0.00  0.00    +0.159 HD
ATOM      9  H   UNL     1      -7.347   7.822 -13.422  0.00  0.00    +0.159 HD
ENDROOT
BRANCH   1  10
ATOM     10  C   UNL     1      -3.808   9.373 -13.032  0.00  0.00    +0.151 C 
BRANCH  10  11
ATOM     11  C   UNL     1      -2.517   9.784 -13.685  0.00  0.00    -0.028 A 
ATOM     12  C   UNL     1      -2.460  10.931 -14.490  0.00  0.00    +0.005 A 
ATOM     13  C   UNL     1      -1.346   9.033 -13.497  0.00  0.00    +0.005 A 
ATOM     14  C   UNL     1      -1.254  11.329 -15.072  0.00  0.00    +0.000 A 
ATOM     15  C   UNL     1      -0.145   9.434 -14.081  0.00  0.00    +0.000 A 
ATOM     16  C   UNL     1      -0.099  10.584 -14.866  0.00  0.00    +0.000 A 
ENDBRANCH  10  11
ENDBRANCH   1  10
TORSDOF 2
ENDMDL
MODEL 8
REMARK VINA RESULT:    -4.996     43.488     44.635
REMARK INTER + INTRA:          -5.703
REMARK INTER:                  -5.563
REMARK INTRA:                  -0.140
REMARK UNBOUND:                -0.124
REMARK  Name = 1550473
REMARK  2 active torsions:
REMARK  status: ('A' for Active; 'I' for Inactive)
REMARK    1  A    between atoms: N_1  and  C_4
REMARK    2  A    between atoms: C_4  and  C_5
REMARK                            x       y       z     vdW  Elec       q    Type
REMARK                         _______ _______ _______ _____ _____    ______ ____
ROOT
ATOM      1  N   UNL     1     -19.330 -13.404  -7.547  0.00  0.00    -0.354 N 
ATOM      2  N   UNL     1     -18.119 -13.905  -9.456  0.00  0.00    -0.372 N 
ATOM      3  N   UNL     1     -17.877 -15.242  -7.607  0.00  0.00    -0.372 N 
ATOM      4  C   UNL     1     -18.449 -14.182  -8.189  0.00  0.00    +0.166 C 
ATOM      5  H   UNL     1     -19.705 -12.599  -8.034  0.00  0.00    +0.163 HD
ATOM      6  H   UNL     1     -17.459 -14.475  -9.968  0.00  0.00    +0.159 HD
ATOM      7  H   UNL     1     -18.530 -13.125  -9.955  0.00  0.00    +0.159 HD
ATOM      8  H   UNL     1     -18.079 -15.502  -6.651  0.00  0.00    +0.159 HD
ATOM      9  H   UNL     1     -17.205 -15.818  -8.099  0.00  0.00    +0.159 HD
ENDROOT
BRANCH   1  10
ATOM     10  C   UNL     1     -19.798 -13.652  -6.184  0.00  0.00    +0.151 C 
BRANCH  10  11
ATOM     11  C   UNL     1     -19.795 -12.356  -5.421  0.00  0.00    -0.028 A 
ATOM     12  C   UNL     1     -20.225 -12.314  -4.087  0.00  0.00    +0.005 A 
ATOM     13  C   UNL     1     -19.360 -11.166  -6.026  0.00  0.00    +0.005 A 
ATOM     14  C   UNL     1     -20.194 -11.116  -3.369  0.00  0.00    +0.000 A 
ATOM     15  C   UNL     1     -19.332  -9.972  -5.306  0.00  0.00    +0.000 A 
ATOM     16  C   UNL     1     -19.747  -9.948  -3.976  0.00  0.00    +0.000 A 
ENDBRANCH  10  11
ENDBRANCH   1  10
TORSDOF 2
ENDMDL
MODEL 9
REMARK VINA RESULT:    -4.922      7.519      7.993
REMARK INTER + INTRA:          -5.622
REMARK INTER:                  -5.475
REMARK INTRA:                  -0.146
REMARK UNBOUND:                -0.124
REMARK  Name = 1550473
REMARK  2 active torsions:
REMARK  status: ('A' for Active; 'I' for Inactive)
REMARK    1  A    between atoms: N_1  and  C_4
REMARK    2  A    between atoms: C_4  and  C_5
REMARK                            x       y       z     vdW  Elec       q    Type
REMARK                         _______ _______ _______ _____ _____    ______ ____
ROOT
ATOM      1  N   UNL     1      15.698  16.538   8.873  0.00  0.00    -0.354 N 
ATOM      2  N   UNL     1      15.487  15.310  10.826  0.00  0.00    -0.372 N 
ATOM      3  N   UNL     1      17.492  16.327  10.367  0.00  0.00    -0.372 N 
ATOM      4  C   UNL     1      16.230  16.067  10.009  0.00  0.00    +0.166 C 
ATOM      5  H   UNL     1      14.745  16.280   8.645  0.00  0.00    +0.163 HD
ATOM      6  H   UNL     1      15.859  14.943  11.691  0.00  0.00    +0.159 HD
ATOM      7  H   UNL     1      14.520  15.092  10.617  0.00  0.00    +0.159 HD
ATOM      8  H   UNL     1      18.107  16.887   9.792  0.00  0.00    +0.159 HD
ATOM      9  H   UNL     1      17.887  15.959  11.223  0.00  0.00    +0.159 HD
ENDROOT
BRANCH   1  10
ATOM     10  C   UNL     1      16.406  17.415   7.942  0.00  0.00    +0.151 C 
BRANCH  10  11
ATOM     11  C   UNL     1      15.607  18.675   7.751  0.00  0.00    -0.028 A 
ATOM     12  C   UNL     1      15.290  19.491   8.847  0.00  0.00    +0.005 A 
ATOM     13  C   UNL     1      15.168  19.061   6.475  0.00  0.00    +0.005 A 
ATOM     14  C   UNL     1      14.574  20.676   8.665  0.00  0.00    +0.000 A 
ATOM     15  C   UNL     1      14.452  20.245   6.298  0.00  0.00    +0.000 A 
ATOM     16  C   UNL     1      14.157  21.054   7.393  0.00  0.00    +0.000 A 
ENDBRANCH  10  11
ENDBRANCH   1  10
TORSDOF 2
ENDMDL
