MODEL 1
REMARK VINA RESULT:    -5.985      0.000      0.000
REMARK INTER + INTRA:          -6.767
REMARK INTER:                  -6.685
REMARK INTRA:                  -0.082
REMARK UNBOUND:                -0.082
REMARK  Name = 1550473
REMARK  2 active torsions:
REMARK  status: ('A' for Active; 'I' for Inactive)
REMARK    1  A    between atoms: N_1  and  C_4
REMARK    2  A    between atoms: C_4  and  C_5
REMARK                            x       y       z     vdW  Elec       q    Type
REMARK                         _______ _______ _______ _____ _____    ______ ____
ROOT
ATOM      1  N   UNL     1      -2.487  -9.364 -12.977  0.00  0.00    -0.354 N 
ATOM      2  N   UNL     1      -0.961 -10.018 -14.591  0.00  0.00    -0.372 N 
ATOM      3  N   UNL     1      -1.373  -7.780 -14.298  0.00  0.00    -0.372 N 
ATOM      4  C   UNL     1      -1.617  -9.047 -13.945  0.00  0.00    +0.166 C 
ATOM      5  H   UNL     1      -2.650 -10.344 -12.778  0.00  0.00    +0.163 HD
ATOM      6  H   UNL     1      -0.296  -9.810 -15.324  0.00  0.00    +0.159 HD
ATOM      7  H   UNL     1      -1.091 -10.996 -14.359  0.00  0.00    +0.159 HD
ATOM      8  H   UNL     1      -1.840  -7.002 -13.853  0.00  0.00    +0.159 HD
ATOM      9  H   UNL     1      -0.720  -7.552 -15.036  0.00  0.00    +0.159 HD
ENDROOT
BRANCH   1  10
ATOM     10  C   UNL     1      -3.213  -8.380 -12.176  0.00  0.00    +0.151 C 
BRANCH  10  11
ATOM     11  C   UNL     1      -2.309  -7.868 -11.089  0.00  0.00    -0.028 A 
ATOM     12  C   UNL     1      -1.750  -8.751 -10.154  0.00  0.00    +0.005 A 
ATOM     13  C   UNL     1      -2.004  -6.502 -10.992  0.00  0.00    +0.005 A 
ATOM     14  C   UNL     1      -0.886  -8.281  -9.162  0.00  0.00    +0.000 A 
ATOM     15  C   UNL     1      -1.142  -6.036  -9.999  0.00  0.00    +0.000 A 
ATOM     16  C   UNL     1      -0.581  -6.926  -9.086  0.00  0.00    +0.000 A 
ENDBRANCH  10  11
ENDBRANCH   1  10
TORSDOF 2
ENDMDL
MODEL 2
REMARK VINA RESULT:    -4.605     15.194     16.690
REMARK INTER + INTRA:          -5.225
REMARK INTER:                  -5.082
REMARK INTRA:                  -0.143
REMARK UNBOUND:                -0.082
REMARK  Name = 1550473
REMARK  2 active torsions:
REMARK  status: ('A' for Active; 'I' for Inactive)
REMARK    1  A    between atoms: N_1  and  C_4
REMARK    2  A    between atoms: C_4  and  C_5
REMARK                            x       y       z     vdW  Elec       q    Type
REMARK                         _______ _______ _______ _____ _____    ______ ____
ROOT
ATOM      1  N   UNL     1      -4.131   6.275  -6.467  0.00  0.00    -0.354 N 
ATOM      2  N   UNL     1      -4.062   4.087  -7.224  0.00  0.00    -0.372 N 
ATOM      3  N   UNL     1      -4.087   5.791  -8.760  0.00  0.00    -0.372 N 
ATOM      4  C   UNL     1      -4.094   5.400  -7.481  0.00  0.00    +0.166 C 
ATOM      5  H   UNL     1      -4.165   5.913  -5.521  0.00  0.00    +0.163 HD
ATOM      6  H   UNL     1      -4.030   3.403  -7.968  0.00  0.00    +0.159 HD
ATOM      7  H   UNL     1      -4.049   3.730  -6.276  0.00  0.00    +0.159 HD
ATOM      8  H   UNL     1      -4.116   6.768  -9.021  0.00  0.00    +0.159 HD
ATOM      9  H   UNL     1      -4.067   5.122  -9.519  0.00  0.00    +0.159 HD
ENDROOT
BRANCH   1  10
ATOM     10  C   UNL     1      -4.115   7.726  -6.638  0.00  0.00    +0.151 C 
BRANCH  10  11
ATOM     11  C   UNL     1      -3.030   8.310  -5.776  0.00  0.00    -0.028 A 
ATOM     12  C   UNL     1      -2.228   7.479  -4.981  0.00  0.00    +0.005 A 
ATOM     13  C   UNL     1      -2.795   9.693  -5.754  0.00  0.00    +0.005 A 
ATOM     14  C   UNL     1      -1.200   8.017  -4.202  0.00  0.00    +0.000 A 
ATOM     15  C   UNL     1      -1.769  10.228  -4.975  0.00  0.00    +0.000 A 
ATOM     16  C   UNL     1      -0.970   9.389  -4.201  0.00  0.00    +0.000 A 
ENDBRANCH  10  11
ENDBRANCH   1  10
TORSDOF 2
ENDMDL
MODEL 3
REMARK VINA RESULT:    -4.562      3.189      4.320
REMARK INTER + INTRA:          -5.178
REMARK INTER:                  -5.028
REMARK INTRA:                  -0.150
REMARK UNBOUND:                -0.082
REMARK  Name = 1550473
REMARK  2 active torsions:
REMARK  status: ('A' for Active; 'I' for Inactive)
REMARK    1  A    between atoms: N_1  and  C_4
REMARK    2  A    between atoms: C_4  and  C_5
REMARK                            x       y       z     vdW  Elec       q    Type
REMARK                         _______ _______ _______ _____ _____    ______ ____
ROOT
ATOM      1  N   UNL     1      -4.010 -10.411 -15.222  0.00  0.00    -0.354 N 
ATOM      2  N   UNL     1      -2.987 -10.791 -17.265  0.00  0.00    -0.372 N 
ATOM      3  N   UNL     1      -1.675 -10.483 -15.408  0.00  0.00    -0.372 N 
ATOM      4  C   UNL     1      -2.895 -10.558 -15.950  0.00  0.00    +0.166 C 
ATOM      5  H   UNL     1      -4.904 -10.449 -15.698  0.00  0.00    +0.163 HD
ATOM      6  H   UNL     1      -2.164 -10.910 -17.839  0.00  0.00    +0.159 HD
ATOM      7  H   UNL     1      -3.883 -10.874 -17.730  0.00  0.00    +0.159 HD
ATOM      8  H   UNL     1      -1.537 -10.304 -14.422  0.00  0.00    +0.159 HD
ATOM      9  H   UNL     1      -0.838 -10.588 -15.968  0.00  0.00    +0.159 HD
ENDROOT
BRANCH   1  10
ATOM     10  C   UNL     1      -4.020 -10.208 -13.774  0.00  0.00    +0.151 C 
BRANCH  10  11
ATOM     11  C   UNL     1      -4.573  -8.842 -13.473  0.00  0.00    -0.028 A 
ATOM     12  C   UNL     1      -5.630  -8.319 -14.232  0.00  0.00    +0.005 A 
ATOM     13  C   UNL     1      -4.048  -8.069 -12.427  0.00  0.00    +0.005 A 
ATOM     14  C   UNL     1      -6.164  -7.063 -13.934  0.00  0.00    +0.000 A 
ATOM     15  C   UNL     1      -4.583  -6.815 -12.133  0.00  0.00    +0.000 A 
ATOM     16  C   UNL     1      -5.643  -6.313 -12.885  0.00  0.00    +0.000 A 
ENDBRANCH  10  11
ENDBRANCH   1  10
TORSDOF 2
ENDMDL
MODEL 4
REMARK VINA RESULT:    -4.478     20.398     21.458
REMARK INTER + INTRA:          -5.083
REMARK INTER:                  -4.979
REMARK INTRA:                  -0.104
REMARK UNBOUND:                -0.082
REMARK  Name = 1550473
REMARK  2 active torsions:
REMARK  status: ('A' for Active; 'I' for Inactive)
REMARK    1  A    between atoms: N_1  and  C_4
REMARK    2  A    between atoms: C_4  and  C_5
REMARK                            x       y       z     vdW  Elec       q    Type
REMARK                         _______ _______ _______ _____ _____    ______ ____
ROOT
ATOM      1  N   UNL     1      -0.336   5.861   3.931  0.00  0.00    -0.354 N 
ATOM      2  N   UNL     1      -1.111   6.650   1.896  0.00  0.00    -0.372 N 
ATOM      3  N   UNL     1       0.210   8.014   3.185  0.00  0.00    -0.372 N 
ATOM      4  C   UNL     1      -0.406   6.839   3.018  0.00  0.00    +0.166 C 
ATOM      5  H   UNL     1      -0.850   5.004   3.759  0.00  0.00    +0.163 HD
ATOM      6  H   UNL     1      -1.179   7.369   1.188  0.00  0.00    +0.159 HD
ATOM      7  H   UNL     1      -1.586   5.776   1.706  0.00  0.00    +0.159 HD
ATOM      8  H   UNL     1       0.753   8.221   4.012  0.00  0.00    +0.159 HD
ATOM      9  H   UNL     1       0.144   8.750   2.493  0.00  0.00    +0.159 HD
ENDROOT
BRANCH   1  10
ATOM     10  C   UNL     1       0.449   5.945   5.161  0.00  0.00    +0.151 C 
BRANCH  10  11
ATOM     11  C   UNL     1       0.468   4.596   5.825  0.00  0.00    -0.028 A 
ATOM     12  C   UNL     1      -0.008   4.439   7.135  0.00  0.00    +0.005 A 
ATOM     13  C   UNL     1       0.956   3.468   5.147  0.00  0.00    +0.005 A 
ATOM     14  C   UNL     1      -0.017   3.181   7.741  0.00  0.00    +0.000 A 
ATOM     15  C   UNL     1       0.945   2.213   5.755  0.00  0.00    +0.000 A 
ATOM     16  C   UNL     1       0.456   2.069   7.052  0.00  0.00    +0.000 A 
ENDBRANCH  10  11
ENDBRANCH   1  10
TORSDOF 2
ENDMDL
MODEL 5
REMARK VINA RESULT:    -4.440     17.996     19.194
REMARK INTER + INTRA:          -5.041
REMARK INTER:                  -4.948
REMARK INTRA:                  -0.092
REMARK UNBOUND:                -0.082
REMARK  Name = 1550473
REMARK  2 active torsions:
REMARK  status: ('A' for Active; 'I' for Inactive)
REMARK    1  A    between atoms: N_1  and  C_4
REMARK    2  A    between atoms: C_4  and  C_5
REMARK                            x       y       z     vdW  Elec       q    Type
REMARK                         _______ _______ _______ _____ _____    ______ ____
ROOT
ATOM      1  N   UNL     1      -8.755   7.452  -1.232  0.00  0.00    -0.354 N 
ATOM      2  N   UNL     1      -8.487   6.078   0.613  0.00  0.00    -0.372 N 
ATOM      3  N   UNL     1     -10.171   5.619  -0.876  0.00  0.00    -0.372 N 
ATOM      4  C   UNL     1      -9.142   6.391  -0.512  0.00  0.00    +0.166 C 
ATOM      5  H   UNL     1      -7.986   8.015  -0.886  0.00  0.00    +0.163 HD
ATOM      6  H   UNL     1      -8.754   5.281   1.176  0.00  0.00    +0.159 HD
ATOM      7  H   UNL     1      -7.690   6.615   0.933  0.00  0.00    +0.159 HD
ATOM      8  H   UNL     1     -10.710   5.805  -1.712  0.00  0.00    +0.159 HD
ATOM      9  H   UNL     1     -10.461   4.824  -0.320  0.00  0.00    +0.159 HD
ENDROOT
BRANCH   1  10
ATOM     10  C   UNL     1      -9.367   7.847  -2.500  0.00  0.00    +0.151 C 
BRANCH  10  11
ATOM     11  C   UNL     1      -8.360   7.678  -3.604  0.00  0.00    -0.028 A 
ATOM     12  C   UNL     1      -7.263   6.819  -3.443  0.00  0.00    +0.005 A 
ATOM     13  C   UNL     1      -8.501   8.369  -4.818  0.00  0.00    +0.005 A 
ATOM     14  C   UNL     1      -6.344   6.639  -4.479  0.00  0.00    +0.000 A 
ATOM     15  C   UNL     1      -7.581   8.187  -5.850  0.00  0.00    +0.000 A 
ATOM     16  C   UNL     1      -6.504   7.320  -5.681  0.00  0.00    +0.000 A 
ENDBRANCH  10  11
ENDBRANCH   1  10
TORSDOF 2
ENDMDL
MODEL 6
REMARK VINA RESULT:    -4.227     16.789     18.107
REMARK INTER + INTRA:          -4.803
REMARK INTER:                  -4.692
REMARK INTRA:                  -0.111
REMARK UNBOUND:                -0.082
REMARK  Name = 1550473
REMARK  2 active torsions:
REMARK  status: ('A' for Active; 'I' for Inactive)
REMARK    1  A    between atoms: N_1  and  C_4
REMARK    2  A    between atoms: C_4  and  C_5
REMARK                            x       y       z     vdW  Elec       q    Type
REMARK                         _______ _______ _______ _____ _____    ______ ____
ROOT
ATOM      1  N   UNL     1     -18.093 -16.066 -12.346  0.00  0.00    -0.354 N 
ATOM      2  N   UNL     1     -17.255 -16.499 -14.461  0.00  0.00    -0.372 N 
ATOM      3  N   UNL     1     -19.481 -15.995 -14.233  0.00  0.00    -0.372 N 
ATOM      4  C   UNL     1     -18.284 -16.184 -13.667  0.00  0.00    +0.166 C 
ATOM      5  H   UNL     1     -17.168 -16.251 -11.976  0.00  0.00    +0.163 HD
ATOM      6  H   UNL     1     -17.368 -16.592 -15.462  0.00  0.00    +0.159 HD
ATOM      7  H   UNL     1     -16.321 -16.639 -14.094  0.00  0.00    +0.159 HD
ATOM      8  H   UNL     1     -20.300 -15.761 -13.688  0.00  0.00    +0.159 HD
ATOM      9  H   UNL     1     -19.617 -16.095 -15.231  0.00  0.00    +0.159 HD
ENDROOT
BRANCH   1  10
ATOM     10  C   UNL     1     -19.136 -15.673 -11.400  0.00  0.00    +0.151 C 
BRANCH  10  11
ATOM     11  C   UNL     1     -18.894 -14.255 -10.963  0.00  0.00    -0.028 A 
ATOM     12  C   UNL     1     -19.843 -13.579 -10.182  0.00  0.00    +0.005 A 
ATOM     13  C   UNL     1     -17.715 -13.583 -11.322  0.00  0.00    +0.005 A 
ATOM     14  C   UNL     1     -19.605 -12.272  -9.750  0.00  0.00    +0.000 A 
ATOM     15  C   UNL     1     -17.482 -12.278 -10.889  0.00  0.00    +0.000 A 
ATOM     16  C   UNL     1     -18.426 -11.623 -10.101  0.00  0.00    +0.000 A 
ENDBRANCH  10  11
ENDBRANCH   1  10
TORSDOF 2
ENDMDL
MODEL 7
REMARK VINA RESULT:    -4.199     16.951     17.744
REMARK INTER + INTRA:          -4.772
REMARK INTER:                  -4.651
REMARK INTRA:                  -0.122
REMARK UNBOUND:                -0.082
REMARK  Name = 1550473
REMARK  2 active torsions:
REMARK  status: ('A' for Active; 'I' for Inactive)
REMARK    1  A    between atoms: N_1  and  C_4
REMARK    2  A    between atoms: C_4  and  C_5
REMARK                            x       y       z     vdW  Elec       q    Type
REMARK                         _______ _______ _______ _____ _____    ______ ____
ROOT
ATOM      1  N   UNL     1     -18.544 -15.056 -13.557  0.00  0.00    -0.354 N 
ATOM      2  N   UNL     1     -18.117 -17.289 -13.999  0.00  0.00    -0.372 N 
ATOM      3  N   UNL     1     -18.648 -15.896 -15.742  0.00  0.00    -0.372 N 
ATOM      4  C   UNL     1     -18.440 -16.065 -14.432  0.00  0.00    +0.166 C 
ATOM      5  H   UNL     1     -18.404 -15.256 -12.573  0.00  0.00    +0.163 HD
ATOM      6  H   UNL     1     -18.027 -18.069 -14.636  0.00  0.00    +0.159 HD
ATOM      7  H   UNL     1     -17.932 -17.477 -13.021  0.00  0.00    +0.159 HD
ATOM      8  H   UNL     1     -18.901 -14.998 -16.133  0.00  0.00    +0.159 HD
ATOM      9  H   UNL     1     -18.575 -16.667 -16.395  0.00  0.00    +0.159 HD
ENDROOT
BRANCH   1  10
ATOM     10  C   UNL     1     -18.838 -13.675 -13.933  0.00  0.00    +0.151 C 
BRANCH  10  11
ATOM     11  C   UNL     1     -18.581 -12.779 -12.752  0.00  0.00    -0.028 A 
ATOM     12  C   UNL     1     -17.698 -13.175 -11.737  0.00  0.00    +0.005 A 
ATOM     13  C   UNL     1     -19.214 -11.531 -12.645  0.00  0.00    +0.005 A 
ATOM     14  C   UNL     1     -17.436 -12.331 -10.656  0.00  0.00    +0.000 A 
ATOM     15  C   UNL     1     -18.950 -10.691 -11.563  0.00  0.00    +0.000 A 
ATOM     16  C   UNL     1     -18.059 -11.091 -10.570  0.00  0.00    +0.000 A 
ENDBRANCH  10  11
ENDBRANCH   1  10
TORSDOF 2
ENDMDL
MODEL 8
REMARK VINA RESULT:    -4.064     22.133     23.617
REMARK INTER + INTRA:          -4.621
REMARK INTER:                  -4.438
REMARK INTRA:                  -0.183
REMARK UNBOUND:                -0.082
REMARK  Name = 1550473
REMARK  2 active torsions:
REMARK  status: ('A' for Active; 'I' for Inactive)
REMARK    1  A    between atoms: N_1  and  C_4
REMARK    2  A    between atoms: C_4  and  C_5
REMARK                            x       y       z     vdW  Elec       q    Type
REMARK                         _______ _______ _______ _____ _____    ______ ____
ROOT
ATOM      1  N   UNL     1      -0.302   6.850   4.415  0.00  0.00    -0.354 N 
ATOM      2  N   UNL     1      -0.422   6.526   2.125  0.00  0.00    -0.372 N 
ATOM      3  N   UNL     1      -1.408   8.387   3.035  0.00  0.00    -0.372 N 
ATOM      4  C   UNL     1      -0.712   7.259   3.207  0.00  0.00    +0.166 C 
ATOM      5  H   UNL     1       0.196   5.969   4.482  0.00  0.00    +0.163 HD
ATOM      6  H   UNL     1      -0.715   6.811   1.200  0.00  0.00    +0.159 HD
ATOM      7  H   UNL     1       0.116   5.670   2.189  0.00  0.00    +0.159 HD
ATOM      8  H   UNL     1      -1.664   8.982   3.812  0.00  0.00    +0.159 HD
ATOM      9  H   UNL     1      -1.720   8.683   2.119  0.00  0.00    +0.159 HD
ENDROOT
BRANCH   1  10
ATOM     10  C   UNL     1      -0.518   7.601   5.650  0.00  0.00    +0.151 C 
BRANCH  10  11
ATOM     11  C   UNL     1       0.714   8.406   5.958  0.00  0.00    -0.028 A 
ATOM     12  C   UNL     1       1.899   7.769   6.357  0.00  0.00    +0.005 A 
ATOM     13  C   UNL     1       0.706   9.805   5.847  0.00  0.00    +0.005 A 
ATOM     14  C   UNL     1       3.053   8.514   6.614  0.00  0.00    +0.000 A 
ATOM     15  C   UNL     1       1.860  10.545   6.105  0.00  0.00    +0.000 A 
ATOM     16  C   UNL     1       3.034   9.899   6.486  0.00  0.00    +0.000 A 
ENDBRANCH  10  11
ENDBRANCH   1  10
TORSDOF 2
ENDMDL
MODEL 9
REMARK VINA RESULT:    -4.049      3.284      4.883
REMARK INTER + INTRA:          -4.604
REMARK INTER:                  -4.484
REMARK INTRA:                  -0.120
REMARK UNBOUND:                -0.082
REMARK  Name = 1550473
REMARK  2 active torsions:
REMARK  status: ('A' for Active; 'I' for Inactive)
REMARK    1  A    between atoms: N_1  and  C_4
REMARK    2  A    between atoms: C_4  and  C_5
REMARK                            x       y       z     vdW  Elec       q    Type
REMARK                         _______ _______ _______ _____ _____    ______ ____
ROOT
ATOM      1  N   UNL     1      -3.298 -10.027 -17.142  0.00  0.00    -0.354 N 
ATOM      2  N   UNL     1      -3.267  -9.846 -19.450  0.00  0.00    -0.372 N 
ATOM      3  N   UNL     1      -3.430 -11.930 -18.504  0.00  0.00    -0.372 N 
ATOM      4  C   UNL     1      -3.332 -10.605 -18.350  0.00  0.00    +0.166 C 
ATOM      5  H   UNL     1      -3.192  -9.021 -17.092  0.00  0.00    +0.163 HD
ATOM      6  H   UNL     1      -3.294 -10.253 -20.375  0.00  0.00    +0.159 HD
ATOM      7  H   UNL     1      -3.208  -8.836 -19.398  0.00  0.00    +0.159 HD
ATOM      8  H   UNL     1      -3.477 -12.559 -17.713  0.00  0.00    +0.159 HD
ATOM      9  H   UNL     1      -3.447 -12.357 -19.421  0.00  0.00    +0.159 HD
ENDROOT
BRANCH   1  10
ATOM     10  C   UNL     1      -3.416 -10.759 -15.882  0.00  0.00    +0.151 C 
BRANCH  10  11
ATOM     11  C   UNL     1      -3.293  -9.791 -14.738  0.00  0.00    -0.028 A 
ATOM     12  C   UNL     1      -2.635  -8.564 -14.911  0.00  0.00    +0.005 A 
ATOM     13  C   UNL     1      -3.838 -10.092 -13.480  0.00  0.00    +0.005 A 
ATOM     14  C   UNL     1      -2.547  -7.652 -13.857  0.00  0.00    +0.000 A 
ATOM     15  C   UNL     1      -3.747  -9.178 -12.430  0.00  0.00    +0.000 A 
ATOM     16  C   UNL     1      -3.104  -7.957 -12.619  0.00  0.00    +0.000 A 
ENDBRANCH  10  11
ENDBRANCH   1  10
TORSDOF 2
ENDMDL
