MODEL 1
REMARK VINA RESULT:    -6.955      0.000      0.000
REMARK INTER + INTRA:          -7.910
REMARK INTER:                  -7.768
REMARK INTRA:                  -0.142
REMARK UNBOUND:                -0.142
REMARK  Name = 1550473
REMARK  2 active torsions:
REMARK  status: ('A' for Active; 'I' for Inactive)
REMARK    1  A    between atoms: N_1  and  C_4
REMARK    2  A    between atoms: C_4  and  C_5
REMARK                            x       y       z     vdW  Elec       q    Type
REMARK                         _______ _______ _______ _____ _____    ______ ____
ROOT
ATOM      1  N   UNL     1      -7.361  -5.774  -1.980  0.00  0.00    -0.354 N 
ATOM      2  N   UNL     1      -8.618  -4.706  -0.353  0.00  0.00    -0.372 N 
ATOM      3  N   UNL     1      -6.336  -4.772  -0.125  0.00  0.00    -0.372 N 
ATOM      4  C   UNL     1      -7.427  -5.091  -0.829  0.00  0.00    +0.166 C 
ATOM      5  H   UNL     1      -8.227  -6.010  -2.450  0.00  0.00    +0.163 HD
ATOM      6  H   UNL     1      -8.699  -4.187   0.510  0.00  0.00    +0.159 HD
ATOM      7  H   UNL     1      -9.479  -4.904  -0.849  0.00  0.00    +0.159 HD
ATOM      8  H   UNL     1      -5.408  -5.038  -0.427  0.00  0.00    +0.159 HD
ATOM      9  H   UNL     1      -6.397  -4.263   0.747  0.00  0.00    +0.159 HD
ENDROOT
BRANCH   1  10
ATOM     10  C   UNL     1      -6.110  -6.192  -2.611  0.00  0.00    +0.151 C 
BRANCH  10  11
ATOM     11  C   UNL     1      -6.232  -7.629  -3.037  0.00  0.00    -0.028 A 
ATOM     12  C   UNL     1      -7.389  -8.364  -2.740  0.00  0.00    +0.005 A 
ATOM     13  C   UNL     1      -5.195  -8.260  -3.742  0.00  0.00    +0.005 A 
ATOM     14  C   UNL     1      -7.515  -9.690  -3.161  0.00  0.00    +0.000 A 
ATOM     15  C   UNL     1      -5.324  -9.585  -4.160  0.00  0.00    +0.000 A 
ATOM     16  C   UNL     1      -6.485 -10.298  -3.872  0.00  0.00    +0.000 A 
ENDBRANCH  10  11
ENDBRANCH   1  10
TORSDOF 2
ENDMDL
MODEL 2
REMARK VINA RESULT:    -6.836      1.165      2.165
REMARK INTER + INTRA:          -7.778
REMARK INTER:                  -7.633
REMARK INTRA:                  -0.145
REMARK UNBOUND:                -0.142
REMARK  Name = 1550473
REMARK  2 active torsions:
REMARK  status: ('A' for Active; 'I' for Inactive)
REMARK    1  A    between atoms: N_1  and  C_4
REMARK    2  A    between atoms: C_4  and  C_5
REMARK                            x       y       z     vdW  Elec       q    Type
REMARK                         _______ _______ _______ _____ _____    ______ ____
ROOT
ATOM      1  N   UNL     1      -5.775  -5.272  -2.182  0.00  0.00    -0.354 N 
ATOM      2  N   UNL     1      -4.246  -4.116  -0.883  0.00  0.00    -0.372 N 
ATOM      3  N   UNL     1      -6.243  -4.749   0.053  0.00  0.00    -0.372 N 
ATOM      4  C   UNL     1      -5.433  -4.720  -1.010  0.00  0.00    +0.166 C 
ATOM      5  H   UNL     1      -5.129  -5.190  -2.959  0.00  0.00    +0.163 HD
ATOM      6  H   UNL     1      -3.959  -3.693  -0.010  0.00  0.00    +0.159 HD
ATOM      7  H   UNL     1      -3.583  -4.076  -1.648  0.00  0.00    +0.159 HD
ATOM      8  H   UNL     1      -7.155  -5.184   0.021  0.00  0.00    +0.159 HD
ATOM      9  H   UNL     1      -5.978  -4.321   0.932  0.00  0.00    +0.159 HD
ENDROOT
BRANCH   1  10
ATOM     10  C   UNL     1      -7.022  -6.001  -2.410  0.00  0.00    +0.151 C 
BRANCH  10  11
ATOM     11  C   UNL     1      -6.699  -7.385  -2.901  0.00  0.00    -0.028 A 
ATOM     12  C   UNL     1      -5.455  -7.661  -3.486  0.00  0.00    +0.005 A 
ATOM     13  C   UNL     1      -7.631  -8.427  -2.777  0.00  0.00    +0.005 A 
ATOM     14  C   UNL     1      -5.144  -8.954  -3.915  0.00  0.00    +0.000 A 
ATOM     15  C   UNL     1      -7.317  -9.716  -3.207  0.00  0.00    +0.000 A 
ATOM     16  C   UNL     1      -6.072  -9.980  -3.773  0.00  0.00    +0.000 A 
ENDBRANCH  10  11
ENDBRANCH   1  10
TORSDOF 2
ENDMDL
MODEL 3
REMARK VINA RESULT:    -6.266      1.506      1.817
REMARK INTER + INTRA:          -7.140
REMARK INTER:                  -7.001
REMARK INTRA:                  -0.140
REMARK UNBOUND:                -0.142
REMARK  Name = 1550473
REMARK  2 active torsions:
REMARK  status: ('A' for Active; 'I' for Inactive)
REMARK    1  A    between atoms: N_1  and  C_4
REMARK    2  A    between atoms: C_4  and  C_5
REMARK                            x       y       z     vdW  Elec       q    Type
REMARK                         _______ _______ _______ _____ _____    ______ ____
ROOT
ATOM      1  N   UNL     1      -7.082  -4.987  -2.723  0.00  0.00    -0.354 N 
ATOM      2  N   UNL     1      -5.793  -3.129  -3.223  0.00  0.00    -0.372 N 
ATOM      3  N   UNL     1      -5.979  -3.794  -1.035  0.00  0.00    -0.372 N 
ATOM      4  C   UNL     1      -6.293  -3.982  -2.321  0.00  0.00    +0.166 C 
ATOM      5  H   UNL     1      -7.307  -5.058  -3.709  0.00  0.00    +0.163 HD
ATOM      6  H   UNL     1      -5.192  -2.363  -2.950  0.00  0.00    +0.159 HD
ATOM      7  H   UNL     1      -5.983  -3.229  -4.213  0.00  0.00    +0.159 HD
ATOM      8  H   UNL     1      -6.329  -4.399  -0.304  0.00  0.00    +0.159 HD
ATOM      9  H   UNL     1      -5.389  -3.026  -0.740  0.00  0.00    +0.159 HD
ENDROOT
BRANCH   1  10
ATOM     10  C   UNL     1      -7.634  -6.002  -1.827  0.00  0.00    +0.151 C 
BRANCH  10  11
ATOM     11  C   UNL     1      -7.381  -7.364  -2.413  0.00  0.00    -0.028 A 
ATOM     12  C   UNL     1      -8.382  -8.346  -2.390  0.00  0.00    +0.005 A 
ATOM     13  C   UNL     1      -6.144  -7.677  -2.996  0.00  0.00    +0.005 A 
ATOM     14  C   UNL     1      -8.158  -9.601  -2.961  0.00  0.00    +0.000 A 
ATOM     15  C   UNL     1      -5.923  -8.932  -3.564  0.00  0.00    +0.000 A 
ATOM     16  C   UNL     1      -6.931  -9.893  -3.548  0.00  0.00    +0.000 A 
ENDBRANCH  10  11
ENDBRANCH   1  10
TORSDOF 2
ENDMDL
MODEL 4
REMARK VINA RESULT:    -5.842      3.408      4.652
REMARK INTER + INTRA:          -6.667
REMARK INTER:                  -6.551
REMARK INTRA:                  -0.115
REMARK UNBOUND:                -0.142
REMARK  Name = 1550473
REMARK  2 active torsions:
REMARK  status: ('A' for Active; 'I' for Inactive)
REMARK    1  A    between atoms: N_1  and  C_4
REMARK    2  A    between atoms: C_4  and  C_5
REMARK                            x       y       z     vdW  Elec       q    Type
REMARK                         _______ _______ _______ _____ _____    ______ ____
ROOT
ATOM      1  N   UNL     1      -3.767  -3.549  -2.897  0.00  0.00    -0.354 N 
ATOM      2  N   UNL     1      -2.483  -1.680  -2.425  0.00  0.00    -0.372 N 
ATOM      3  N   UNL     1      -2.476  -2.520  -4.560  0.00  0.00    -0.372 N 
ATOM      4  C   UNL     1      -2.916  -2.596  -3.300  0.00  0.00    +0.166 C 
ATOM      5  H   UNL     1      -4.039  -3.570  -1.921  0.00  0.00    +0.163 HD
ATOM      6  H   UNL     1      -1.844  -0.947  -2.700  0.00  0.00    +0.159 HD
ATOM      7  H   UNL     1      -2.793  -1.676  -1.460  0.00  0.00    +0.159 HD
ATOM      8  H   UNL     1      -2.761  -3.184  -5.267  0.00  0.00    +0.159 HD
ATOM      9  H   UNL     1      -1.827  -1.800  -4.852  0.00  0.00    +0.159 HD
ENDROOT
BRANCH   1  10
ATOM     10  C   UNL     1      -4.340  -4.561  -3.782  0.00  0.00    +0.151 C 
BRANCH  10  11
ATOM     11  C   UNL     1      -5.590  -5.113  -3.154  0.00  0.00    -0.028 A 
ATOM     12  C   UNL     1      -6.563  -4.251  -2.628  0.00  0.00    +0.005 A 
ATOM     13  C   UNL     1      -5.810  -6.497  -3.087  0.00  0.00    +0.005 A 
ATOM     14  C   UNL     1      -7.738  -4.762  -2.071  0.00  0.00    +0.000 A 
ATOM     15  C   UNL     1      -6.983  -7.004  -2.529  0.00  0.00    +0.000 A 
ATOM     16  C   UNL     1      -7.948  -6.136  -2.023  0.00  0.00    +0.000 A 
ENDBRANCH  10  11
ENDBRANCH   1  10
TORSDOF 2
ENDMDL
MODEL 5
REMARK VINA RESULT:    -5.593      2.645      3.595
REMARK INTER + INTRA:          -6.389
REMARK INTER:                  -6.227
REMARK INTRA:                  -0.162
REMARK UNBOUND:                -0.142
REMARK  Name = 1550473
REMARK  2 active torsions:
REMARK  status: ('A' for Active; 'I' for Inactive)
REMARK    1  A    between atoms: N_1  and  C_4
REMARK    2  A    between atoms: C_4  and  C_5
REMARK                            x       y       z     vdW  Elec       q    Type
REMARK                         _______ _______ _______ _____ _____    ______ ____
ROOT
ATOM      1  N   UNL     1      -4.469  -4.112  -2.061  0.00  0.00    -0.354 N 
ATOM      2  N   UNL     1      -2.689  -3.406  -3.363  0.00  0.00    -0.372 N 
ATOM      3  N   UNL     1      -4.809  -3.311  -4.236  0.00  0.00    -0.372 N 
ATOM      4  C   UNL     1      -4.003  -3.614  -3.213  0.00  0.00    +0.166 C 
ATOM      5  H   UNL     1      -3.802  -4.350  -1.335  0.00  0.00    +0.163 HD
ATOM      6  H   UNL     1      -2.308  -3.028  -4.221  0.00  0.00    +0.159 HD
ATOM      7  H   UNL     1      -2.030  -3.601  -2.619  0.00  0.00    +0.159 HD
ATOM      8  H   UNL     1      -5.809  -3.450  -4.189  0.00  0.00    +0.159 HD
ATOM      9  H   UNL     1      -4.445  -2.943  -5.107  0.00  0.00    +0.159 HD
ENDROOT
BRANCH   1  10
ATOM     10  C   UNL     1      -5.886  -4.326  -1.776  0.00  0.00    +0.151 C 
BRANCH  10  11
ATOM     11  C   UNL     1      -6.178  -5.801  -1.815  0.00  0.00    -0.028 A 
ATOM     12  C   UNL     1      -7.331  -6.282  -2.454  0.00  0.00    +0.005 A 
ATOM     13  C   UNL     1      -5.304  -6.723  -1.220  0.00  0.00    +0.005 A 
ATOM     14  C   UNL     1      -7.587  -7.654  -2.516  0.00  0.00    +0.000 A 
ATOM     15  C   UNL     1      -5.563  -8.092  -1.284  0.00  0.00    +0.000 A 
ATOM     16  C   UNL     1      -6.704  -8.557  -1.934  0.00  0.00    +0.000 A 
ENDBRANCH  10  11
ENDBRANCH   1  10
TORSDOF 2
ENDMDL
MODEL 6
REMARK VINA RESULT:    -5.259      5.807      7.124
REMARK INTER + INTRA:          -6.016
REMARK INTER:                  -5.903
REMARK INTRA:                  -0.114
REMARK UNBOUND:                -0.142
REMARK  Name = 1550473
REMARK  2 active torsions:
REMARK  status: ('A' for Active; 'I' for Inactive)
REMARK    1  A    between atoms: N_1  and  C_4
REMARK    2  A    between atoms: C_4  and  C_5
REMARK                            x       y       z     vdW  Elec       q    Type
REMARK                         _______ _______ _______ _____ _____    ______ ____
ROOT
ATOM      1  N   UNL     1      -2.456  -1.902  -5.384  0.00  0.00    -0.354 N 
ATOM      2  N   UNL     1      -1.159  -1.806  -7.300  0.00  0.00    -0.372 N 
ATOM      3  N   UNL     1      -0.485  -0.635  -5.445  0.00  0.00    -0.372 N 
ATOM      4  C   UNL     1      -1.374  -1.447  -6.029  0.00  0.00    +0.166 C 
ATOM      5  H   UNL     1      -3.107  -2.490  -5.892  0.00  0.00    +0.163 HD
ATOM      6  H   UNL     1      -0.349  -1.481  -7.811  0.00  0.00    +0.159 HD
ATOM      7  H   UNL     1      -1.787  -2.431  -7.791  0.00  0.00    +0.159 HD
ATOM      8  H   UNL     1      -0.593  -0.322  -4.490  0.00  0.00    +0.159 HD
ATOM      9  H   UNL     1       0.325  -0.290  -5.944  0.00  0.00    +0.159 HD
ENDROOT
BRANCH   1  10
ATOM     10  C   UNL     1      -2.754  -1.614  -3.982  0.00  0.00    +0.151 C 
BRANCH  10  11
ATOM     11  C   UNL     1      -3.443  -2.803  -3.372  0.00  0.00    -0.028 A 
ATOM     12  C   UNL     1      -3.108  -3.235  -2.080  0.00  0.00    +0.005 A 
ATOM     13  C   UNL     1      -4.437  -3.498  -4.078  0.00  0.00    +0.005 A 
ATOM     14  C   UNL     1      -3.769  -4.321  -1.501  0.00  0.00    +0.000 A 
ATOM     15  C   UNL     1      -5.094  -4.583  -3.496  0.00  0.00    +0.000 A 
ATOM     16  C   UNL     1      -4.762  -4.992  -2.208  0.00  0.00    +0.000 A 
ENDBRANCH  10  11
ENDBRANCH   1  10
TORSDOF 2
ENDMDL
MODEL 7
REMARK VINA RESULT:    -5.221     14.004     15.800
REMARK INTER + INTRA:          -5.974
REMARK INTER:                  -5.838
REMARK INTRA:                  -0.135
REMARK UNBOUND:                -0.142
REMARK  Name = 1550473
REMARK  2 active torsions:
REMARK  status: ('A' for Active; 'I' for Inactive)
REMARK    1  A    between atoms: N_1  and  C_4
REMARK    2  A    between atoms: C_4  and  C_5
REMARK                            x       y       z     vdW  Elec       q    Type
REMARK                         _______ _______ _______ _____ _____    ______ ____
ROOT
ATOM      1  N   UNL     1      -0.935   8.620   1.330  0.00  0.00    -0.354 N 
ATOM      2  N   UNL     1      -0.897  10.907   0.967  0.00  0.00    -0.372 N 
ATOM      3  N   UNL     1      -1.921  10.100   2.855  0.00  0.00    -0.372 N 
ATOM      4  C   UNL     1      -1.253   9.860   1.722  0.00  0.00    +0.166 C 
ATOM      5  H   UNL     1      -0.454   8.503   0.445  0.00  0.00    +0.163 HD
ATOM      6  H   UNL     1      -1.120  11.855   1.239  0.00  0.00    +0.159 HD
ATOM      7  H   UNL     1      -0.376  10.790   0.106  0.00  0.00    +0.159 HD
ATOM      8  H   UNL     1      -2.223   9.353   3.467  0.00  0.00    +0.159 HD
ATOM      9  H   UNL     1      -2.164  11.041   3.139  0.00  0.00    +0.159 HD
ENDROOT
BRANCH   1  10
ATOM     10  C   UNL     1      -1.228   7.416   2.106  0.00  0.00    +0.151 C 
BRANCH  10  11
ATOM     11  C   UNL     1      -1.568   6.295   1.163  0.00  0.00    -0.028 A 
ATOM     12  C   UNL     1      -1.762   6.547  -0.203  0.00  0.00    +0.005 A 
ATOM     13  C   UNL     1      -1.693   4.977   1.629  0.00  0.00    +0.005 A 
ATOM     14  C   UNL     1      -2.049   5.501  -1.084  0.00  0.00    +0.000 A 
ATOM     15  C   UNL     1      -1.980   3.936   0.747  0.00  0.00    +0.000 A 
ATOM     16  C   UNL     1      -2.155   4.198  -0.610  0.00  0.00    +0.000 A 
ENDBRANCH  10  11
ENDBRANCH   1  10
TORSDOF 2
ENDMDL
MODEL 8
REMARK VINA RESULT:    -4.943     29.328     30.331
REMARK INTER + INTRA:          -5.664
REMARK INTER:                  -5.548
REMARK INTRA:                  -0.116
REMARK UNBOUND:                -0.142
REMARK  Name = 1550473
REMARK  2 active torsions:
REMARK  status: ('A' for Active; 'I' for Inactive)
REMARK    1  A    between atoms: N_1  and  C_4
REMARK    2  A    between atoms: C_4  and  C_5
REMARK                            x       y       z     vdW  Elec       q    Type
REMARK                         _______ _______ _______ _____ _____    ______ ____
ROOT
ATOM      1  N   UNL     1       0.574  15.436  16.271  0.00  0.00    -0.354 N 
ATOM      2  N   UNL     1       2.721  16.263  16.008  0.00  0.00    -0.372 N 
ATOM      3  N   UNL     1       2.014  14.559  14.643  0.00  0.00    -0.372 N 
ATOM      4  C   UNL     1       1.756  15.412  15.641  0.00  0.00    +0.166 C 
ATOM      5  H   UNL     1       0.451  16.086  17.039  0.00  0.00    +0.163 HD
ATOM      6  H   UNL     1       3.622  16.270  15.548  0.00  0.00    +0.159 HD
ATOM      7  H   UNL     1       2.580  16.942  16.745  0.00  0.00    +0.159 HD
ATOM      8  H   UNL     1       1.330  13.887  14.323  0.00  0.00    +0.159 HD
ATOM      9  H   UNL     1       2.914  14.543  14.179  0.00  0.00    +0.159 HD
ENDROOT
BRANCH   1  10
ATOM     10  C   UNL     1      -0.561  14.588  15.912  0.00  0.00    +0.151 C 
BRANCH  10  11
ATOM     11  C   UNL     1      -1.437  14.403  17.121  0.00  0.00    -0.028 A 
ATOM     12  C   UNL     1      -0.901  13.912  18.320  0.00  0.00    +0.005 A 
ATOM     13  C   UNL     1      -2.803  14.721  17.074  0.00  0.00    +0.005 A 
ATOM     14  C   UNL     1      -1.707  13.768  19.452  0.00  0.00    +0.000 A 
ATOM     15  C   UNL     1      -3.605  14.575  18.206  0.00  0.00    +0.000 A 
ATOM     16  C   UNL     1      -3.056  14.101  19.395  0.00  0.00    +0.000 A 
ENDBRANCH  10  11
ENDBRANCH   1  10
TORSDOF 2
ENDMDL
MODEL 9
REMARK VINA RESULT:    -4.913     13.968     15.934
REMARK INTER + INTRA:          -5.630
REMARK INTER:                  -5.537
REMARK INTRA:                  -0.093
REMARK UNBOUND:                -0.142
REMARK  Name = 1550473
REMARK  2 active torsions:
REMARK  status: ('A' for Active; 'I' for Inactive)
REMARK    1  A    between atoms: N_1  and  C_4
REMARK    2  A    between atoms: C_4  and  C_5
REMARK                            x       y       z     vdW  Elec       q    Type
REMARK                         _______ _______ _______ _____ _____    ______ ____
ROOT
ATOM      1  N   UNL     1       0.445   5.035  -1.037  0.00  0.00    -0.354 N 
ATOM      2  N   UNL     1       2.169   4.125  -2.288  0.00  0.00    -0.372 N 
ATOM      3  N   UNL     1       0.017   3.931  -3.060  0.00  0.00    -0.372 N 
ATOM      4  C   UNL     1       0.863   4.368  -2.122  0.00  0.00    +0.166 C 
ATOM      5  H   UNL     1       1.134   5.314  -0.348  0.00  0.00    +0.163 HD
ATOM      6  H   UNL     1       2.514   3.627  -3.097  0.00  0.00    +0.159 HD
ATOM      7  H   UNL     1       2.860   4.445  -1.620  0.00  0.00    +0.159 HD
ATOM      8  H   UNL     1      -0.982   4.077  -2.990  0.00  0.00    +0.159 HD
ATOM      9  H   UNL     1       0.342   3.421  -3.871  0.00  0.00    +0.159 HD
ENDROOT
BRANCH   1  10
ATOM     10  C   UNL     1      -0.949   5.398  -0.788  0.00  0.00    +0.151 C 
BRANCH  10  11
ATOM     11  C   UNL     1      -0.995   6.487   0.248  0.00  0.00    -0.028 A 
ATOM     12  C   UNL     1      -0.984   7.836  -0.136  0.00  0.00    +0.005 A 
ATOM     13  C   UNL     1      -1.056   6.177   1.615  0.00  0.00    +0.005 A 
ATOM     14  C   UNL     1      -1.057   8.848   0.825  0.00  0.00    +0.000 A 
ATOM     15  C   UNL     1      -1.128   7.189   2.571  0.00  0.00    +0.000 A 
ATOM     16  C   UNL     1      -1.131   8.525   2.175  0.00  0.00    +0.000 A 
ENDBRANCH  10  11
ENDBRANCH   1  10
TORSDOF 2
ENDMDL
