MODEL 1
REMARK VINA RESULT:    -5.132      0.000      0.000
REMARK INTER + INTRA:          -5.844
REMARK INTER:                  -5.732
REMARK INTRA:                  -0.112
REMARK UNBOUND:                -0.112
REMARK  Name = 1550473
REMARK  2 active torsions:
REMARK  status: ('A' for Active; 'I' for Inactive)
REMARK    1  A    between atoms: N_1  and  C_4
REMARK    2  A    between atoms: C_4  and  C_5
REMARK                            x       y       z     vdW  Elec       q    Type
REMARK                         _______ _______ _______ _____ _____    ______ ____
ROOT
ATOM      1  N   UNL     1      -2.034  -2.047  -6.913  0.00  0.00    -0.354 N 
ATOM      2  N   UNL     1      -2.682  -1.013  -4.945  0.00  0.00    -0.372 N 
ATOM      3  N   UNL     1      -2.779  -3.301  -5.079  0.00  0.00    -0.372 N 
ATOM      4  C   UNL     1      -2.495  -2.130  -5.658  0.00  0.00    +0.166 C 
ATOM      5  H   UNL     1      -1.866  -1.128  -7.305  0.00  0.00    +0.163 HD
ATOM      6  H   UNL     1      -3.025  -1.044  -3.994  0.00  0.00    +0.159 HD
ATOM      7  H   UNL     1      -2.469  -0.097  -5.323  0.00  0.00    +0.159 HD
ATOM      8  H   UNL     1      -2.666  -4.181  -5.565  0.00  0.00    +0.159 HD
ATOM      9  H   UNL     1      -3.135  -3.352  -4.132  0.00  0.00    +0.159 HD
ENDROOT
BRANCH   1  10
ATOM     10  C   UNL     1      -1.745  -3.206  -7.756  0.00  0.00    +0.151 C 
BRANCH  10  11
ATOM     11  C   UNL     1      -1.750  -2.779  -9.197  0.00  0.00    -0.028 A 
ATOM     12  C   UNL     1      -1.206  -1.542  -9.575  0.00  0.00    +0.005 A 
ATOM     13  C   UNL     1      -2.291  -3.608 -10.192  0.00  0.00    +0.005 A 
ATOM     14  C   UNL     1      -1.183  -1.157 -10.918  0.00  0.00    +0.000 A 
ATOM     15  C   UNL     1      -2.266  -3.220 -11.531  0.00  0.00    +0.000 A 
ATOM     16  C   UNL     1      -1.710  -1.996 -11.894  0.00  0.00    +0.000 A 
ENDBRANCH  10  11
ENDBRANCH   1  10
TORSDOF 2
ENDMDL
MODEL 2
REMARK VINA RESULT:    -5.067      0.760      1.856
REMARK INTER + INTRA:          -5.771
REMARK INTER:                  -5.636
REMARK INTRA:                  -0.135
REMARK UNBOUND:                -0.112
REMARK  Name = 1550473
REMARK  2 active torsions:
REMARK  status: ('A' for Active; 'I' for Inactive)
REMARK    1  A    between atoms: N_1  and  C_4
REMARK    2  A    between atoms: C_4  and  C_5
REMARK                            x       y       z     vdW  Elec       q    Type
REMARK                         _______ _______ _______ _____ _____    ______ ____
ROOT
ATOM      1  N   UNL     1      -1.619  -2.581  -6.883  0.00  0.00    -0.354 N 
ATOM      2  N   UNL     1      -2.763  -3.432  -5.058  0.00  0.00    -0.372 N 
ATOM      3  N   UNL     1      -3.181  -1.276  -5.722  0.00  0.00    -0.372 N 
ATOM      4  C   UNL     1      -2.515  -2.421  -5.900  0.00  0.00    +0.166 C 
ATOM      5  H   UNL     1      -1.125  -3.464  -6.945  0.00  0.00    +0.163 HD
ATOM      6  H   UNL     1      -3.436  -3.342  -4.309  0.00  0.00    +0.159 HD
ATOM      7  H   UNL     1      -2.302  -4.328  -5.151  0.00  0.00    +0.159 HD
ATOM      8  H   UNL     1      -3.035  -0.473  -6.320  0.00  0.00    +0.159 HD
ATOM      9  H   UNL     1      -3.850  -1.162  -4.971  0.00  0.00    +0.159 HD
ENDROOT
BRANCH   1  10
ATOM     10  C   UNL     1      -1.314  -1.561  -7.885  0.00  0.00    +0.151 C 
BRANCH  10  11
ATOM     11  C   UNL     1      -1.622  -2.108  -9.252  0.00  0.00    -0.028 A 
ATOM     12  C   UNL     1      -2.143  -3.402  -9.400  0.00  0.00    +0.005 A 
ATOM     13  C   UNL     1      -1.400  -1.335 -10.402  0.00  0.00    +0.005 A 
ATOM     14  C   UNL     1      -2.457  -3.899 -10.667  0.00  0.00    +0.000 A 
ATOM     15  C   UNL     1      -1.714  -1.836 -11.665  0.00  0.00    +0.000 A 
ATOM     16  C   UNL     1      -2.245  -3.117 -11.797  0.00  0.00    +0.000 A 
ENDBRANCH  10  11
ENDBRANCH   1  10
TORSDOF 2
ENDMDL
MODEL 3
REMARK VINA RESULT:    -4.951     14.206     15.236
REMARK INTER + INTRA:          -5.642
REMARK INTER:                  -5.487
REMARK INTRA:                  -0.156
REMARK UNBOUND:                -0.112
REMARK  Name = 1550473
REMARK  2 active torsions:
REMARK  status: ('A' for Active; 'I' for Inactive)
REMARK    1  A    between atoms: N_1  and  C_4
REMARK    2  A    between atoms: C_4  and  C_5
REMARK                            x       y       z     vdW  Elec       q    Type
REMARK                         _______ _______ _______ _____ _____    ______ ____
ROOT
ATOM      1  N   UNL     1      -5.816 -10.112   3.857  0.00  0.00    -0.354 N 
ATOM      2  N   UNL     1      -4.339 -10.931   2.272  0.00  0.00    -0.372 N 
ATOM      3  N   UNL     1      -6.398 -11.921   2.486  0.00  0.00    -0.372 N 
ATOM      4  C   UNL     1      -5.529 -10.985   2.882  0.00  0.00    +0.166 C 
ATOM      5  H   UNL     1      -5.103  -9.445   4.131  0.00  0.00    +0.163 HD
ATOM      6  H   UNL     1      -4.095 -11.574   1.531  0.00  0.00    +0.159 HD
ATOM      7  H   UNL     1      -3.646 -10.234   2.517  0.00  0.00    +0.159 HD
ATOM      8  H   UNL     1      -7.310 -12.019   2.910  0.00  0.00    +0.159 HD
ATOM      9  H   UNL     1      -6.168 -12.582   1.754  0.00  0.00    +0.159 HD
ENDROOT
BRANCH   1  10
ATOM     10  C   UNL     1      -7.103 -10.051   4.547  0.00  0.00    +0.151 C 
BRANCH  10  11
ATOM     11  C   UNL     1      -7.819  -8.792   4.142  0.00  0.00    -0.028 A 
ATOM     12  C   UNL     1      -7.096  -7.664   3.727  0.00  0.00    +0.005 A 
ATOM     13  C   UNL     1      -9.220  -8.723   4.164  0.00  0.00    +0.005 A 
ATOM     14  C   UNL     1      -7.761  -6.504   3.322  0.00  0.00    +0.000 A 
ATOM     15  C   UNL     1      -9.881  -7.563   3.760  0.00  0.00    +0.000 A 
ATOM     16  C   UNL     1      -9.151  -6.455   3.336  0.00  0.00    +0.000 A 
ENDBRANCH  10  11
ENDBRANCH   1  10
TORSDOF 2
ENDMDL
MODEL 4
REMARK VINA RESULT:    -4.884     14.248     15.287
REMARK INTER + INTRA:          -5.567
REMARK INTER:                  -5.434
REMARK INTRA:                  -0.133
REMARK UNBOUND:                -0.112
REMARK  Name = 1550473
REMARK  2 active torsions:
REMARK  status: ('A' for Active; 'I' for Inactive)
REMARK    1  A    between atoms: N_1  and  C_4
REMARK    2  A    between atoms: C_4  and  C_5
REMARK                            x       y       z     vdW  Elec       q    Type
REMARK                         _______ _______ _______ _____ _____    ______ ____
ROOT
ATOM      1  N   UNL     1      -6.667 -10.187   3.995  0.00  0.00    -0.354 N 
ATOM      2  N   UNL     1      -6.100 -12.253   3.115  0.00  0.00    -0.372 N 
ATOM      3  N   UNL     1      -4.717 -10.464   2.725  0.00  0.00    -0.372 N 
ATOM      4  C   UNL     1      -5.830 -10.953   3.282  0.00  0.00    +0.166 C 
ATOM      5  H   UNL     1      -7.509 -10.612   4.366  0.00  0.00    +0.163 HD
ATOM      6  H   UNL     1      -5.485 -12.857   2.585  0.00  0.00    +0.159 HD
ATOM      7  H   UNL     1      -6.918 -12.685   3.526  0.00  0.00    +0.159 HD
ATOM      8  H   UNL     1      -4.459  -9.490   2.809  0.00  0.00    +0.159 HD
ATOM      9  H   UNL     1      -4.095 -11.049   2.181  0.00  0.00    +0.159 HD
ENDROOT
BRANCH   1  10
ATOM     10  C   UNL     1      -6.437  -8.773   4.282  0.00  0.00    +0.151 C 
BRANCH  10  11
ATOM     11  C   UNL     1      -7.673  -7.992   3.928  0.00  0.00    -0.028 A 
ATOM     12  C   UNL     1      -8.946  -8.545   4.131  0.00  0.00    +0.005 A 
ATOM     13  C   UNL     1      -7.578  -6.698   3.395  0.00  0.00    +0.005 A 
ATOM     14  C   UNL     1     -10.095  -7.809   3.830  0.00  0.00    +0.000 A 
ATOM     15  C   UNL     1      -8.728  -5.967   3.095  0.00  0.00    +0.000 A 
ATOM     16  C   UNL     1      -9.986  -6.522   3.315  0.00  0.00    +0.000 A 
ENDBRANCH  10  11
ENDBRANCH   1  10
TORSDOF 2
ENDMDL
MODEL 5
REMARK VINA RESULT:    -4.796      3.310      4.118
REMARK INTER + INTRA:          -5.469
REMARK INTER:                  -5.334
REMARK INTRA:                  -0.135
REMARK UNBOUND:                -0.112
REMARK  Name = 1550473
REMARK  2 active torsions:
REMARK  status: ('A' for Active; 'I' for Inactive)
REMARK    1  A    between atoms: N_1  and  C_4
REMARK    2  A    between atoms: C_4  and  C_5
REMARK                            x       y       z     vdW  Elec       q    Type
REMARK                         _______ _______ _______ _____ _____    ______ ____
ROOT
ATOM      1  N   UNL     1      -1.425  -3.785  -7.043  0.00  0.00    -0.354 N 
ATOM      2  N   UNL     1      -3.416  -2.615  -7.210  0.00  0.00    -0.372 N 
ATOM      3  N   UNL     1      -2.635  -3.184  -5.129  0.00  0.00    -0.372 N 
ATOM      4  C   UNL     1      -2.479  -3.203  -6.457  0.00  0.00    +0.166 C 
ATOM      5  H   UNL     1      -1.380  -3.792  -8.055  0.00  0.00    +0.163 HD
ATOM      6  H   UNL     1      -4.221  -2.164  -6.795  0.00  0.00    +0.159 HD
ATOM      7  H   UNL     1      -3.346  -2.583  -8.220  0.00  0.00    +0.159 HD
ATOM      8  H   UNL     1      -1.967  -3.615  -4.505  0.00  0.00    +0.159 HD
ATOM      9  H   UNL     1      -3.440  -2.748  -4.696  0.00  0.00    +0.159 HD
ENDROOT
BRANCH   1  10
ATOM     10  C   UNL     1      -0.322  -4.406  -6.311  0.00  0.00    +0.151 C 
BRANCH  10  11
ATOM     11  C   UNL     1       0.979  -4.009  -6.953  0.00  0.00    -0.028 A 
ATOM     12  C   UNL     1       1.181  -2.694  -7.396  0.00  0.00    +0.005 A 
ATOM     13  C   UNL     1       2.014  -4.942  -7.116  0.00  0.00    +0.005 A 
ATOM     14  C   UNL     1       2.400  -2.317  -7.965  0.00  0.00    +0.000 A 
ATOM     15  C   UNL     1       3.229  -4.562  -7.686  0.00  0.00    +0.000 A 
ATOM     16  C   UNL     1       3.423  -3.249  -8.108  0.00  0.00    +0.000 A 
ENDBRANCH  10  11
ENDBRANCH   1  10
TORSDOF 2
ENDMDL
MODEL 6
REMARK VINA RESULT:    -4.643      1.713      2.381
REMARK INTER + INTRA:          -5.298
REMARK INTER:                  -5.180
REMARK INTRA:                  -0.118
REMARK UNBOUND:                -0.112
REMARK  Name = 1550473
REMARK  2 active torsions:
REMARK  status: ('A' for Active; 'I' for Inactive)
REMARK    1  A    between atoms: N_1  and  C_4
REMARK    2  A    between atoms: C_4  and  C_5
REMARK                            x       y       z     vdW  Elec       q    Type
REMARK                         _______ _______ _______ _____ _____    ______ ____
ROOT
ATOM      1  N   UNL     1      -0.727  -3.175  -7.068  0.00  0.00    -0.354 N 
ATOM      2  N   UNL     1       0.935  -3.331  -5.463  0.00  0.00    -0.372 N 
ATOM      3  N   UNL     1      -0.580  -5.043  -5.660  0.00  0.00    -0.372 N 
ATOM      4  C   UNL     1      -0.137  -3.851  -6.074  0.00  0.00    +0.166 C 
ATOM      5  H   UNL     1      -0.361  -2.263  -7.314  0.00  0.00    +0.163 HD
ATOM      6  H   UNL     1       1.404  -3.820  -4.712  0.00  0.00    +0.159 HD
ATOM      7  H   UNL     1       1.327  -2.440  -5.742  0.00  0.00    +0.159 HD
ATOM      8  H   UNL     1      -1.388  -5.487  -6.076  0.00  0.00    +0.159 HD
ATOM      9  H   UNL     1      -0.131  -5.542  -4.902  0.00  0.00    +0.159 HD
ENDROOT
BRANCH   1  10
ATOM     10  C   UNL     1      -1.867  -3.677  -7.833  0.00  0.00    +0.151 C 
BRANCH  10  11
ATOM     11  C   UNL     1      -1.822  -3.096  -9.220  0.00  0.00    -0.028 A 
ATOM     12  C   UNL     1      -2.325  -3.819 -10.311  0.00  0.00    +0.005 A 
ATOM     13  C   UNL     1      -1.281  -1.821  -9.448  0.00  0.00    +0.005 A 
ATOM     14  C   UNL     1      -2.310  -3.268 -11.595  0.00  0.00    +0.000 A 
ATOM     15  C   UNL     1      -1.268  -1.275 -10.731  0.00  0.00    +0.000 A 
ATOM     16  C   UNL     1      -1.784  -1.997 -11.804  0.00  0.00    +0.000 A 
ENDBRANCH  10  11
ENDBRANCH   1  10
TORSDOF 2
ENDMDL
MODEL 7
REMARK VINA RESULT:    -4.635      2.300      3.181
REMARK INTER + INTRA:          -5.289
REMARK INTER:                  -5.119
REMARK INTRA:                  -0.171
REMARK UNBOUND:                -0.112
REMARK  Name = 1550473
REMARK  2 active torsions:
REMARK  status: ('A' for Active; 'I' for Inactive)
REMARK    1  A    between atoms: N_1  and  C_4
REMARK    2  A    between atoms: C_4  and  C_5
REMARK                            x       y       z     vdW  Elec       q    Type
REMARK                         _______ _______ _______ _____ _____    ______ ____
ROOT
ATOM      1  N   UNL     1      -2.041  -1.281  -6.848  0.00  0.00    -0.354 N 
ATOM      2  N   UNL     1      -2.820  -0.984  -4.687  0.00  0.00    -0.372 N 
ATOM      3  N   UNL     1      -2.715  -3.109  -5.546  0.00  0.00    -0.372 N 
ATOM      4  C   UNL     1      -2.521  -1.796  -5.708  0.00  0.00    +0.166 C 
ATOM      5  H   UNL     1      -1.945  -0.274  -6.919  0.00  0.00    +0.163 HD
ATOM      6  H   UNL     1      -3.180  -1.344  -3.814  0.00  0.00    +0.159 HD
ATOM      7  H   UNL     1      -2.679   0.018  -4.745  0.00  0.00    +0.159 HD
ATOM      8  H   UNL     1      -2.515  -3.775  -6.280  0.00  0.00    +0.159 HD
ATOM      9  H   UNL     1      -3.086  -3.487  -4.683  0.00  0.00    +0.159 HD
ENDROOT
BRANCH   1  10
ATOM     10  C   UNL     1      -1.634  -2.083  -8.001  0.00  0.00    +0.151 C 
BRANCH  10  11
ATOM     11  C   UNL     1      -0.133  -2.161  -8.040  0.00  0.00    -0.028 A 
ATOM     12  C   UNL     1       0.606  -1.256  -8.816  0.00  0.00    +0.005 A 
ATOM     13  C   UNL     1       0.556  -3.132  -7.298  0.00  0.00    +0.005 A 
ATOM     14  C   UNL     1       2.002  -1.308  -8.829  0.00  0.00    +0.000 A 
ATOM     15  C   UNL     1       1.950  -3.182  -7.315  0.00  0.00    +0.000 A 
ATOM     16  C   UNL     1       2.673  -2.268  -8.078  0.00  0.00    +0.000 A 
ENDBRANCH  10  11
ENDBRANCH   1  10
TORSDOF 2
ENDMDL
MODEL 8
REMARK VINA RESULT:    -4.321     14.941     16.135
REMARK INTER + INTRA:          -4.939
REMARK INTER:                  -4.787
REMARK INTRA:                  -0.152
REMARK UNBOUND:                -0.112
REMARK  Name = 1550473
REMARK  2 active torsions:
REMARK  status: ('A' for Active; 'I' for Inactive)
REMARK    1  A    between atoms: N_1  and  C_4
REMARK    2  A    between atoms: C_4  and  C_5
REMARK                            x       y       z     vdW  Elec       q    Type
REMARK                         _______ _______ _______ _____ _____    ______ ____
ROOT
ATOM      1  N   UNL     1      -6.898  -9.305   3.475  0.00  0.00    -0.354 N 
ATOM      2  N   UNL     1      -6.895  -7.009   3.779  0.00  0.00    -0.372 N 
ATOM      3  N   UNL     1      -8.011  -8.326   5.289  0.00  0.00    -0.372 N 
ATOM      4  C   UNL     1      -7.270  -8.229   4.181  0.00  0.00    +0.166 C 
ATOM      5  H   UNL     1      -6.361  -9.162   2.627  0.00  0.00    +0.163 HD
ATOM      6  H   UNL     1      -7.157  -6.179   4.293  0.00  0.00    +0.159 HD
ATOM      7  H   UNL     1      -6.320  -6.872   2.956  0.00  0.00    +0.159 HD
ATOM      8  H   UNL     1      -8.332  -9.218   5.643  0.00  0.00    +0.159 HD
ATOM      9  H   UNL     1      -8.294  -7.506   5.812  0.00  0.00    +0.159 HD
ENDROOT
BRANCH   1  10
ATOM     10  C   UNL     1      -7.208 -10.681   3.856  0.00  0.00    +0.151 C 
BRANCH  10  11
ATOM     11  C   UNL     1      -5.933 -11.387   4.228  0.00  0.00    -0.028 A 
ATOM     12  C   UNL     1      -4.868 -11.459   3.319  0.00  0.00    +0.005 A 
ATOM     13  C   UNL     1      -5.783 -11.982   5.490  0.00  0.00    +0.005 A 
ATOM     14  C   UNL     1      -3.673 -12.088   3.675  0.00  0.00    +0.000 A 
ATOM     15  C   UNL     1      -4.588 -12.610   5.841  0.00  0.00    +0.000 A 
ATOM     16  C   UNL     1      -3.532 -12.661   4.934  0.00  0.00    +0.000 A 
ENDBRANCH  10  11
ENDBRANCH   1  10
TORSDOF 2
ENDMDL
MODEL 9
REMARK VINA RESULT:    -4.253     11.742     12.667
REMARK INTER + INTRA:          -4.862
REMARK INTER:                  -4.728
REMARK INTRA:                  -0.135
REMARK UNBOUND:                -0.112
REMARK  Name = 1550473
REMARK  2 active torsions:
REMARK  status: ('A' for Active; 'I' for Inactive)
REMARK    1  A    between atoms: N_1  and  C_4
REMARK    2  A    between atoms: C_4  and  C_5
REMARK                            x       y       z     vdW  Elec       q    Type
REMARK                         _______ _______ _______ _____ _____    ______ ____
ROOT
ATOM      1  N   UNL     1       2.969 -13.983  -9.027  0.00  0.00    -0.354 N 
ATOM      2  N   UNL     1       1.174 -14.627  -7.712  0.00  0.00    -0.372 N 
ATOM      3  N   UNL     1       1.517 -12.392  -8.103  0.00  0.00    -0.372 N 
ATOM      4  C   UNL     1       1.898 -13.660  -8.289  0.00  0.00    +0.166 C 
ATOM      5  H   UNL     1       3.223 -14.961  -9.105  0.00  0.00    +0.163 HD
ATOM      6  H   UNL     1       0.359 -14.414  -7.152  0.00  0.00    +0.159 HD
ATOM      7  H   UNL     1       1.403 -15.606  -7.829  0.00  0.00    +0.159 HD
ATOM      8  H   UNL     1       2.024 -11.616  -8.506  0.00  0.00    +0.159 HD
ATOM      9  H   UNL     1       0.711 -12.158  -7.536  0.00  0.00    +0.159 HD
ENDROOT
BRANCH   1  10
ATOM     10  C   UNL     1       3.793 -13.009  -9.741  0.00  0.00    +0.151 C 
BRANCH  10  11
ATOM     11  C   UNL     1       4.912 -12.560  -8.843  0.00  0.00    -0.028 A 
ATOM     12  C   UNL     1       5.308 -11.215  -8.818  0.00  0.00    +0.005 A 
ATOM     13  C   UNL     1       5.577 -13.473  -8.011  0.00  0.00    +0.005 A 
ATOM     14  C   UNL     1       6.327 -10.791  -7.961  0.00  0.00    +0.000 A 
ATOM     15  C   UNL     1       6.595 -13.047  -7.158  0.00  0.00    +0.000 A 
ATOM     16  C   UNL     1       6.968 -11.705  -7.132  0.00  0.00    +0.000 A 
ENDBRANCH  10  11
ENDBRANCH   1  10
TORSDOF 2
ENDMDL
