MODEL 1
REMARK VINA RESULT:    -7.293      0.000      0.000
REMARK INTER + INTRA:          -8.305
REMARK INTER:                  -8.146
REMARK INTRA:                  -0.159
REMARK UNBOUND:                -0.159
REMARK  Name = 1550473
REMARK  2 active torsions:
REMARK  status: ('A' for Active; 'I' for Inactive)
REMARK    1  A    between atoms: N_1  and  C_4
REMARK    2  A    between atoms: C_4  and  C_5
REMARK                            x       y       z     vdW  Elec       q    Type
REMARK                         _______ _______ _______ _____ _____    ______ ____
ROOT
ATOM      1  N   UNL     1      -3.357  -3.772  -4.691  0.00  0.00    -0.354 N 
ATOM      2  N   UNL     1      -4.036  -5.192  -2.993  0.00  0.00    -0.372 N 
ATOM      3  N   UNL     1      -2.036  -5.595  -4.043  0.00  0.00    -0.372 N 
ATOM      4  C   UNL     1      -3.136  -4.845  -3.921  0.00  0.00    +0.166 C 
ATOM      5  H   UNL     1      -4.225  -3.263  -4.570  0.00  0.00    +0.163 HD
ATOM      6  H   UNL     1      -3.895  -5.995  -2.394  0.00  0.00    +0.159 HD
ATOM      7  H   UNL     1      -4.881  -4.655  -2.842  0.00  0.00    +0.159 HD
ATOM      8  H   UNL     1      -1.321  -5.390  -4.728  0.00  0.00    +0.159 HD
ATOM      9  H   UNL     1      -1.882  -6.409  -3.461  0.00  0.00    +0.159 HD
ENDROOT
BRANCH   1  10
ATOM     10  C   UNL     1      -2.416  -3.278  -5.695  0.00  0.00    +0.151 C 
BRANCH  10  11
ATOM     11  C   UNL     1      -2.869  -3.727  -7.056  0.00  0.00    -0.028 A 
ATOM     12  C   UNL     1      -2.457  -4.965  -7.571  0.00  0.00    +0.005 A 
ATOM     13  C   UNL     1      -3.714  -2.921  -7.835  0.00  0.00    +0.005 A 
ATOM     14  C   UNL     1      -2.902  -5.396  -8.823  0.00  0.00    +0.000 A 
ATOM     15  C   UNL     1      -4.155  -3.355  -9.085  0.00  0.00    +0.000 A 
ATOM     16  C   UNL     1      -3.751  -4.593  -9.578  0.00  0.00    +0.000 A 
ENDBRANCH  10  11
ENDBRANCH   1  10
TORSDOF 2
ENDMDL
MODEL 2
REMARK VINA RESULT:    -6.355      1.967      3.193
REMARK INTER + INTRA:          -7.257
REMARK INTER:                  -7.144
REMARK INTRA:                  -0.112
REMARK UNBOUND:                -0.159
REMARK  Name = 1550473
REMARK  2 active torsions:
REMARK  status: ('A' for Active; 'I' for Inactive)
REMARK    1  A    between atoms: N_1  and  C_4
REMARK    2  A    between atoms: C_4  and  C_5
REMARK                            x       y       z     vdW  Elec       q    Type
REMARK                         _______ _______ _______ _____ _____    ______ ____
ROOT
ATOM      1  N   UNL     1      -2.792  -3.438  -6.795  0.00  0.00    -0.354 N 
ATOM      2  N   UNL     1      -3.206  -2.538  -4.702  0.00  0.00    -0.372 N 
ATOM      3  N   UNL     1      -3.569  -1.240  -6.559  0.00  0.00    -0.372 N 
ATOM      4  C   UNL     1      -3.187  -2.409  -6.034  0.00  0.00    +0.166 C 
ATOM      5  H   UNL     1      -2.486  -4.287  -6.335  0.00  0.00    +0.163 HD
ATOM      6  H   UNL     1      -3.502  -1.779  -4.102  0.00  0.00    +0.159 HD
ATOM      7  H   UNL     1      -2.943  -3.403  -4.246  0.00  0.00    +0.159 HD
ATOM      8  H   UNL     1      -3.572  -1.076  -7.557  0.00  0.00    +0.159 HD
ATOM      9  H   UNL     1      -3.858  -0.465  -5.974  0.00  0.00    +0.159 HD
ENDROOT
BRANCH   1  10
ATOM     10  C   UNL     1      -2.786  -3.419  -8.257  0.00  0.00    +0.151 C 
BRANCH  10  11
ATOM     11  C   UNL     1      -3.077  -4.803  -8.767  0.00  0.00    -0.028 A 
ATOM     12  C   UNL     1      -3.958  -4.995  -9.842  0.00  0.00    +0.005 A 
ATOM     13  C   UNL     1      -2.470  -5.926  -8.185  0.00  0.00    +0.005 A 
ATOM     14  C   UNL     1      -4.205  -6.278 -10.336  0.00  0.00    +0.000 A 
ATOM     15  C   UNL     1      -2.721  -7.206  -8.680  0.00  0.00    +0.000 A 
ATOM     16  C   UNL     1      -3.586  -7.381  -9.757  0.00  0.00    +0.000 A 
ENDBRANCH  10  11
ENDBRANCH   1  10
TORSDOF 2
ENDMDL
MODEL 3
REMARK VINA RESULT:    -5.136     13.008     14.573
REMARK INTER + INTRA:          -5.896
REMARK INTER:                  -5.767
REMARK INTRA:                  -0.129
REMARK UNBOUND:                -0.159
REMARK  Name = 1550473
REMARK  2 active torsions:
REMARK  status: ('A' for Active; 'I' for Inactive)
REMARK    1  A    between atoms: N_1  and  C_4
REMARK    2  A    between atoms: C_4  and  C_5
REMARK                            x       y       z     vdW  Elec       q    Type
REMARK                         _______ _______ _______ _____ _____    ______ ____
ROOT
ATOM      1  N   UNL     1      -0.862 -15.620  -0.738  0.00  0.00    -0.354 N 
ATOM      2  N   UNL     1      -0.967 -13.394  -0.107  0.00  0.00    -0.372 N 
ATOM      3  N   UNL     1      -1.974 -14.972   1.221  0.00  0.00    -0.372 N 
ATOM      4  C   UNL     1      -1.269 -14.678   0.123  0.00  0.00    +0.166 C 
ATOM      5  H   UNL     1      -0.357 -15.329  -1.567  0.00  0.00    +0.163 HD
ATOM      6  H   UNL     1      -1.258 -12.662   0.527  0.00  0.00    +0.159 HD
ATOM      7  H   UNL     1      -0.423 -13.111  -0.912  0.00  0.00    +0.159 HD
ATOM      8  H   UNL     1      -2.239 -15.921   1.448  0.00  0.00    +0.159 HD
ATOM      9  H   UNL     1      -2.284 -14.252   1.861  0.00  0.00    +0.159 HD
ENDROOT
BRANCH   1  10
ATOM     10  C   UNL     1      -1.092 -17.052  -0.552  0.00  0.00    +0.151 C 
BRANCH  10  11
ATOM     11  C   UNL     1       0.069 -17.814  -1.129  0.00  0.00    -0.028 A 
ATOM     12  C   UNL     1      -0.135 -19.048  -1.765  0.00  0.00    +0.005 A 
ATOM     13  C   UNL     1       1.375 -17.306  -1.048  0.00  0.00    +0.005 A 
ATOM     14  C   UNL     1       0.939 -19.742  -2.327  0.00  0.00    +0.000 A 
ATOM     15  C   UNL     1       2.444 -18.003  -1.610  0.00  0.00    +0.000 A 
ATOM     16  C   UNL     1       2.225 -19.220  -2.252  0.00  0.00    +0.000 A 
ENDBRANCH  10  11
ENDBRANCH   1  10
TORSDOF 2
ENDMDL
MODEL 4
REMARK VINA RESULT:    -5.044     12.482     13.675
REMARK INTER + INTRA:          -5.793
REMARK INTER:                  -5.631
REMARK INTRA:                  -0.162
REMARK UNBOUND:                -0.159
REMARK  Name = 1550473
REMARK  2 active torsions:
REMARK  status: ('A' for Active; 'I' for Inactive)
REMARK    1  A    between atoms: N_1  and  C_4
REMARK    2  A    between atoms: C_4  and  C_5
REMARK                            x       y       z     vdW  Elec       q    Type
REMARK                         _______ _______ _______ _____ _____    ______ ____
ROOT
ATOM      1  N   UNL     1      -0.608  -6.639 -18.127  0.00  0.00    -0.354 N 
ATOM      2  N   UNL     1      -0.473  -8.930 -18.442  0.00  0.00    -0.372 N 
ATOM      3  N   UNL     1      -1.318  -7.626 -20.131  0.00  0.00    -0.372 N 
ATOM      4  C   UNL     1      -0.802  -7.716 -18.900  0.00  0.00    +0.166 C 
ATOM      5  H   UNL     1      -0.241  -6.777 -17.193  0.00  0.00    +0.163 HD
ATOM      6  H   UNL     1      -0.605  -9.760 -19.003  0.00  0.00    +0.159 HD
ATOM      7  H   UNL     1      -0.064  -9.060 -17.525  0.00  0.00    +0.159 HD
ATOM      8  H   UNL     1      -1.593  -6.740 -20.533  0.00  0.00    +0.159 HD
ATOM      9  H   UNL     1      -1.469  -8.447 -20.704  0.00  0.00    +0.159 HD
ENDROOT
BRANCH   1  10
ATOM     10  C   UNL     1      -0.882  -5.268 -18.552  0.00  0.00    +0.151 C 
BRANCH  10  11
ATOM     11  C   UNL     1       0.397  -4.636 -19.028  0.00  0.00    -0.028 A 
ATOM     12  C   UNL     1       0.390  -3.743 -20.110  0.00  0.00    +0.005 A 
ATOM     13  C   UNL     1       1.618  -4.921 -18.398  0.00  0.00    +0.005 A 
ATOM     14  C   UNL     1       1.573  -3.132 -20.533  0.00  0.00    +0.000 A 
ATOM     15  C   UNL     1       2.797  -4.310 -18.825  0.00  0.00    +0.000 A 
ATOM     16  C   UNL     1       2.774  -3.414 -19.891  0.00  0.00    +0.000 A 
ENDBRANCH  10  11
ENDBRANCH   1  10
TORSDOF 2
ENDMDL
MODEL 5
REMARK VINA RESULT:    -5.011     13.418     14.598
REMARK INTER + INTRA:          -5.756
REMARK INTER:                  -5.609
REMARK INTRA:                  -0.147
REMARK UNBOUND:                -0.159
REMARK  Name = 1550473
REMARK  2 active torsions:
REMARK  status: ('A' for Active; 'I' for Inactive)
REMARK    1  A    between atoms: N_1  and  C_4
REMARK    2  A    between atoms: C_4  and  C_5
REMARK                            x       y       z     vdW  Elec       q    Type
REMARK                         _______ _______ _______ _____ _____    ______ ____
ROOT
ATOM      1  N   UNL     1     -11.804   0.861 -16.228  0.00  0.00    -0.354 N 
ATOM      2  N   UNL     1     -10.804   2.503 -14.937  0.00  0.00    -0.372 N 
ATOM      3  N   UNL     1     -11.413   3.004 -17.092  0.00  0.00    -0.372 N 
ATOM      4  C   UNL     1     -11.347   2.113 -16.097  0.00  0.00    +0.166 C 
ATOM      5  H   UNL     1     -11.697   0.225 -15.446  0.00  0.00    +0.163 HD
ATOM      6  H   UNL     1     -10.454   3.442 -14.807  0.00  0.00    +0.159 HD
ATOM      7  H   UNL     1     -10.740   1.879 -14.142  0.00  0.00    +0.159 HD
ATOM      8  H   UNL     1     -11.806   2.771 -17.994  0.00  0.00    +0.159 HD
ATOM      9  H   UNL     1     -11.057   3.946 -16.985  0.00  0.00    +0.159 HD
ENDROOT
BRANCH   1  10
ATOM     10  C   UNL     1     -12.462   0.352 -17.431  0.00  0.00    +0.151 C 
BRANCH  10  11
ATOM     11  C   UNL     1     -11.662  -0.797 -17.980  0.00  0.00    -0.028 A 
ATOM     12  C   UNL     1     -11.652  -1.064 -19.357  0.00  0.00    +0.005 A 
ATOM     13  C   UNL     1     -10.908  -1.619 -17.129  0.00  0.00    +0.005 A 
ATOM     14  C   UNL     1     -10.885  -2.112 -19.870  0.00  0.00    +0.000 A 
ATOM     15  C   UNL     1     -10.144  -2.665 -17.646  0.00  0.00    +0.000 A 
ATOM     16  C   UNL     1     -10.131  -2.910 -19.017  0.00  0.00    +0.000 A 
ENDBRANCH  10  11
ENDBRANCH   1  10
TORSDOF 2
ENDMDL
MODEL 6
REMARK VINA RESULT:    -4.995     11.566     12.478
REMARK INTER + INTRA:          -5.738
REMARK INTER:                  -5.563
REMARK INTRA:                  -0.174
REMARK UNBOUND:                -0.159
REMARK  Name = 1550473
REMARK  2 active torsions:
REMARK  status: ('A' for Active; 'I' for Inactive)
REMARK    1  A    between atoms: N_1  and  C_4
REMARK    2  A    between atoms: C_4  and  C_5
REMARK                            x       y       z     vdW  Elec       q    Type
REMARK                         _______ _______ _______ _____ _____    ______ ____
ROOT
ATOM      1  N   UNL     1       0.319  -5.749 -18.759  0.00  0.00    -0.354 N 
ATOM      2  N   UNL     1       2.100  -5.935 -17.290  0.00  0.00    -0.372 N 
ATOM      3  N   UNL     1       1.651  -3.893 -18.235  0.00  0.00    -0.372 N 
ATOM      4  C   UNL     1       1.346  -5.188 -18.105  0.00  0.00    +0.166 C 
ATOM      5  H   UNL     1       0.159  -6.743 -18.641  0.00  0.00    +0.163 HD
ATOM      6  H   UNL     1       2.879  -5.539 -16.781  0.00  0.00    +0.159 HD
ATOM      7  H   UNL     1       1.909  -6.918 -17.138  0.00  0.00    +0.159 HD
ATOM      8  H   UNL     1       1.124  -3.277 -18.840  0.00  0.00    +0.159 HD
ATOM      9  H   UNL     1       2.433  -3.481 -17.743  0.00  0.00    +0.159 HD
ENDROOT
BRANCH   1  10
ATOM     10  C   UNL     1      -0.597  -5.013 -19.628  0.00  0.00    +0.151 C 
BRANCH  10  11
ATOM     11  C   UNL     1      -1.859  -4.711 -18.869  0.00  0.00    -0.028 A 
ATOM     12  C   UNL     1      -1.997  -3.503 -18.170  0.00  0.00    +0.005 A 
ATOM     13  C   UNL     1      -2.922  -5.626 -18.849  0.00  0.00    +0.005 A 
ATOM     14  C   UNL     1      -3.181  -3.208 -17.489  0.00  0.00    +0.000 A 
ATOM     15  C   UNL     1      -4.102  -5.329 -18.167  0.00  0.00    +0.000 A 
ATOM     16  C   UNL     1      -4.232  -4.119 -17.489  0.00  0.00    +0.000 A 
ENDBRANCH  10  11
ENDBRANCH   1  10
TORSDOF 2
ENDMDL
MODEL 7
REMARK VINA RESULT:    -4.965     15.055     17.308
REMARK INTER + INTRA:          -5.705
REMARK INTER:                  -5.568
REMARK INTRA:                  -0.136
REMARK UNBOUND:                -0.159
REMARK  Name = 1550473
REMARK  2 active torsions:
REMARK  status: ('A' for Active; 'I' for Inactive)
REMARK    1  A    between atoms: N_1  and  C_4
REMARK    2  A    between atoms: C_4  and  C_5
REMARK                            x       y       z     vdW  Elec       q    Type
REMARK                         _______ _______ _______ _____ _____    ______ ____
ROOT
ATOM      1  N   UNL     1      -1.268 -17.790   0.393  0.00  0.00    -0.354 N 
ATOM      2  N   UNL     1      -1.658 -15.831  -0.780  0.00  0.00    -0.372 N 
ATOM      3  N   UNL     1       0.410 -16.815  -0.921  0.00  0.00    -0.372 N 
ATOM      4  C   UNL     1      -0.833 -16.825  -0.429  0.00  0.00    +0.166 C 
ATOM      5  H   UNL     1      -2.212 -17.724   0.756  0.00  0.00    +0.163 HD
ATOM      6  H   UNL     1      -1.360 -15.091  -1.401  0.00  0.00    +0.159 HD
ATOM      7  H   UNL     1      -2.616 -15.793  -0.452  0.00  0.00    +0.159 HD
ATOM      8  H   UNL     1       1.083 -17.533  -0.690  0.00  0.00    +0.159 HD
ATOM      9  H   UNL     1       0.731 -16.076  -1.535  0.00  0.00    +0.159 HD
ENDROOT
BRANCH   1  10
ATOM     10  C   UNL     1      -0.466 -18.945   0.793  0.00  0.00    +0.151 C 
BRANCH  10  11
ATOM     11  C   UNL     1      -0.755 -19.268   2.234  0.00  0.00    -0.028 A 
ATOM     12  C   UNL     1      -1.575 -18.427   3.001  0.00  0.00    +0.005 A 
ATOM     13  C   UNL     1      -0.217 -20.416   2.835  0.00  0.00    +0.005 A 
ATOM     14  C   UNL     1      -1.868 -18.743   4.330  0.00  0.00    +0.000 A 
ATOM     15  C   UNL     1      -0.511 -20.727   4.162  0.00  0.00    +0.000 A 
ATOM     16  C   UNL     1      -1.339 -19.891   4.909  0.00  0.00    +0.000 A 
ENDBRANCH  10  11
ENDBRANCH   1  10
TORSDOF 2
ENDMDL
MODEL 8
REMARK VINA RESULT:    -4.949     12.140     12.963
REMARK INTER + INTRA:          -5.687
REMARK INTER:                  -5.567
REMARK INTRA:                  -0.120
REMARK UNBOUND:                -0.159
REMARK  Name = 1550473
REMARK  2 active torsions:
REMARK  status: ('A' for Active; 'I' for Inactive)
REMARK    1  A    between atoms: N_1  and  C_4
REMARK    2  A    between atoms: C_4  and  C_5
REMARK                            x       y       z     vdW  Elec       q    Type
REMARK                         _______ _______ _______ _____ _____    ______ ____
ROOT
ATOM      1  N   UNL     1      -0.029  -2.694 -19.361  0.00  0.00    -0.354 N 
ATOM      2  N   UNL     1       1.728  -2.444 -20.849  0.00  0.00    -0.372 N 
ATOM      3  N   UNL     1       2.175  -2.461 -18.599  0.00  0.00    -0.372 N 
ATOM      4  C   UNL     1       1.281  -2.534 -19.591  0.00  0.00    +0.166 C 
ATOM      5  H   UNL     1      -0.658  -2.712 -20.156  0.00  0.00    +0.163 HD
ATOM      6  H   UNL     1       2.712  -2.327 -21.054  0.00  0.00    +0.159 HD
ATOM      7  H   UNL     1       1.102  -2.509 -21.643  0.00  0.00    +0.159 HD
ATOM      8  H   UNL     1       1.901  -2.516 -17.627  0.00  0.00    +0.159 HD
ATOM      9  H   UNL     1       3.162  -2.332 -18.783  0.00  0.00    +0.159 HD
ENDROOT
BRANCH   1  10
ATOM     10  C   UNL     1      -0.612  -2.856 -18.031  0.00  0.00    +0.151 C 
BRANCH  10  11
ATOM     11  C   UNL     1      -1.826  -3.738 -18.131  0.00  0.00    -0.028 A 
ATOM     12  C   UNL     1      -1.742  -5.000 -18.736  0.00  0.00    +0.005 A 
ATOM     13  C   UNL     1      -3.063  -3.319 -17.617  0.00  0.00    +0.005 A 
ATOM     14  C   UNL     1      -2.862  -5.832 -18.802  0.00  0.00    +0.000 A 
ATOM     15  C   UNL     1      -4.180  -4.152 -17.686  0.00  0.00    +0.000 A 
ATOM     16  C   UNL     1      -4.078  -5.409 -18.276  0.00  0.00    +0.000 A 
ENDBRANCH  10  11
ENDBRANCH   1  10
TORSDOF 2
ENDMDL
MODEL 9
REMARK VINA RESULT:    -4.884     11.559     13.074
REMARK INTER + INTRA:          -5.614
REMARK INTER:                  -5.465
REMARK INTRA:                  -0.149
REMARK UNBOUND:                -0.159
REMARK  Name = 1550473
REMARK  2 active torsions:
REMARK  status: ('A' for Active; 'I' for Inactive)
REMARK    1  A    between atoms: N_1  and  C_4
REMARK    2  A    between atoms: C_4  and  C_5
REMARK                            x       y       z     vdW  Elec       q    Type
REMARK                         _______ _______ _______ _____ _____    ______ ____
ROOT
ATOM      1  N   UNL     1      -3.446  -3.890 -19.096  0.00  0.00    -0.354 N 
ATOM      2  N   UNL     1      -5.155  -2.482 -18.418  0.00  0.00    -0.372 N 
ATOM      3  N   UNL     1      -3.888  -3.537 -16.822  0.00  0.00    -0.372 N 
ATOM      4  C   UNL     1      -4.151  -3.313 -18.114  0.00  0.00    +0.166 C 
ATOM      5  H   UNL     1      -3.714  -3.703 -20.055  0.00  0.00    +0.163 HD
ATOM      6  H   UNL     1      -5.702  -2.029 -17.698  0.00  0.00    +0.159 HD
ATOM      7  H   UNL     1      -5.391  -2.261 -19.378  0.00  0.00    +0.159 HD
ATOM      8  H   UNL     1      -3.148  -4.159 -16.526  0.00  0.00    +0.159 HD
ATOM      9  H   UNL     1      -4.433  -3.103 -16.087  0.00  0.00    +0.159 HD
ENDROOT
BRANCH   1  10
ATOM     10  C   UNL     1      -2.299  -4.769 -18.872  0.00  0.00    +0.151 C 
BRANCH  10  11
ATOM     11  C   UNL     1      -1.042  -4.049 -19.275  0.00  0.00    -0.028 A 
ATOM     12  C   UNL     1      -0.549  -2.988 -18.501  0.00  0.00    +0.005 A 
ATOM     13  C   UNL     1      -0.336  -4.426 -20.428  0.00  0.00    +0.005 A 
ATOM     14  C   UNL     1       0.635  -2.338 -18.858  0.00  0.00    +0.000 A 
ATOM     15  C   UNL     1       0.846  -3.774 -20.782  0.00  0.00    +0.000 A 
ATOM     16  C   UNL     1       1.332  -2.732 -19.995  0.00  0.00    +0.000 A 
ENDBRANCH  10  11
ENDBRANCH   1  10
TORSDOF 2
ENDMDL
