MODEL 1
REMARK VINA RESULT:    -6.223      0.000      0.000
REMARK INTER + INTRA:          -7.068
REMARK INTER:                  -6.950
REMARK INTRA:                  -0.117
REMARK UNBOUND:                -0.117
REMARK  Name = 1550473
REMARK  2 active torsions:
REMARK  status: ('A' for Active; 'I' for Inactive)
REMARK    1  A    between atoms: N_1  and  C_4
REMARK    2  A    between atoms: C_4  and  C_5
REMARK                            x       y       z     vdW  Elec       q    Type
REMARK                         _______ _______ _______ _____ _____    ______ ____
ROOT
ATOM      1  N   UNL     1      -7.989  -5.187  -4.596  0.00  0.00    -0.354 N 
ATOM      2  N   UNL     1      -8.101  -7.202  -3.460  0.00  0.00    -0.372 N 
ATOM      3  N   UNL     1      -9.068  -5.345  -2.522  0.00  0.00    -0.372 N 
ATOM      4  C   UNL     1      -8.387  -5.897  -3.531  0.00  0.00    +0.166 C 
ATOM      5  H   UNL     1      -7.450  -5.657  -5.314  0.00  0.00    +0.163 HD
ATOM      6  H   UNL     1      -8.391  -7.764  -2.671  0.00  0.00    +0.159 HD
ATOM      7  H   UNL     1      -7.602  -7.680  -4.201  0.00  0.00    +0.159 HD
ATOM      8  H   UNL     1      -9.310  -4.363  -2.512  0.00  0.00    +0.159 HD
ATOM      9  H   UNL     1      -9.357  -5.889  -1.718  0.00  0.00    +0.159 HD
ENDROOT
BRANCH   1  10
ATOM     10  C   UNL     1      -8.296  -3.772  -4.796  0.00  0.00    +0.151 C 
BRANCH  10  11
ATOM     11  C   UNL     1      -7.722  -3.326  -6.113  0.00  0.00    -0.028 A 
ATOM     12  C   UNL     1      -7.560  -4.240  -7.164  0.00  0.00    +0.005 A 
ATOM     13  C   UNL     1      -7.343  -1.990  -6.316  0.00  0.00    +0.005 A 
ATOM     14  C   UNL     1      -7.055  -3.820  -8.397  0.00  0.00    +0.000 A 
ATOM     15  C   UNL     1      -6.838  -1.575  -7.549  0.00  0.00    +0.000 A 
ATOM     16  C   UNL     1      -6.696  -2.490  -8.590  0.00  0.00    +0.000 A 
ENDBRANCH  10  11
ENDBRANCH   1  10
TORSDOF 2
ENDMDL
MODEL 2
REMARK VINA RESULT:    -5.741      3.482      5.878
REMARK INTER + INTRA:          -6.530
REMARK INTER:                  -6.354
REMARK INTRA:                  -0.176
REMARK UNBOUND:                -0.117
REMARK  Name = 1550473
REMARK  2 active torsions:
REMARK  status: ('A' for Active; 'I' for Inactive)
REMARK    1  A    between atoms: N_1  and  C_4
REMARK    2  A    between atoms: C_4  and  C_5
REMARK                            x       y       z     vdW  Elec       q    Type
REMARK                         _______ _______ _______ _____ _____    ______ ____
ROOT
ATOM      1  N   UNL     1      -9.469  -4.635  -3.814  0.00  0.00    -0.354 N 
ATOM      2  N   UNL     1      -7.630  -4.561  -5.220  0.00  0.00    -0.372 N 
ATOM      3  N   UNL     1      -7.770  -6.243  -3.666  0.00  0.00    -0.372 N 
ATOM      4  C   UNL     1      -8.301  -5.149  -4.223  0.00  0.00    +0.166 C 
ATOM      5  H   UNL     1      -9.802  -3.787  -4.257  0.00  0.00    +0.163 HD
ATOM      6  H   UNL     1      -6.748  -4.928  -5.552  0.00  0.00    +0.159 HD
ATOM      7  H   UNL     1      -7.988  -3.739  -5.692  0.00  0.00    +0.159 HD
ATOM      8  H   UNL     1      -8.224  -6.731  -2.906  0.00  0.00    +0.159 HD
ATOM      9  H   UNL     1      -6.883  -6.619  -3.977  0.00  0.00    +0.159 HD
ENDROOT
BRANCH   1  10
ATOM     10  C   UNL     1     -10.304  -5.230  -2.773  0.00  0.00    +0.151 C 
BRANCH  10  11
ATOM     11  C   UNL     1     -11.510  -5.863  -3.412  0.00  0.00    -0.028 A 
ATOM     12  C   UNL     1     -12.684  -5.121  -3.606  0.00  0.00    +0.005 A 
ATOM     13  C   UNL     1     -11.482  -7.202  -3.830  0.00  0.00    +0.005 A 
ATOM     14  C   UNL     1     -13.794  -5.699  -4.227  0.00  0.00    +0.000 A 
ATOM     15  C   UNL     1     -12.593  -7.776  -4.448  0.00  0.00    +0.000 A 
ATOM     16  C   UNL     1     -13.747  -7.023  -4.649  0.00  0.00    +0.000 A 
ENDBRANCH  10  11
ENDBRANCH   1  10
TORSDOF 2
ENDMDL
MODEL 3
REMARK VINA RESULT:    -5.579     11.337     12.512
REMARK INTER + INTRA:          -6.349
REMARK INTER:                  -6.189
REMARK INTRA:                  -0.160
REMARK UNBOUND:                -0.117
REMARK  Name = 1550473
REMARK  2 active torsions:
REMARK  status: ('A' for Active; 'I' for Inactive)
REMARK    1  A    between atoms: N_1  and  C_4
REMARK    2  A    between atoms: C_4  and  C_5
REMARK                            x       y       z     vdW  Elec       q    Type
REMARK                         _______ _______ _______ _____ _____    ______ ____
ROOT
ATOM      1  N   UNL     1     -10.410   5.680  -2.062  0.00  0.00    -0.354 N 
ATOM      2  N   UNL     1      -8.977   4.719  -3.607  0.00  0.00    -0.372 N 
ATOM      3  N   UNL     1     -11.152   3.995  -3.512  0.00  0.00    -0.372 N 
ATOM      4  C   UNL     1     -10.191   4.802  -3.051  0.00  0.00    +0.166 C 
ATOM      5  H   UNL     1      -9.632   6.242  -1.737  0.00  0.00    +0.163 HD
ATOM      6  H   UNL     1      -8.783   4.069  -4.357  0.00  0.00    +0.159 HD
ATOM      7  H   UNL     1      -8.213   5.314  -3.312  0.00  0.00    +0.159 HD
ATOM      8  H   UNL     1     -12.089   4.005  -3.131  0.00  0.00    +0.159 HD
ATOM      9  H   UNL     1     -10.975   3.330  -4.254  0.00  0.00    +0.159 HD
ENDROOT
BRANCH   1  10
ATOM     10  C   UNL     1     -11.709   5.887  -1.425  0.00  0.00    +0.151 C 
BRANCH  10  11
ATOM     11  C   UNL     1     -12.310   7.166  -1.941  0.00  0.00    -0.028 A 
ATOM     12  C   UNL     1     -11.487   8.233  -2.329  0.00  0.00    +0.005 A 
ATOM     13  C   UNL     1     -13.701   7.314  -2.049  0.00  0.00    +0.005 A 
ATOM     14  C   UNL     1     -12.044   9.410  -2.836  0.00  0.00    +0.000 A 
ATOM     15  C   UNL     1     -14.253   8.491  -2.555  0.00  0.00    +0.000 A 
ATOM     16  C   UNL     1     -13.424   9.538  -2.951  0.00  0.00    +0.000 A 
ENDBRANCH  10  11
ENDBRANCH   1  10
TORSDOF 2
ENDMDL
MODEL 4
REMARK VINA RESULT:    -5.397      9.187     10.741
REMARK INTER + INTRA:          -6.145
REMARK INTER:                  -5.978
REMARK INTRA:                  -0.167
REMARK UNBOUND:                -0.117
REMARK  Name = 1550473
REMARK  2 active torsions:
REMARK  status: ('A' for Active; 'I' for Inactive)
REMARK    1  A    between atoms: N_1  and  C_4
REMARK    2  A    between atoms: C_4  and  C_5
REMARK                            x       y       z     vdW  Elec       q    Type
REMARK                         _______ _______ _______ _____ _____    ______ ____
ROOT
ATOM      1  N   UNL     1     -10.460   3.573 -10.131  0.00  0.00    -0.354 N 
ATOM      2  N   UNL     1     -10.464   2.972  -7.894  0.00  0.00    -0.372 N 
ATOM      3  N   UNL     1     -11.592   4.864  -8.536  0.00  0.00    -0.372 N 
ATOM      4  C   UNL     1     -10.840   3.809  -8.868  0.00  0.00    +0.166 C 
ATOM      5  H   UNL     1      -9.865   2.773 -10.312  0.00  0.00    +0.163 HD
ATOM      6  H   UNL     1     -10.738   3.122  -6.933  0.00  0.00    +0.159 HD
ATOM      7  H   UNL     1      -9.908   2.147  -8.085  0.00  0.00    +0.159 HD
ATOM      8  H   UNL     1     -11.904   5.537  -9.223  0.00  0.00    +0.159 HD
ATOM      9  H   UNL     1     -11.867   5.038  -7.578  0.00  0.00    +0.159 HD
ENDROOT
BRANCH   1  10
ATOM     10  C   UNL     1     -10.860   4.393 -11.272  0.00  0.00    +0.151 C 
BRANCH  10  11
ATOM     11  C   UNL     1      -9.655   5.122 -11.800  0.00  0.00    -0.028 A 
ATOM     12  C   UNL     1      -9.452   6.476 -11.495  0.00  0.00    +0.005 A 
ATOM     13  C   UNL     1      -8.710   4.463 -12.601  0.00  0.00    +0.005 A 
ATOM     14  C   UNL     1      -8.317   7.145 -11.960  0.00  0.00    +0.000 A 
ATOM     15  C   UNL     1      -7.579   5.135 -13.064  0.00  0.00    +0.000 A 
ATOM     16  C   UNL     1      -7.382   6.476 -12.741  0.00  0.00    +0.000 A 
ENDBRANCH  10  11
ENDBRANCH   1  10
TORSDOF 2
ENDMDL
MODEL 5
REMARK VINA RESULT:    -5.261     13.196     14.486
REMARK INTER + INTRA:          -5.993
REMARK INTER:                  -5.812
REMARK INTRA:                  -0.181
REMARK UNBOUND:                -0.117
REMARK  Name = 1550473
REMARK  2 active torsions:
REMARK  status: ('A' for Active; 'I' for Inactive)
REMARK    1  A    between atoms: N_1  and  C_4
REMARK    2  A    between atoms: C_4  and  C_5
REMARK                            x       y       z     vdW  Elec       q    Type
REMARK                         _______ _______ _______ _____ _____    ______ ____
ROOT
ATOM      1  N   UNL     1     -13.355   9.248  -3.267  0.00  0.00    -0.354 N 
ATOM      2  N   UNL     1     -15.539   9.540  -3.981  0.00  0.00    -0.372 N 
ATOM      3  N   UNL     1     -14.960  10.229  -1.870  0.00  0.00    -0.372 N 
ATOM      4  C   UNL     1     -14.604   9.671  -3.032  0.00  0.00    +0.166 C 
ATOM      5  H   UNL     1     -13.156   8.806  -4.157  0.00  0.00    +0.163 HD
ATOM      6  H   UNL     1     -16.489   9.854  -3.833  0.00  0.00    +0.159 HD
ATOM      7  H   UNL     1     -15.326   9.140  -4.886  0.00  0.00    +0.159 HD
ATOM      8  H   UNL     1     -14.303  10.351  -1.111  0.00  0.00    +0.159 HD
ATOM      9  H   UNL     1     -15.909  10.538  -1.699  0.00  0.00    +0.159 HD
ENDROOT
BRANCH   1  10
ATOM     10  C   UNL     1     -12.250   9.393  -2.320  0.00  0.00    +0.151 C 
BRANCH  10  11
ATOM     11  C   UNL     1     -12.022   8.079  -1.626  0.00  0.00    -0.028 A 
ATOM     12  C   UNL     1     -12.493   7.871  -0.322  0.00  0.00    +0.005 A 
ATOM     13  C   UNL     1     -11.340   7.035  -2.270  0.00  0.00    +0.005 A 
ATOM     14  C   UNL     1     -12.308   6.640   0.312  0.00  0.00    +0.000 A 
ATOM     15  C   UNL     1     -11.156   5.808  -1.633  0.00  0.00    +0.000 A 
ATOM     16  C   UNL     1     -11.642   5.610  -0.343  0.00  0.00    +0.000 A 
ENDBRANCH  10  11
ENDBRANCH   1  10
TORSDOF 2
ENDMDL
MODEL 6
REMARK VINA RESULT:    -5.251     14.571     15.752
REMARK INTER + INTRA:          -5.982
REMARK INTER:                  -5.848
REMARK INTRA:                  -0.134
REMARK UNBOUND:                -0.117
REMARK  Name = 1550473
REMARK  2 active torsions:
REMARK  status: ('A' for Active; 'I' for Inactive)
REMARK    1  A    between atoms: N_1  and  C_4
REMARK    2  A    between atoms: C_4  and  C_5
REMARK                            x       y       z     vdW  Elec       q    Type
REMARK                         _______ _______ _______ _____ _____    ______ ____
ROOT
ATOM      1  N   UNL     1     -15.126  10.361  -3.457  0.00  0.00    -0.354 N 
ATOM      2  N   UNL     1     -15.491  11.777  -5.253  0.00  0.00    -0.372 N 
ATOM      3  N   UNL     1     -14.833  12.676  -3.247  0.00  0.00    -0.372 N 
ATOM      4  C   UNL     1     -15.147  11.597  -3.972  0.00  0.00    +0.166 C 
ATOM      5  H   UNL     1     -15.403   9.587  -4.051  0.00  0.00    +0.163 HD
ATOM      6  H   UNL     1     -15.513  12.698  -5.670  0.00  0.00    +0.159 HD
ATOM      7  H   UNL     1     -15.724  10.998  -5.856  0.00  0.00    +0.159 HD
ATOM      8  H   UNL     1     -14.571  12.609  -2.272  0.00  0.00    +0.159 HD
ATOM      9  H   UNL     1     -14.861  13.607  -3.643  0.00  0.00    +0.159 HD
ENDROOT
BRANCH   1  10
ATOM     10  C   UNL     1     -14.714  10.051  -2.089  0.00  0.00    +0.151 C 
BRANCH  10  11
ATOM     11  C   UNL     1     -13.639   9.000  -2.126  0.00  0.00    -0.028 A 
ATOM     12  C   UNL     1     -13.967   7.641  -2.013  0.00  0.00    +0.005 A 
ATOM     13  C   UNL     1     -12.290   9.357  -2.280  0.00  0.00    +0.005 A 
ATOM     14  C   UNL     1     -12.971   6.663  -2.077  0.00  0.00    +0.000 A 
ATOM     15  C   UNL     1     -11.299   8.377  -2.342  0.00  0.00    +0.000 A 
ATOM     16  C   UNL     1     -11.640   7.031  -2.243  0.00  0.00    +0.000 A 
ENDBRANCH  10  11
ENDBRANCH   1  10
TORSDOF 2
ENDMDL
MODEL 7
REMARK VINA RESULT:    -5.207      2.544      6.061
REMARK INTER + INTRA:          -5.933
REMARK INTER:                  -5.785
REMARK INTRA:                  -0.147
REMARK UNBOUND:                -0.117
REMARK  Name = 1550473
REMARK  2 active torsions:
REMARK  status: ('A' for Active; 'I' for Inactive)
REMARK    1  A    between atoms: N_1  and  C_4
REMARK    2  A    between atoms: C_4  and  C_5
REMARK                            x       y       z     vdW  Elec       q    Type
REMARK                         _______ _______ _______ _____ _____    ______ ____
ROOT
ATOM      1  N   UNL     1      -8.114  -5.004  -4.405  0.00  0.00    -0.354 N 
ATOM      2  N   UNL     1      -6.872  -3.343  -5.436  0.00  0.00    -0.372 N 
ATOM      3  N   UNL     1      -8.855  -2.781  -4.428  0.00  0.00    -0.372 N 
ATOM      4  C   UNL     1      -7.958  -3.719  -4.749  0.00  0.00    +0.166 C 
ATOM      5  H   UNL     1      -7.413  -5.671  -4.704  0.00  0.00    +0.163 HD
ATOM      6  H   UNL     1      -6.725  -2.380  -5.706  0.00  0.00    +0.159 HD
ATOM      7  H   UNL     1      -6.150  -4.005  -5.694  0.00  0.00    +0.159 HD
ATOM      8  H   UNL     1      -9.699  -3.000  -3.916  0.00  0.00    +0.159 HD
ATOM      9  H   UNL     1      -8.731  -1.814  -4.700  0.00  0.00    +0.159 HD
ENDROOT
BRANCH   1  10
ATOM     10  C   UNL     1      -9.234  -5.507  -3.611  0.00  0.00    +0.151 C 
BRANCH  10  11
ATOM     11  C   UNL     1      -8.752  -5.810  -2.219  0.00  0.00    -0.028 A 
ATOM     12  C   UNL     1      -8.484  -4.771  -1.316  0.00  0.00    +0.005 A 
ATOM     13  C   UNL     1      -8.566  -7.135  -1.795  0.00  0.00    +0.005 A 
ATOM     14  C   UNL     1      -8.065  -5.053  -0.014  0.00  0.00    +0.000 A 
ATOM     15  C   UNL     1      -8.146  -7.413  -0.494  0.00  0.00    +0.000 A 
ATOM     16  C   UNL     1      -7.898  -6.372   0.397  0.00  0.00    +0.000 A 
ENDBRANCH  10  11
ENDBRANCH   1  10
TORSDOF 2
ENDMDL
MODEL 8
REMARK VINA RESULT:    -5.181      2.341      5.406
REMARK INTER + INTRA:          -5.904
REMARK INTER:                  -5.809
REMARK INTRA:                  -0.094
REMARK UNBOUND:                -0.117
REMARK  Name = 1550473
REMARK  2 active torsions:
REMARK  status: ('A' for Active; 'I' for Inactive)
REMARK    1  A    between atoms: N_1  and  C_4
REMARK    2  A    between atoms: C_4  and  C_5
REMARK                            x       y       z     vdW  Elec       q    Type
REMARK                         _______ _______ _______ _____ _____    ______ ____
ROOT
ATOM      1  N   UNL     1      -7.496  -3.351  -4.707  0.00  0.00    -0.354 N 
ATOM      2  N   UNL     1      -5.699  -3.446  -6.165  0.00  0.00    -0.372 N 
ATOM      3  N   UNL     1      -7.747  -4.199  -6.878  0.00  0.00    -0.372 N 
ATOM      4  C   UNL     1      -6.995  -3.666  -5.909  0.00  0.00    +0.166 C 
ATOM      5  H   UNL     1      -6.867  -2.978  -4.006  0.00  0.00    +0.163 HD
ATOM      6  H   UNL     1      -5.293  -3.670  -7.064  0.00  0.00    +0.159 HD
ATOM      7  H   UNL     1      -5.083  -3.030  -5.478  0.00  0.00    +0.159 HD
ATOM      8  H   UNL     1      -8.730  -4.395  -6.745  0.00  0.00    +0.159 HD
ATOM      9  H   UNL     1      -7.356  -4.441  -7.780  0.00  0.00    +0.159 HD
ENDROOT
BRANCH   1  10
ATOM     10  C   UNL     1      -8.904  -3.501  -4.344  0.00  0.00    +0.151 C 
BRANCH  10  11
ATOM     11  C   UNL     1      -9.044  -4.647  -3.381  0.00  0.00    -0.028 A 
ATOM     12  C   UNL     1      -9.718  -4.476  -2.163  0.00  0.00    +0.005 A 
ATOM     13  C   UNL     1      -8.509  -5.909  -3.683  0.00  0.00    +0.005 A 
ATOM     14  C   UNL     1      -9.875  -5.549  -1.282  0.00  0.00    +0.000 A 
ATOM     15  C   UNL     1      -8.667  -6.977  -2.800  0.00  0.00    +0.000 A 
ATOM     16  C   UNL     1      -9.351  -6.797  -1.601  0.00  0.00    +0.000 A 
ENDBRANCH  10  11
ENDBRANCH   1  10
TORSDOF 2
ENDMDL
MODEL 9
REMARK VINA RESULT:    -5.082     11.833     13.056
REMARK INTER + INTRA:          -5.794
REMARK INTER:                  -5.637
REMARK INTRA:                  -0.156
REMARK UNBOUND:                -0.117
REMARK  Name = 1550473
REMARK  2 active torsions:
REMARK  status: ('A' for Active; 'I' for Inactive)
REMARK    1  A    between atoms: N_1  and  C_4
REMARK    2  A    between atoms: C_4  and  C_5
REMARK                            x       y       z     vdW  Elec       q    Type
REMARK                         _______ _______ _______ _____ _____    ______ ____
ROOT
ATOM      1  N   UNL     1     -13.001   8.151  -0.939  0.00  0.00    -0.354 N 
ATOM      2  N   UNL     1     -12.238  10.223  -0.240  0.00  0.00    -0.372 N 
ATOM      3  N   UNL     1     -12.219   9.732  -2.481  0.00  0.00    -0.372 N 
ATOM      4  C   UNL     1     -12.490   9.356  -1.228  0.00  0.00    +0.166 C 
ATOM      5  H   UNL     1     -13.156   7.915   0.034  0.00  0.00    +0.163 HD
ATOM      6  H   UNL     1     -11.856  11.141  -0.427  0.00  0.00    +0.159 HD
ATOM      7  H   UNL     1     -12.438  10.001   0.728  0.00  0.00    +0.159 HD
ATOM      8  H   UNL     1     -12.380   9.122  -3.271  0.00  0.00    +0.159 HD
ATOM      9  H   UNL     1     -11.825  10.642  -2.688  0.00  0.00    +0.159 HD
ENDROOT
BRANCH   1  10
ATOM     10  C   UNL     1     -13.362   7.154  -1.945  0.00  0.00    +0.151 C 
BRANCH  10  11
ATOM     11  C   UNL     1     -12.401   6.000  -1.860  0.00  0.00    -0.028 A 
ATOM     12  C   UNL     1     -12.086   5.250  -3.002  0.00  0.00    +0.005 A 
ATOM     13  C   UNL     1     -11.797   5.656  -0.641  0.00  0.00    +0.005 A 
ATOM     14  C   UNL     1     -11.170   4.197  -2.930  0.00  0.00    +0.000 A 
ATOM     15  C   UNL     1     -10.884   4.604  -0.572  0.00  0.00    +0.000 A 
ATOM     16  C   UNL     1     -10.569   3.876  -1.717  0.00  0.00    +0.000 A 
ENDBRANCH  10  11
ENDBRANCH   1  10
TORSDOF 2
ENDMDL
