MODEL 1
REMARK VINA RESULT:    -4.502      0.000      0.000
REMARK INTER + INTRA:          -5.156
REMARK INTER:                  -5.028
REMARK INTRA:                  -0.127
REMARK UNBOUND:                -0.127
REMARK  Name = 1550473
REMARK  2 active torsions:
REMARK  status: ('A' for Active; 'I' for Inactive)
REMARK    1  A    between atoms: N_1  and  C_4
REMARK    2  A    between atoms: C_4  and  C_5
REMARK                            x       y       z     vdW  Elec       q    Type
REMARK                         _______ _______ _______ _____ _____    ______ ____
ROOT
ATOM      1  N   UNL     1      -6.228   8.334  -0.509  0.00  0.00    -0.354 N 
ATOM      2  N   UNL     1      -4.533   9.865  -0.121  0.00  0.00    -0.372 N 
ATOM      3  N   UNL     1      -4.764   8.081   1.304  0.00  0.00    -0.372 N 
ATOM      4  C   UNL     1      -5.185   8.748   0.224  0.00  0.00    +0.166 C 
ATOM      5  H   UNL     1      -6.517   8.901  -1.297  0.00  0.00    +0.163 HD
ATOM      6  H   UNL     1      -3.741  10.200   0.411  0.00  0.00    +0.159 HD
ATOM      7  H   UNL     1      -4.795  10.405  -0.937  0.00  0.00    +0.159 HD
ATOM      8  H   UNL     1      -5.217   7.234   1.621  0.00  0.00    +0.159 HD
ATOM      9  H   UNL     1      -3.980   8.407   1.856  0.00  0.00    +0.159 HD
ENDROOT
BRANCH   1  10
ATOM     10  C   UNL     1      -6.972   7.104  -0.249  0.00  0.00    +0.151 C 
BRANCH  10  11
ATOM     11  C   UNL     1      -7.627   6.648  -1.524  0.00  0.00    -0.028 A 
ATOM     12  C   UNL     1      -8.734   5.787  -1.487  0.00  0.00    +0.005 A 
ATOM     13  C   UNL     1      -7.150   7.078  -2.771  0.00  0.00    +0.005 A 
ATOM     14  C   UNL     1      -9.362   5.388  -2.670  0.00  0.00    +0.000 A 
ATOM     15  C   UNL     1      -7.778   6.676  -3.950  0.00  0.00    +0.000 A 
ATOM     16  C   UNL     1      -8.886   5.833  -3.898  0.00  0.00    +0.000 A 
ENDBRANCH  10  11
ENDBRANCH   1  10
TORSDOF 2
ENDMDL
MODEL 2
REMARK VINA RESULT:    -4.472     18.008     18.740
REMARK INTER + INTRA:          -5.122
REMARK INTER:                  -4.991
REMARK INTRA:                  -0.131
REMARK UNBOUND:                -0.127
REMARK  Name = 1550473
REMARK  2 active torsions:
REMARK  status: ('A' for Active; 'I' for Inactive)
REMARK    1  A    between atoms: N_1  and  C_4
REMARK    2  A    between atoms: C_4  and  C_5
REMARK                            x       y       z     vdW  Elec       q    Type
REMARK                         _______ _______ _______ _____ _____    ______ ____
ROOT
ATOM      1  N   UNL     1       2.211  -6.995   2.728  0.00  0.00    -0.354 N 
ATOM      2  N   UNL     1       4.291  -6.353   1.938  0.00  0.00    -0.372 N 
ATOM      3  N   UNL     1       3.425  -8.371   1.270  0.00  0.00    -0.372 N 
ATOM      4  C   UNL     1       3.296  -7.246   1.983  0.00  0.00    +0.166 C 
ATOM      5  H   UNL     1       2.187  -6.138   3.269  0.00  0.00    +0.163 HD
ATOM      6  H   UNL     1       5.120  -6.514   1.381  0.00  0.00    +0.159 HD
ATOM      7  H   UNL     1       4.244  -5.477   2.443  0.00  0.00    +0.159 HD
ATOM      8  H   UNL     1       2.712  -9.087   1.267  0.00  0.00    +0.159 HD
ATOM      9  H   UNL     1       4.253  -8.555   0.717  0.00  0.00    +0.159 HD
ENDROOT
BRANCH   1  10
ATOM     10  C   UNL     1       1.048  -7.877   2.804  0.00  0.00    +0.151 C 
BRANCH  10  11
ATOM     11  C   UNL     1       0.814  -8.260   4.239  0.00  0.00    -0.028 A 
ATOM     12  C   UNL     1      -0.451  -8.693   4.663  0.00  0.00    +0.005 A 
ATOM     13  C   UNL     1       1.855  -8.198   5.178  0.00  0.00    +0.005 A 
ATOM     14  C   UNL     1      -0.661  -9.077   5.990  0.00  0.00    +0.000 A 
ATOM     15  C   UNL     1       1.640  -8.582   6.502  0.00  0.00    +0.000 A 
ATOM     16  C   UNL     1       0.383  -9.024   6.907  0.00  0.00    +0.000 A 
ENDBRANCH  10  11
ENDBRANCH   1  10
TORSDOF 2
ENDMDL
MODEL 3
REMARK VINA RESULT:    -4.395     19.323     20.124
REMARK INTER + INTRA:          -5.036
REMARK INTER:                  -4.901
REMARK INTRA:                  -0.136
REMARK UNBOUND:                -0.127
REMARK  Name = 1550473
REMARK  2 active torsions:
REMARK  status: ('A' for Active; 'I' for Inactive)
REMARK    1  A    between atoms: N_1  and  C_4
REMARK    2  A    between atoms: C_4  and  C_5
REMARK                            x       y       z     vdW  Elec       q    Type
REMARK                         _______ _______ _______ _____ _____    ______ ____
ROOT
ATOM      1  N   UNL     1       3.229  -7.430   3.821  0.00  0.00    -0.354 N 
ATOM      2  N   UNL     1       4.370  -6.820   1.900  0.00  0.00    -0.372 N 
ATOM      3  N   UNL     1       2.113  -7.212   1.773  0.00  0.00    -0.372 N 
ATOM      4  C   UNL     1       3.227  -7.158   2.510  0.00  0.00    +0.166 C 
ATOM      5  H   UNL     1       4.113  -7.402   4.318  0.00  0.00    +0.163 HD
ATOM      6  H   UNL     1       4.399  -6.606   0.913  0.00  0.00    +0.159 HD
ATOM      7  H   UNL     1       5.243  -6.747   2.408  0.00  0.00    +0.159 HD
ATOM      8  H   UNL     1       1.219  -7.466   2.171  0.00  0.00    +0.159 HD
ATOM      9  H   UNL     1       2.124  -7.012   0.780  0.00  0.00    +0.159 HD
ENDROOT
BRANCH   1  10
ATOM     10  C   UNL     1       2.030  -7.757   4.591  0.00  0.00    +0.151 C 
BRANCH  10  11
ATOM     11  C   UNL     1       2.361  -8.837   5.582  0.00  0.00    -0.028 A 
ATOM     12  C   UNL     1       1.571  -9.020   6.727  0.00  0.00    +0.005 A 
ATOM     13  C   UNL     1       3.461  -9.686   5.381  0.00  0.00    +0.005 A 
ATOM     14  C   UNL     1       1.861 -10.043   7.633  0.00  0.00    +0.000 A 
ATOM     15  C   UNL     1       3.748 -10.705   6.288  0.00  0.00    +0.000 A 
ATOM     16  C   UNL     1       2.946 -10.885   7.413  0.00  0.00    +0.000 A 
ENDBRANCH  10  11
ENDBRANCH   1  10
TORSDOF 2
ENDMDL
MODEL 4
REMARK VINA RESULT:    -4.382     18.691     19.498
REMARK INTER + INTRA:          -5.021
REMARK INTER:                  -4.893
REMARK INTRA:                  -0.128
REMARK UNBOUND:                -0.127
REMARK  Name = 1550473
REMARK  2 active torsions:
REMARK  status: ('A' for Active; 'I' for Inactive)
REMARK    1  A    between atoms: N_1  and  C_4
REMARK    2  A    between atoms: C_4  and  C_5
REMARK                            x       y       z     vdW  Elec       q    Type
REMARK                         _______ _______ _______ _____ _____    ______ ____
ROOT
ATOM      1  N   UNL     1       2.615  -8.232   2.685  0.00  0.00    -0.354 N 
ATOM      2  N   UNL     1       4.532  -8.351   1.391  0.00  0.00    -0.372 N 
ATOM      3  N   UNL     1       3.945  -6.337   2.321  0.00  0.00    -0.372 N 
ATOM      4  C   UNL     1       3.685  -7.636   2.141  0.00  0.00    +0.166 C 
ATOM      5  H   UNL     1       2.458  -9.213   2.486  0.00  0.00    +0.163 HD
ATOM      6  H   UNL     1       5.350  -7.929   0.970  0.00  0.00    +0.159 HD
ATOM      7  H   UNL     1       4.398  -9.342   1.231  0.00  0.00    +0.159 HD
ATOM      8  H   UNL     1       3.341  -5.741   2.871  0.00  0.00    +0.159 HD
ATOM      9  H   UNL     1       4.752  -5.894   1.898  0.00  0.00    +0.159 HD
ENDROOT
BRANCH   1  10
ATOM     10  C   UNL     1       1.661  -7.556   3.562  0.00  0.00    +0.151 C 
BRANCH  10  11
ATOM     11  C   UNL     1       1.560  -8.316   4.856  0.00  0.00    -0.028 A 
ATOM     12  C   UNL     1       2.630  -9.104   5.304  0.00  0.00    +0.005 A 
ATOM     13  C   UNL     1       0.399  -8.246   5.642  0.00  0.00    +0.005 A 
ATOM     14  C   UNL     1       2.548  -9.786   6.521  0.00  0.00    +0.000 A 
ATOM     15  C   UNL     1       0.321  -8.929   6.855  0.00  0.00    +0.000 A 
ATOM     16  C   UNL     1       1.397  -9.697   7.296  0.00  0.00    +0.000 A 
ENDBRANCH  10  11
ENDBRANCH   1  10
TORSDOF 2
ENDMDL
MODEL 5
REMARK VINA RESULT:    -4.353     15.201     15.713
REMARK INTER + INTRA:          -4.989
REMARK INTER:                  -4.812
REMARK INTRA:                  -0.177
REMARK UNBOUND:                -0.127
REMARK  Name = 1550473
REMARK  2 active torsions:
REMARK  status: ('A' for Active; 'I' for Inactive)
REMARK    1  A    between atoms: N_1  and  C_4
REMARK    2  A    between atoms: C_4  and  C_5
REMARK                            x       y       z     vdW  Elec       q    Type
REMARK                         _______ _______ _______ _____ _____    ______ ____
ROOT
ATOM      1  N   UNL     1       7.114  -1.445  -1.159  0.00  0.00    -0.354 N 
ATOM      2  N   UNL     1       9.026  -2.675  -1.600  0.00  0.00    -0.372 N 
ATOM      3  N   UNL     1       7.633  -3.359   0.090  0.00  0.00    -0.372 N 
ATOM      4  C   UNL     1       7.911  -2.486  -0.884  0.00  0.00    +0.166 C 
ATOM      5  H   UNL     1       7.396  -0.802  -1.890  0.00  0.00    +0.163 HD
ATOM      6  H   UNL     1       9.645  -3.453  -1.419  0.00  0.00    +0.159 HD
ATOM      7  H   UNL     1       9.282  -2.057  -2.361  0.00  0.00    +0.159 HD
ATOM      8  H   UNL     1       6.810  -3.269   0.670  0.00  0.00    +0.159 HD
ATOM      9  H   UNL     1       8.246  -4.138   0.295  0.00  0.00    +0.159 HD
ENDROOT
BRANCH   1  10
ATOM     10  C   UNL     1       5.850  -1.180  -0.475  0.00  0.00    +0.151 C 
BRANCH  10  11
ATOM     11  C   UNL     1       4.712  -1.584  -1.371  0.00  0.00    -0.028 A 
ATOM     12  C   UNL     1       4.494  -0.920  -2.587  0.00  0.00    +0.005 A 
ATOM     13  C   UNL     1       3.852  -2.633  -1.013  0.00  0.00    +0.005 A 
ATOM     14  C   UNL     1       3.455  -1.315  -3.435  0.00  0.00    +0.000 A 
ATOM     15  C   UNL     1       2.816  -3.024  -1.862  0.00  0.00    +0.000 A 
ATOM     16  C   UNL     1       2.619  -2.366  -3.073  0.00  0.00    +0.000 A 
ENDBRANCH  10  11
ENDBRANCH   1  10
TORSDOF 2
ENDMDL
MODEL 6
REMARK VINA RESULT:    -4.257     16.815     17.465
REMARK INTER + INTRA:          -4.882
REMARK INTER:                  -4.781
REMARK INTRA:                  -0.101
REMARK UNBOUND:                -0.127
REMARK  Name = 1550473
REMARK  2 active torsions:
REMARK  status: ('A' for Active; 'I' for Inactive)
REMARK    1  A    between atoms: N_1  and  C_4
REMARK    2  A    between atoms: C_4  and  C_5
REMARK                            x       y       z     vdW  Elec       q    Type
REMARK                         _______ _______ _______ _____ _____    ______ ____
ROOT
ATOM      1  N   UNL     1       8.479  -3.171  -1.876  0.00  0.00    -0.354 N 
ATOM      2  N   UNL     1      10.079  -4.278  -3.132  0.00  0.00    -0.372 N 
ATOM      3  N   UNL     1      10.761  -2.939  -1.398  0.00  0.00    -0.372 N 
ATOM      4  C   UNL     1       9.764  -3.454  -2.125  0.00  0.00    +0.166 C 
ATOM      5  H   UNL     1       7.771  -3.569  -2.483  0.00  0.00    +0.163 HD
ATOM      6  H   UNL     1      11.040  -4.513  -3.342  0.00  0.00    +0.159 HD
ATOM      7  H   UNL     1       9.368  -4.712  -3.708  0.00  0.00    +0.159 HD
ATOM      8  H   UNL     1      10.591  -2.305  -0.628  0.00  0.00    +0.159 HD
ATOM      9  H   UNL     1      11.730  -3.153  -1.600  0.00  0.00    +0.159 HD
ENDROOT
BRANCH   1  10
ATOM     10  C   UNL     1       8.026  -2.328  -0.771  0.00  0.00    +0.151 C 
BRANCH  10  11
ATOM     11  C   UNL     1       6.530  -2.197  -0.833  0.00  0.00    -0.028 A 
ATOM     12  C   UNL     1       5.713  -3.337  -0.790  0.00  0.00    +0.005 A 
ATOM     13  C   UNL     1       5.921  -0.936  -0.928  0.00  0.00    +0.005 A 
ATOM     14  C   UNL     1       4.322  -3.215  -0.818  0.00  0.00    +0.000 A 
ATOM     15  C   UNL     1       4.531  -0.819  -0.955  0.00  0.00    +0.000 A 
ATOM     16  C   UNL     1       3.732  -1.958  -0.898  0.00  0.00    +0.000 A 
ENDBRANCH  10  11
ENDBRANCH   1  10
TORSDOF 2
ENDMDL
MODEL 7
REMARK VINA RESULT:    -4.123     20.576     21.466
REMARK INTER + INTRA:          -4.732
REMARK INTER:                  -4.595
REMARK INTRA:                  -0.137
REMARK UNBOUND:                -0.127
REMARK  Name = 1550473
REMARK  2 active torsions:
REMARK  status: ('A' for Active; 'I' for Inactive)
REMARK    1  A    between atoms: N_1  and  C_4
REMARK    2  A    between atoms: C_4  and  C_5
REMARK                            x       y       z     vdW  Elec       q    Type
REMARK                         _______ _______ _______ _____ _____    ______ ____
ROOT
ATOM      1  N   UNL     1       2.171  -9.143   4.704  0.00  0.00    -0.354 N 
ATOM      2  N   UNL     1       1.064  -7.212   4.062  0.00  0.00    -0.372 N 
ATOM      3  N   UNL     1       3.349  -7.166   4.265  0.00  0.00    -0.372 N 
ATOM      4  C   UNL     1       2.205  -7.852   4.348  0.00  0.00    +0.166 C 
ATOM      5  H   UNL     1       1.268  -9.599   4.777  0.00  0.00    +0.163 HD
ATOM      6  H   UNL     1       1.059  -6.239   3.787  0.00  0.00    +0.159 HD
ATOM      7  H   UNL     1       0.168  -7.683   4.092  0.00  0.00    +0.159 HD
ATOM      8  H   UNL     1       4.244  -7.589   4.474  0.00  0.00    +0.159 HD
ATOM      9  H   UNL     1       3.363  -6.188   4.003  0.00  0.00    +0.159 HD
ENDROOT
BRANCH   1  10
ATOM     10  C   UNL     1       3.360  -9.946   4.984  0.00  0.00    +0.151 C 
BRANCH  10  11
ATOM     11  C   UNL     1       3.296 -10.442   6.402  0.00  0.00    -0.028 A 
ATOM     12  C   UNL     1       4.308 -11.266   6.914  0.00  0.00    +0.005 A 
ATOM     13  C   UNL     1       2.228 -10.086   7.240  0.00  0.00    +0.005 A 
ATOM     14  C   UNL     1       4.264 -11.703   8.240  0.00  0.00    +0.000 A 
ATOM     15  C   UNL     1       2.187 -10.525   8.563  0.00  0.00    +0.000 A 
ATOM     16  C   UNL     1       3.206 -11.331   9.064  0.00  0.00    +0.000 A 
ENDBRANCH  10  11
ENDBRANCH   1  10
TORSDOF 2
ENDMDL
MODEL 8
REMARK VINA RESULT:    -3.967     23.403     24.365
REMARK INTER + INTRA:          -4.559
REMARK INTER:                  -4.461
REMARK INTRA:                  -0.098
REMARK UNBOUND:                -0.127
REMARK  Name = 1550473
REMARK  2 active torsions:
REMARK  status: ('A' for Active; 'I' for Inactive)
REMARK    1  A    between atoms: N_1  and  C_4
REMARK    2  A    between atoms: C_4  and  C_5
REMARK                            x       y       z     vdW  Elec       q    Type
REMARK                         _______ _______ _______ _____ _____    ______ ____
ROOT
ATOM      1  N   UNL     1       9.431  24.021   0.471  0.00  0.00    -0.354 N 
ATOM      2  N   UNL     1       9.584  23.893   2.779  0.00  0.00    -0.372 N 
ATOM      3  N   UNL     1      10.402  22.161   1.516  0.00  0.00    -0.372 N 
ATOM      4  C   UNL     1       9.806  23.356   1.573  0.00  0.00    +0.166 C 
ATOM      5  H   UNL     1       8.957  24.909   0.583  0.00  0.00    +0.163 HD
ATOM      6  H   UNL     1       9.858  23.417   3.627  0.00  0.00    +0.159 HD
ATOM      7  H   UNL     1       9.151  24.802   2.886  0.00  0.00    +0.159 HD
ATOM      8  H   UNL     1      10.592  21.699   0.636  0.00  0.00    +0.159 HD
ATOM      9  H   UNL     1      10.673  21.663   2.354  0.00  0.00    +0.159 HD
ENDROOT
BRANCH   1  10
ATOM     10  C   UNL     1       9.675  23.549  -0.891  0.00  0.00    +0.151 C 
BRANCH  10  11
ATOM     11  C   UNL     1       9.611  24.718  -1.835  0.00  0.00    -0.028 A 
ATOM     12  C   UNL     1       8.407  25.411  -2.028  0.00  0.00    +0.005 A 
ATOM     13  C   UNL     1      10.751  25.141  -2.534  0.00  0.00    +0.005 A 
ATOM     14  C   UNL     1       8.353  26.515  -2.882  0.00  0.00    +0.000 A 
ATOM     15  C   UNL     1      10.694  26.244  -3.386  0.00  0.00    +0.000 A 
ATOM     16  C   UNL     1       9.495  26.932  -3.558  0.00  0.00    +0.000 A 
ENDBRANCH  10  11
ENDBRANCH   1  10
TORSDOF 2
ENDMDL
MODEL 9
REMARK VINA RESULT:    -3.929     18.595     20.002
REMARK INTER + INTRA:          -4.516
REMARK INTER:                  -4.382
REMARK INTRA:                  -0.134
REMARK UNBOUND:                -0.127
REMARK  Name = 1550473
REMARK  2 active torsions:
REMARK  status: ('A' for Active; 'I' for Inactive)
REMARK    1  A    between atoms: N_1  and  C_4
REMARK    2  A    between atoms: C_4  and  C_5
REMARK                            x       y       z     vdW  Elec       q    Type
REMARK                         _______ _______ _______ _____ _____    ______ ____
ROOT
ATOM      1  N   UNL     1       9.050  15.994 -11.129  0.00  0.00    -0.354 N 
ATOM      2  N   UNL     1       8.767  17.737 -12.627  0.00  0.00    -0.372 N 
ATOM      3  N   UNL     1      10.875  16.898 -12.287  0.00  0.00    -0.372 N 
ATOM      4  C   UNL     1       9.569  16.865 -12.005  0.00  0.00    +0.166 C 
ATOM      5  H   UNL     1       8.056  16.040 -10.936  0.00  0.00    +0.163 HD
ATOM      6  H   UNL     1       9.129  18.404 -13.295  0.00  0.00    +0.159 HD
ATOM      7  H   UNL     1       7.767  17.751 -12.466  0.00  0.00    +0.159 HD
ATOM      8  H   UNL     1      11.534  16.270 -11.848  0.00  0.00    +0.159 HD
ATOM      9  H   UNL     1      11.258  17.566 -12.945  0.00  0.00    +0.159 HD
ENDROOT
BRANCH   1  10
ATOM     10  C   UNL     1       9.828  14.967 -10.438  0.00  0.00    +0.151 C 
BRANCH  10  11
ATOM     11  C   UNL     1       8.989  13.726 -10.298  0.00  0.00    -0.028 A 
ATOM     12  C   UNL     1       9.304  12.759  -9.332  0.00  0.00    +0.005 A 
ATOM     13  C   UNL     1       7.875  13.514 -11.125  0.00  0.00    +0.005 A 
ATOM     14  C   UNL     1       8.508  11.621  -9.182  0.00  0.00    +0.000 A 
ATOM     15  C   UNL     1       7.084  12.376 -10.972  0.00  0.00    +0.000 A 
ATOM     16  C   UNL     1       7.399  11.431  -9.999  0.00  0.00    +0.000 A 
ENDBRANCH  10  11
ENDBRANCH   1  10
TORSDOF 2
ENDMDL
