MODEL 1
REMARK VINA RESULT:    -5.865      0.000      0.000
REMARK INTER + INTRA:          -6.697
REMARK INTER:                  -6.550
REMARK INTRA:                  -0.147
REMARK UNBOUND:                -0.147
REMARK  Name = 1550473
REMARK  2 active torsions:
REMARK  status: ('A' for Active; 'I' for Inactive)
REMARK    1  A    between atoms: N_1  and  C_4
REMARK    2  A    between atoms: C_4  and  C_5
REMARK                            x       y       z     vdW  Elec       q    Type
REMARK                         _______ _______ _______ _____ _____    ______ ____
ROOT
ATOM      1  N   UNL     1      -1.469  -7.853  -3.100  0.00  0.00    -0.354 N 
ATOM      2  N   UNL     1       0.003  -6.361  -4.086  0.00  0.00    -0.372 N 
ATOM      3  N   UNL     1       0.445  -8.609  -4.222  0.00  0.00    -0.372 N 
ATOM      4  C   UNL     1      -0.349  -7.620  -3.797  0.00  0.00    +0.166 C 
ATOM      5  H   UNL     1      -2.011  -7.059  -2.781  0.00  0.00    +0.163 HD
ATOM      6  H   UNL     1       0.841  -6.155  -4.613  0.00  0.00    +0.159 HD
ATOM      7  H   UNL     1      -0.565  -5.571  -3.805  0.00  0.00    +0.159 HD
ATOM      8  H   UNL     1       0.238  -9.580  -4.031  0.00  0.00    +0.159 HD
ATOM      9  H   UNL     1       1.294  -8.422  -4.741  0.00  0.00    +0.159 HD
ENDROOT
BRANCH   1  10
ATOM     10  C   UNL     1      -1.969  -9.189  -2.779  0.00  0.00    +0.151 C 
BRANCH  10  11
ATOM     11  C   UNL     1      -2.176  -9.292  -1.293  0.00  0.00    -0.028 A 
ATOM     12  C   UNL     1      -3.407  -9.719  -0.774  0.00  0.00    +0.005 A 
ATOM     13  C   UNL     1      -1.144  -8.969  -0.400  0.00  0.00    +0.005 A 
ATOM     14  C   UNL     1      -3.590  -9.844   0.606  0.00  0.00    +0.000 A 
ATOM     15  C   UNL     1      -1.331  -9.094   0.977  0.00  0.00    +0.000 A 
ATOM     16  C   UNL     1      -2.553  -9.534   1.479  0.00  0.00    +0.000 A 
ENDBRANCH  10  11
ENDBRANCH   1  10
TORSDOF 2
ENDMDL
MODEL 2
REMARK VINA RESULT:    -5.675      2.316      3.070
REMARK INTER + INTRA:          -6.486
REMARK INTER:                  -6.350
REMARK INTRA:                  -0.135
REMARK UNBOUND:                -0.147
REMARK  Name = 1550473
REMARK  2 active torsions:
REMARK  status: ('A' for Active; 'I' for Inactive)
REMARK    1  A    between atoms: N_1  and  C_4
REMARK    2  A    between atoms: C_4  and  C_5
REMARK                            x       y       z     vdW  Elec       q    Type
REMARK                         _______ _______ _______ _____ _____    ______ ____
ROOT
ATOM      1  N   UNL     1      -3.281  -8.420  -1.414  0.00  0.00    -0.354 N 
ATOM      2  N   UNL     1      -2.330  -7.440  -3.285  0.00  0.00    -0.372 N 
ATOM      3  N   UNL     1      -0.989  -8.631  -1.853  0.00  0.00    -0.372 N 
ATOM      4  C   UNL     1      -2.204  -8.171  -2.171  0.00  0.00    +0.166 C 
ATOM      5  H   UNL     1      -4.169  -8.017  -1.693  0.00  0.00    +0.163 HD
ATOM      6  H   UNL     1      -1.536  -7.239  -3.877  0.00  0.00    +0.159 HD
ATOM      7  H   UNL     1      -3.226  -7.078  -3.586  0.00  0.00    +0.159 HD
ATOM      8  H   UNL     1      -0.826  -9.184  -1.022  0.00  0.00    +0.159 HD
ATOM      9  H   UNL     1      -0.180  -8.431  -2.428  0.00  0.00    +0.159 HD
ENDROOT
BRANCH   1  10
ATOM     10  C   UNL     1      -3.261  -9.250  -0.211  0.00  0.00    +0.151 C 
BRANCH  10  11
ATOM     11  C   UNL     1      -3.912  -8.496   0.916  0.00  0.00    -0.028 A 
ATOM     12  C   UNL     1      -5.235  -8.774   1.289  0.00  0.00    +0.005 A 
ATOM     13  C   UNL     1      -3.208  -7.506   1.620  0.00  0.00    +0.005 A 
ATOM     14  C   UNL     1      -5.830  -8.095   2.355  0.00  0.00    +0.000 A 
ATOM     15  C   UNL     1      -3.806  -6.830   2.683  0.00  0.00    +0.000 A 
ATOM     16  C   UNL     1      -5.116  -7.126   3.052  0.00  0.00    +0.000 A 
ENDBRANCH  10  11
ENDBRANCH   1  10
TORSDOF 2
ENDMDL
MODEL 3
REMARK VINA RESULT:    -5.134      3.234      4.995
REMARK INTER + INTRA:          -5.881
REMARK INTER:                  -5.729
REMARK INTRA:                  -0.152
REMARK UNBOUND:                -0.147
REMARK  Name = 1550473
REMARK  2 active torsions:
REMARK  status: ('A' for Active; 'I' for Inactive)
REMARK    1  A    between atoms: N_1  and  C_4
REMARK    2  A    between atoms: C_4  and  C_5
REMARK                            x       y       z     vdW  Elec       q    Type
REMARK                         _______ _______ _______ _____ _____    ______ ____
ROOT
ATOM      1  N   UNL     1      -3.114  -8.184   1.167  0.00  0.00    -0.354 N 
ATOM      2  N   UNL     1      -2.404  -7.953   3.359  0.00  0.00    -0.372 N 
ATOM      3  N   UNL     1      -2.237 -10.007   2.350  0.00  0.00    -0.372 N 
ATOM      4  C   UNL     1      -2.590  -8.719   2.277  0.00  0.00    +0.166 C 
ATOM      5  H   UNL     1      -3.389  -7.208   1.186  0.00  0.00    +0.163 HD
ATOM      6  H   UNL     1      -2.007  -8.328   4.210  0.00  0.00    +0.159 HD
ATOM      7  H   UNL     1      -2.636  -6.967   3.360  0.00  0.00    +0.159 HD
ATOM      8  H   UNL     1      -2.357 -10.639   1.570  0.00  0.00    +0.159 HD
ATOM      9  H   UNL     1      -1.849 -10.403   3.196  0.00  0.00    +0.159 HD
ENDROOT
BRANCH   1  10
ATOM     10  C   UNL     1      -3.308  -8.918  -0.082  0.00  0.00    +0.151 C 
BRANCH  10  11
ATOM     11  C   UNL     1      -2.365  -8.377  -1.121  0.00  0.00    -0.028 A 
ATOM     12  C   UNL     1      -1.831  -7.086  -0.996  0.00  0.00    +0.005 A 
ATOM     13  C   UNL     1      -1.996  -9.153  -2.231  0.00  0.00    +0.005 A 
ATOM     14  C   UNL     1      -0.932  -6.594  -1.945  0.00  0.00    +0.000 A 
ATOM     15  C   UNL     1      -1.098  -8.658  -3.177  0.00  0.00    +0.000 A 
ATOM     16  C   UNL     1      -0.565  -7.380  -3.032  0.00  0.00    +0.000 A 
ENDBRANCH  10  11
ENDBRANCH   1  10
TORSDOF 2
ENDMDL
MODEL 4
REMARK VINA RESULT:    -4.693      6.367      8.024
REMARK INTER + INTRA:          -5.389
REMARK INTER:                  -5.267
REMARK INTRA:                  -0.122
REMARK UNBOUND:                -0.147
REMARK  Name = 1550473
REMARK  2 active torsions:
REMARK  status: ('A' for Active; 'I' for Inactive)
REMARK    1  A    between atoms: N_1  and  C_4
REMARK    2  A    between atoms: C_4  and  C_5
REMARK                            x       y       z     vdW  Elec       q    Type
REMARK                         _______ _______ _______ _____ _____    ______ ____
ROOT
ATOM      1  N   UNL     1      -7.115  -7.396   4.195  0.00  0.00    -0.354 N 
ATOM      2  N   UNL     1      -8.008  -7.077   6.307  0.00  0.00    -0.372 N 
ATOM      3  N   UNL     1      -9.076  -8.496   4.855  0.00  0.00    -0.372 N 
ATOM      4  C   UNL     1      -8.063  -7.660   5.104  0.00  0.00    +0.166 C 
ATOM      5  H   UNL     1      -6.390  -6.730   4.434  0.00  0.00    +0.163 HD
ATOM      6  H   UNL     1      -8.707  -7.259   7.015  0.00  0.00    +0.159 HD
ATOM      7  H   UNL     1      -7.257  -6.447   6.561  0.00  0.00    +0.159 HD
ATOM      8  H   UNL     1      -9.177  -8.964   3.964  0.00  0.00    +0.159 HD
ATOM      9  H   UNL     1      -9.792  -8.683   5.546  0.00  0.00    +0.159 HD
ENDROOT
BRANCH   1  10
ATOM     10  C   UNL     1      -7.052  -8.020   2.874  0.00  0.00    +0.151 C 
BRANCH  10  11
ATOM     11  C   UNL     1      -5.642  -7.937   2.358  0.00  0.00    -0.028 A 
ATOM     12  C   UNL     1      -5.211  -8.783   1.326  0.00  0.00    +0.005 A 
ATOM     13  C   UNL     1      -4.734  -7.010   2.893  0.00  0.00    +0.005 A 
ATOM     14  C   UNL     1      -3.910  -8.686   0.826  0.00  0.00    +0.000 A 
ATOM     15  C   UNL     1      -3.436  -6.917   2.391  0.00  0.00    +0.000 A 
ATOM     16  C   UNL     1      -3.025  -7.753   1.356  0.00  0.00    +0.000 A 
ENDBRANCH  10  11
ENDBRANCH   1  10
TORSDOF 2
ENDMDL
MODEL 5
REMARK VINA RESULT:    -4.559      7.277      8.804
REMARK INTER + INTRA:          -5.239
REMARK INTER:                  -5.136
REMARK INTRA:                  -0.103
REMARK UNBOUND:                -0.147
REMARK  Name = 1550473
REMARK  2 active torsions:
REMARK  status: ('A' for Active; 'I' for Inactive)
REMARK    1  A    between atoms: N_1  and  C_4
REMARK    2  A    between atoms: C_4  and  C_5
REMARK                            x       y       z     vdW  Elec       q    Type
REMARK                         _______ _______ _______ _____ _____    ______ ____
ROOT
ATOM      1  N   UNL     1      -3.659  -9.352   6.911  0.00  0.00    -0.354 N 
ATOM      2  N   UNL     1      -3.719  -9.608   9.212  0.00  0.00    -0.372 N 
ATOM      3  N   UNL     1      -2.200 -10.828   7.999  0.00  0.00    -0.372 N 
ATOM      4  C   UNL     1      -3.190  -9.930   8.025  0.00  0.00    +0.166 C 
ATOM      5  H   UNL     1      -4.432  -8.701   6.995  0.00  0.00    +0.163 HD
ATOM      6  H   UNL     1      -3.383 -10.025  10.070  0.00  0.00    +0.159 HD
ATOM      7  H   UNL     1      -4.460  -8.923   9.298  0.00  0.00    +0.159 HD
ATOM      8  H   UNL     1      -1.763 -11.118   7.135  0.00  0.00    +0.159 HD
ATOM      9  H   UNL     1      -1.859 -11.265   8.846  0.00  0.00    +0.159 HD
ENDROOT
BRANCH   1  10
ATOM     10  C   UNL     1      -3.117  -9.592   5.575  0.00  0.00    +0.151 C 
BRANCH  10  11
ATOM     11  C   UNL     1      -3.767  -8.645   4.604  0.00  0.00    -0.028 A 
ATOM     12  C   UNL     1      -2.985  -7.866   3.739  0.00  0.00    +0.005 A 
ATOM     13  C   UNL     1      -5.164  -8.528   4.540  0.00  0.00    +0.005 A 
ATOM     14  C   UNL     1      -3.589  -7.008   2.816  0.00  0.00    +0.000 A 
ATOM     15  C   UNL     1      -5.763  -7.670   3.617  0.00  0.00    +0.000 A 
ATOM     16  C   UNL     1      -4.975  -6.913   2.754  0.00  0.00    +0.000 A 
ENDBRANCH  10  11
ENDBRANCH   1  10
TORSDOF 2
ENDMDL
MODEL 6
REMARK VINA RESULT:    -4.316     18.998     19.934
REMARK INTER + INTRA:          -4.967
REMARK INTER:                  -4.844
REMARK INTRA:                  -0.123
REMARK UNBOUND:                -0.147
REMARK  Name = 1550473
REMARK  2 active torsions:
REMARK  status: ('A' for Active; 'I' for Inactive)
REMARK    1  A    between atoms: N_1  and  C_4
REMARK    2  A    between atoms: C_4  and  C_5
REMARK                            x       y       z     vdW  Elec       q    Type
REMARK                         _______ _______ _______ _____ _____    ______ ____
ROOT
ATOM      1  N   UNL     1      -8.701   6.599  10.089  0.00  0.00    -0.354 N 
ATOM      2  N   UNL     1      -9.640   6.632  12.206  0.00  0.00    -0.372 N 
ATOM      3  N   UNL     1      -7.425   7.183  11.966  0.00  0.00    -0.372 N 
ATOM      4  C   UNL     1      -8.580   6.805  11.407  0.00  0.00    +0.166 C 
ATOM      5  H   UNL     1      -9.595   6.284   9.731  0.00  0.00    +0.163 HD
ATOM      6  H   UNL     1      -9.579   6.784  13.204  0.00  0.00    +0.159 HD
ATOM      7  H   UNL     1     -10.544   6.362  11.840  0.00  0.00    +0.159 HD
ATOM      8  H   UNL     1      -6.586   7.325  11.419  0.00  0.00    +0.159 HD
ATOM      9  H   UNL     1      -7.342   7.328  12.965  0.00  0.00    +0.159 HD
ENDROOT
BRANCH   1  10
ATOM     10  C   UNL     1      -7.622   6.811   9.126  0.00  0.00    +0.151 C 
BRANCH  10  11
ATOM     11  C   UNL     1      -8.055   6.294   7.782  0.00  0.00    -0.028 A 
ATOM     12  C   UNL     1      -7.290   6.561   6.636  0.00  0.00    +0.005 A 
ATOM     13  C   UNL     1      -9.226   5.533   7.647  0.00  0.00    +0.005 A 
ATOM     14  C   UNL     1      -7.676   6.055   5.392  0.00  0.00    +0.000 A 
ATOM     15  C   UNL     1      -9.608   5.031   6.403  0.00  0.00    +0.000 A 
ATOM     16  C   UNL     1      -8.831   5.290   5.277  0.00  0.00    +0.000 A 
ENDBRANCH  10  11
ENDBRANCH   1  10
TORSDOF 2
ENDMDL
MODEL 7
REMARK VINA RESULT:    -4.173     16.698     17.169
REMARK INTER + INTRA:          -4.808
REMARK INTER:                  -4.717
REMARK INTRA:                  -0.091
REMARK UNBOUND:                -0.147
REMARK  Name = 1550473
REMARK  2 active torsions:
REMARK  status: ('A' for Active; 'I' for Inactive)
REMARK    1  A    between atoms: N_1  and  C_4
REMARK    2  A    between atoms: C_4  and  C_5
REMARK                            x       y       z     vdW  Elec       q    Type
REMARK                         _______ _______ _______ _____ _____    ______ ____
ROOT
ATOM      1  N   UNL     1     -10.766   3.831   0.838  0.00  0.00    -0.354 N 
ATOM      2  N   UNL     1     -10.538   2.019  -0.587  0.00  0.00    -0.372 N 
ATOM      3  N   UNL     1     -12.629   2.569   0.183  0.00  0.00    -0.372 N 
ATOM      4  C   UNL     1     -11.315   2.818   0.155  0.00  0.00    +0.166 C 
ATOM      5  H   UNL     1      -9.760   3.948   0.799  0.00  0.00    +0.163 HD
ATOM      6  H   UNL     1     -10.925   1.249  -1.116  0.00  0.00    +0.159 HD
ATOM      7  H   UNL     1      -9.539   2.167  -0.660  0.00  0.00    +0.159 HD
ATOM      8  H   UNL     1     -13.269   3.131   0.728  0.00  0.00    +0.159 HD
ATOM      9  H   UNL     1     -13.033   1.796  -0.330  0.00  0.00    +0.159 HD
ENDROOT
BRANCH   1  10
ATOM     10  C   UNL     1     -11.531   4.791   1.632  0.00  0.00    +0.151 C 
BRANCH  10  11
ATOM     11  C   UNL     1     -10.580   5.760   2.280  0.00  0.00    -0.028 A 
ATOM     12  C   UNL     1     -10.043   6.828   1.547  0.00  0.00    +0.005 A 
ATOM     13  C   UNL     1     -10.217   5.618   3.628  0.00  0.00    +0.005 A 
ATOM     14  C   UNL     1      -9.184   7.746   2.157  0.00  0.00    +0.000 A 
ATOM     15  C   UNL     1      -9.358   6.536   4.233  0.00  0.00    +0.000 A 
ATOM     16  C   UNL     1      -8.844   7.601   3.497  0.00  0.00    +0.000 A 
ENDBRANCH  10  11
ENDBRANCH   1  10
TORSDOF 2
ENDMDL
MODEL 8
REMARK VINA RESULT:    -4.092      3.411      4.750
REMARK INTER + INTRA:          -4.717
REMARK INTER:                  -4.605
REMARK INTRA:                  -0.112
REMARK UNBOUND:                -0.147
REMARK  Name = 1550473
REMARK  2 active torsions:
REMARK  status: ('A' for Active; 'I' for Inactive)
REMARK    1  A    between atoms: N_1  and  C_4
REMARK    2  A    between atoms: C_4  and  C_5
REMARK                            x       y       z     vdW  Elec       q    Type
REMARK                         _______ _______ _______ _____ _____    ______ ____
ROOT
ATOM      1  N   UNL     1      -4.105  -9.598  -0.115  0.00  0.00    -0.354 N 
ATOM      2  N   UNL     1      -3.100  -9.313  -2.182  0.00  0.00    -0.372 N 
ATOM      3  N   UNL     1      -1.777  -9.418  -0.311  0.00  0.00    -0.372 N 
ATOM      4  C   UNL     1      -2.998  -9.445  -0.854  0.00  0.00    +0.166 C 
ATOM      5  H   UNL     1      -5.003  -9.580  -0.584  0.00  0.00    +0.163 HD
ATOM      6  H   UNL     1      -2.282  -9.199  -2.766  0.00  0.00    +0.159 HD
ATOM      7  H   UNL     1      -3.996  -9.341  -2.653  0.00  0.00    +0.159 HD
ATOM      8  H   UNL     1      -1.632  -9.507   0.686  0.00  0.00    +0.159 HD
ATOM      9  H   UNL     1      -0.947  -9.294  -0.877  0.00  0.00    +0.159 HD
ENDROOT
BRANCH   1  10
ATOM     10  C   UNL     1      -4.100  -9.804   1.332  0.00  0.00    +0.151 C 
BRANCH  10  11
ATOM     11  C   UNL     1      -5.270  -9.077   1.936  0.00  0.00    -0.028 A 
ATOM     12  C   UNL     1      -6.562  -9.258   1.422  0.00  0.00    +0.005 A 
ATOM     13  C   UNL     1      -5.093  -8.210   3.026  0.00  0.00    +0.005 A 
ATOM     14  C   UNL     1      -7.654  -8.606   2.001  0.00  0.00    +0.000 A 
ATOM     15  C   UNL     1      -6.186  -7.561   3.601  0.00  0.00    +0.000 A 
ATOM     16  C   UNL     1      -7.466  -7.761   3.090  0.00  0.00    +0.000 A 
ENDBRANCH  10  11
ENDBRANCH   1  10
TORSDOF 2
ENDMDL
MODEL 9
REMARK VINA RESULT:    -4.083      4.760      6.489
REMARK INTER + INTRA:          -4.708
REMARK INTER:                  -4.597
REMARK INTRA:                  -0.111
REMARK UNBOUND:                -0.147
REMARK  Name = 1550473
REMARK  2 active torsions:
REMARK  status: ('A' for Active; 'I' for Inactive)
REMARK    1  A    between atoms: N_1  and  C_4
REMARK    2  A    between atoms: C_4  and  C_5
REMARK                            x       y       z     vdW  Elec       q    Type
REMARK                         _______ _______ _______ _____ _____    ______ ____
ROOT
ATOM      1  N   UNL     1      -5.143  -7.658   2.831  0.00  0.00    -0.354 N 
ATOM      2  N   UNL     1      -7.429  -7.457   3.145  0.00  0.00    -0.372 N 
ATOM      3  N   UNL     1      -6.147  -8.313   4.845  0.00  0.00    -0.372 N 
ATOM      4  C   UNL     1      -6.224  -7.812   3.607  0.00  0.00    +0.166 C 
ATOM      5  H   UNL     1      -5.272  -7.301   1.892  0.00  0.00    +0.163 HD
ATOM      6  H   UNL     1      -8.262  -7.559   3.709  0.00  0.00    +0.159 HD
ATOM      7  H   UNL     1      -7.549  -7.058   2.222  0.00  0.00    +0.159 HD
ATOM      8  H   UNL     1      -5.268  -8.605   5.251  0.00  0.00    +0.159 HD
ATOM      9  H   UNL     1      -6.971  -8.433   5.420  0.00  0.00    +0.159 HD
ENDROOT
BRANCH   1  10
ATOM     10  C   UNL     1      -3.779  -7.963   3.259  0.00  0.00    +0.151 C 
BRANCH  10  11
ATOM     11  C   UNL     1      -2.901  -8.098   2.045  0.00  0.00    -0.028 A 
ATOM     12  C   UNL     1      -1.915  -9.094   1.987  0.00  0.00    +0.005 A 
ATOM     13  C   UNL     1      -3.055  -7.237   0.948  0.00  0.00    +0.005 A 
ATOM     14  C   UNL     1      -1.120  -9.239   0.847  0.00  0.00    +0.000 A 
ATOM     15  C   UNL     1      -2.259  -7.385  -0.188  0.00  0.00    +0.000 A 
ATOM     16  C   UNL     1      -1.293  -8.387  -0.239  0.00  0.00    +0.000 A 
ENDBRANCH  10  11
ENDBRANCH   1  10
TORSDOF 2
ENDMDL
