MODEL 1
REMARK VINA RESULT:    -4.397      0.000      0.000
REMARK INTER + INTRA:          -5.053
REMARK INTER:                  -4.911
REMARK INTRA:                  -0.143
REMARK UNBOUND:                -0.143
REMARK  Name = 1550473
REMARK  2 active torsions:
REMARK  status: ('A' for Active; 'I' for Inactive)
REMARK    1  A    between atoms: N_1  and  C_4
REMARK    2  A    between atoms: C_4  and  C_5
REMARK                            x       y       z     vdW  Elec       q    Type
REMARK                         _______ _______ _______ _____ _____    ______ ____
ROOT
ATOM      1  N   UNL     1      19.901  -3.108  22.662  0.00  0.00    -0.354 N 
ATOM      2  N   UNL     1      17.609  -3.027  22.983  0.00  0.00    -0.372 N 
ATOM      3  N   UNL     1      18.688  -5.041  23.196  0.00  0.00    -0.372 N 
ATOM      4  C   UNL     1      18.748  -3.729  22.945  0.00  0.00    +0.166 C 
ATOM      5  H   UNL     1      19.875  -2.117  22.451  0.00  0.00    +0.163 HD
ATOM      6  H   UNL     1      16.724  -3.468  23.197  0.00  0.00    +0.159 HD
ATOM      7  H   UNL     1      17.592  -2.028  22.817  0.00  0.00    +0.159 HD
ATOM      8  H   UNL     1      19.512  -5.628  23.177  0.00  0.00    +0.159 HD
ATOM      9  H   UNL     1      17.811  -5.502  23.401  0.00  0.00    +0.159 HD
ENDROOT
BRANCH   1  10
ATOM     10  C   UNL     1      21.204  -3.770  22.648  0.00  0.00    +0.151 C 
BRANCH  10  11
ATOM     11  C   UNL     1      21.883  -3.490  21.336  0.00  0.00    -0.028 A 
ATOM     12  C   UNL     1      22.938  -4.301  20.892  0.00  0.00    +0.005 A 
ATOM     13  C   UNL     1      21.473  -2.418  20.528  0.00  0.00    +0.005 A 
ATOM     14  C   UNL     1      23.550  -4.059  19.660  0.00  0.00    +0.000 A 
ATOM     15  C   UNL     1      22.087  -2.179  19.299  0.00  0.00    +0.000 A 
ATOM     16  C   UNL     1      23.123  -3.002  18.864  0.00  0.00    +0.000 A 
ENDBRANCH  10  11
ENDBRANCH   1  10
TORSDOF 2
ENDMDL
MODEL 2
REMARK VINA RESULT:    -4.362     46.656     47.519
REMARK INTER + INTRA:          -5.014
REMARK INTER:                  -4.839
REMARK INTRA:                  -0.175
REMARK UNBOUND:                -0.143
REMARK  Name = 1550473
REMARK  2 active torsions:
REMARK  status: ('A' for Active; 'I' for Inactive)
REMARK    1  A    between atoms: N_1  and  C_4
REMARK    2  A    between atoms: C_4  and  C_5
REMARK                            x       y       z     vdW  Elec       q    Type
REMARK                         _______ _______ _______ _____ _____    ______ ____
ROOT
ATOM      1  N   UNL     1     -11.631  -0.916 -10.783  0.00  0.00    -0.354 N 
ATOM      2  N   UNL     1      -9.511  -1.590 -10.136  0.00  0.00    -0.372 N 
ATOM      3  N   UNL     1     -11.335  -2.661  -9.246  0.00  0.00    -0.372 N 
ATOM      4  C   UNL     1     -10.841  -1.720 -10.057  0.00  0.00    +0.166 C 
ATOM      5  H   UNL     1     -11.195  -0.203 -11.355  0.00  0.00    +0.163 HD
ATOM      6  H   UNL     1      -8.890  -2.183  -9.603  0.00  0.00    +0.159 HD
ATOM      7  H   UNL     1      -9.077  -0.906 -10.744  0.00  0.00    +0.159 HD
ATOM      8  H   UNL     1     -12.329  -2.806  -9.138  0.00  0.00    +0.159 HD
ATOM      9  H   UNL     1     -10.729  -3.257  -8.696  0.00  0.00    +0.159 HD
ENDROOT
BRANCH   1  10
ATOM     10  C   UNL     1     -13.089  -1.012 -10.810  0.00  0.00    +0.151 C 
BRANCH  10  11
ATOM     11  C   UNL     1     -13.513  -1.699 -12.079  0.00  0.00    -0.028 A 
ATOM     12  C   UNL     1     -13.131  -1.187 -13.328  0.00  0.00    +0.005 A 
ATOM     13  C   UNL     1     -14.291  -2.866 -12.039  0.00  0.00    +0.005 A 
ATOM     14  C   UNL     1     -13.499  -1.842 -14.505  0.00  0.00    +0.000 A 
ATOM     15  C   UNL     1     -14.657  -3.517 -13.217  0.00  0.00    +0.000 A 
ATOM     16  C   UNL     1     -14.258  -3.006 -14.450  0.00  0.00    +0.000 A 
ENDBRANCH  10  11
ENDBRANCH   1  10
TORSDOF 2
ENDMDL
MODEL 3
REMARK VINA RESULT:    -4.307     15.863     16.640
REMARK INTER + INTRA:          -4.953
REMARK INTER:                  -4.804
REMARK INTRA:                  -0.149
REMARK UNBOUND:                -0.143
REMARK  Name = 1550473
REMARK  2 active torsions:
REMARK  status: ('A' for Active; 'I' for Inactive)
REMARK    1  A    between atoms: N_1  and  C_4
REMARK    2  A    between atoms: C_4  and  C_5
REMARK                            x       y       z     vdW  Elec       q    Type
REMARK                         _______ _______ _______ _____ _____    ______ ____
ROOT
ATOM      1  N   UNL     1      15.097  -9.720   7.985  0.00  0.00    -0.354 N 
ATOM      2  N   UNL     1      15.069 -12.033   7.862  0.00  0.00    -0.372 N 
ATOM      3  N   UNL     1      17.090 -10.954   7.985  0.00  0.00    -0.372 N 
ATOM      4  C   UNL     1      15.755 -10.887   7.945  0.00  0.00    +0.166 C 
ATOM      5  H   UNL     1      14.086  -9.736   7.920  0.00  0.00    +0.163 HD
ATOM      6  H   UNL     1      15.537 -12.928   7.834  0.00  0.00    +0.159 HD
ATOM      7  H   UNL     1      14.056 -12.048   7.844  0.00  0.00    +0.159 HD
ATOM      8  H   UNL     1      17.666 -10.124   8.042  0.00  0.00    +0.159 HD
ATOM      9  H   UNL     1      17.578 -11.840   7.946  0.00  0.00    +0.159 HD
ENDROOT
BRANCH   1  10
ATOM     10  C   UNL     1      15.748  -8.419   8.128  0.00  0.00    +0.151 C 
BRANCH  10  11
ATOM     11  C   UNL     1      15.308  -7.523   7.003  0.00  0.00    -0.028 A 
ATOM     12  C   UNL     1      15.503  -7.908   5.669  0.00  0.00    +0.005 A 
ATOM     13  C   UNL     1      14.691  -6.291   7.265  0.00  0.00    +0.005 A 
ATOM     14  C   UNL     1      15.067  -7.090   4.624  0.00  0.00    +0.000 A 
ATOM     15  C   UNL     1      14.258  -5.476   6.219  0.00  0.00    +0.000 A 
ATOM     16  C   UNL     1      14.444  -5.877   4.898  0.00  0.00    +0.000 A 
ENDBRANCH  10  11
ENDBRANCH   1  10
TORSDOF 2
ENDMDL
MODEL 4
REMARK VINA RESULT:    -4.201     15.071     16.085
REMARK INTER + INTRA:          -4.834
REMARK INTER:                  -4.707
REMARK INTRA:                  -0.127
REMARK UNBOUND:                -0.143
REMARK  Name = 1550473
REMARK  2 active torsions:
REMARK  status: ('A' for Active; 'I' for Inactive)
REMARK    1  A    between atoms: N_1  and  C_4
REMARK    2  A    between atoms: C_4  and  C_5
REMARK                            x       y       z     vdW  Elec       q    Type
REMARK                         _______ _______ _______ _____ _____    ______ ____
ROOT
ATOM      1  N   UNL     1      20.254 -10.064   8.194  0.00  0.00    -0.354 N 
ATOM      2  N   UNL     1      22.512 -10.551   8.033  0.00  0.00    -0.372 N 
ATOM      3  N   UNL     1      21.683  -8.743   6.890  0.00  0.00    -0.372 N 
ATOM      4  C   UNL     1      21.468  -9.781   7.705  0.00  0.00    +0.166 C 
ATOM      5  H   UNL     1      20.151 -10.883   8.783  0.00  0.00    +0.163 HD
ATOM      6  H   UNL     1      23.441 -10.360   7.681  0.00  0.00    +0.159 HD
ATOM      7  H   UNL     1      22.415 -11.342   8.658  0.00  0.00    +0.159 HD
ATOM      8  H   UNL     1      20.936  -8.126   6.599  0.00  0.00    +0.159 HD
ATOM      9  H   UNL     1      22.603  -8.542   6.518  0.00  0.00    +0.159 HD
ENDROOT
BRANCH   1  10
ATOM     10  C   UNL     1      19.061  -9.257   7.942  0.00  0.00    +0.151 C 
BRANCH  10  11
ATOM     11  C   UNL     1      17.846 -10.140   8.015  0.00  0.00    -0.028 A 
ATOM     12  C   UNL     1      16.603  -9.610   8.390  0.00  0.00    +0.005 A 
ATOM     13  C   UNL     1      17.930 -11.506   7.705  0.00  0.00    +0.005 A 
ATOM     14  C   UNL     1      15.468 -10.423   8.430  0.00  0.00    +0.000 A 
ATOM     15  C   UNL     1      16.794 -12.314   7.746  0.00  0.00    +0.000 A 
ATOM     16  C   UNL     1      15.563 -11.772   8.106  0.00  0.00    +0.000 A 
ENDBRANCH  10  11
ENDBRANCH   1  10
TORSDOF 2
ENDMDL
MODEL 5
REMARK VINA RESULT:    -4.195     27.009     28.145
REMARK INTER + INTRA:          -4.828
REMARK INTER:                  -4.715
REMARK INTRA:                  -0.113
REMARK UNBOUND:                -0.143
REMARK  Name = 1550473
REMARK  2 active torsions:
REMARK  status: ('A' for Active; 'I' for Inactive)
REMARK    1  A    between atoms: N_1  and  C_4
REMARK    2  A    between atoms: C_4  and  C_5
REMARK                            x       y       z     vdW  Elec       q    Type
REMARK                         _______ _______ _______ _____ _____    ______ ____
ROOT
ATOM      1  N   UNL     1      -1.726  13.767  26.143  0.00  0.00    -0.354 N 
ATOM      2  N   UNL     1      -3.985  14.255  26.286  0.00  0.00    -0.372 N 
ATOM      3  N   UNL     1      -3.188  12.373  27.330  0.00  0.00    -0.372 N 
ATOM      4  C   UNL     1      -2.951  13.459  26.587  0.00  0.00    +0.166 C 
ATOM      5  H   UNL     1      -1.618  14.588  25.558  0.00  0.00    +0.163 HD
ATOM      6  H   UNL     1      -4.921  14.050  26.610  0.00  0.00    +0.159 HD
ATOM      7  H   UNL     1      -3.867  15.099  25.740  0.00  0.00    +0.159 HD
ATOM      8  H   UNL     1      -2.452  11.729  27.587  0.00  0.00    +0.159 HD
ATOM      9  H   UNL     1      -4.120  12.145  27.654  0.00  0.00    +0.159 HD
ENDROOT
BRANCH   1  10
ATOM     10  C   UNL     1      -0.524  12.997  26.459  0.00  0.00    +0.151 C 
BRANCH  10  11
ATOM     11  C   UNL     1       0.643  13.937  26.587  0.00  0.00    -0.028 A 
ATOM     12  C   UNL     1       0.756  14.784  27.699  0.00  0.00    +0.005 A 
ATOM     13  C   UNL     1       1.641  13.982  25.601  0.00  0.00    +0.005 A 
ATOM     14  C   UNL     1       1.855  15.635  27.833  0.00  0.00    +0.000 A 
ATOM     15  C   UNL     1       2.736  14.835  25.738  0.00  0.00    +0.000 A 
ATOM     16  C   UNL     1       2.844  15.659  26.856  0.00  0.00    +0.000 A 
ENDBRANCH  10  11
ENDBRANCH   1  10
TORSDOF 2
ENDMDL
MODEL 6
REMARK VINA RESULT:    -4.147     17.544     18.376
REMARK INTER + INTRA:          -4.774
REMARK INTER:                  -4.602
REMARK INTRA:                  -0.172
REMARK UNBOUND:                -0.143
REMARK  Name = 1550473
REMARK  2 active torsions:
REMARK  status: ('A' for Active; 'I' for Inactive)
REMARK    1  A    between atoms: N_1  and  C_4
REMARK    2  A    between atoms: C_4  and  C_5
REMARK                            x       y       z     vdW  Elec       q    Type
REMARK                         _______ _______ _______ _____ _____    ______ ____
ROOT
ATOM      1  N   UNL     1      12.650  -4.696   4.369  0.00  0.00    -0.354 N 
ATOM      2  N   UNL     1      10.628  -5.079   3.307  0.00  0.00    -0.372 N 
ATOM      3  N   UNL     1      12.575  -5.558   2.191  0.00  0.00    -0.372 N 
ATOM      4  C   UNL     1      11.966  -5.109   3.294  0.00  0.00    +0.166 C 
ATOM      5  H   UNL     1      12.130  -4.339   5.162  0.00  0.00    +0.163 HD
ATOM      6  H   UNL     1      10.085  -5.388   2.512  0.00  0.00    +0.159 HD
ATOM      7  H   UNL     1      10.110  -4.765   4.118  0.00  0.00    +0.159 HD
ATOM      8  H   UNL     1      13.583  -5.600   2.115  0.00  0.00    +0.159 HD
ATOM      9  H   UNL     1      12.049  -5.860   1.381  0.00  0.00    +0.159 HD
ENDROOT
BRANCH   1  10
ATOM     10  C   UNL     1      14.107  -4.739   4.477  0.00  0.00    +0.151 C 
BRANCH  10  11
ATOM     11  C   UNL     1      14.498  -5.835   5.430  0.00  0.00    -0.028 A 
ATOM     12  C   UNL     1      14.961  -7.067   4.947  0.00  0.00    +0.005 A 
ATOM     13  C   UNL     1      14.411  -5.645   6.818  0.00  0.00    +0.005 A 
ATOM     14  C   UNL     1      15.352  -8.075   5.832  0.00  0.00    +0.000 A 
ATOM     15  C   UNL     1      14.802  -6.654   7.698  0.00  0.00    +0.000 A 
ATOM     16  C   UNL     1      15.275  -7.868   7.205  0.00  0.00    +0.000 A 
ENDBRANCH  10  11
ENDBRANCH   1  10
TORSDOF 2
ENDMDL
MODEL 7
REMARK VINA RESULT:    -4.128      2.952      4.430
REMARK INTER + INTRA:          -4.753
REMARK INTER:                  -4.626
REMARK INTRA:                  -0.126
REMARK UNBOUND:                -0.143
REMARK  Name = 1550473
REMARK  2 active torsions:
REMARK  status: ('A' for Active; 'I' for Inactive)
REMARK    1  A    between atoms: N_1  and  C_4
REMARK    2  A    between atoms: C_4  and  C_5
REMARK                            x       y       z     vdW  Elec       q    Type
REMARK                         _______ _______ _______ _____ _____    ______ ____
ROOT
ATOM      1  N   UNL     1      18.055  -1.254  21.510  0.00  0.00    -0.354 N 
ATOM      2  N   UNL     1      16.178  -0.325  20.521  0.00  0.00    -0.372 N 
ATOM      3  N   UNL     1      18.247   0.190  19.674  0.00  0.00    -0.372 N 
ATOM      4  C   UNL     1      17.508  -0.468  20.573  0.00  0.00    +0.166 C 
ATOM      5  H   UNL     1      17.442  -1.701  22.181  0.00  0.00    +0.163 HD
ATOM      6  H   UNL     1      15.736   0.259  19.824  0.00  0.00    +0.159 HD
ATOM      7  H   UNL     1      15.564  -0.810  21.165  0.00  0.00    +0.159 HD
ATOM      8  H   UNL     1      19.257   0.129  19.663  0.00  0.00    +0.159 HD
ATOM      9  H   UNL     1      17.824   0.788  18.975  0.00  0.00    +0.159 HD
ENDROOT
BRANCH   1  10
ATOM     10  C   UNL     1      19.489  -1.520  21.619  0.00  0.00    +0.151 C 
BRANCH  10  11
ATOM     11  C   UNL     1      19.696  -2.775  22.420  0.00  0.00    -0.028 A 
ATOM     12  C   UNL     1      20.990  -3.253  22.673  0.00  0.00    +0.005 A 
ATOM     13  C   UNL     1      18.602  -3.489  22.934  0.00  0.00    +0.005 A 
ATOM     14  C   UNL     1      21.185  -4.402  23.443  0.00  0.00    +0.000 A 
ATOM     15  C   UNL     1      18.801  -4.636  23.702  0.00  0.00    +0.000 A 
ATOM     16  C   UNL     1      20.092  -5.091  23.958  0.00  0.00    +0.000 A 
ENDBRANCH  10  11
ENDBRANCH   1  10
TORSDOF 2
ENDMDL
MODEL 8
REMARK VINA RESULT:    -4.060     37.454     38.437
REMARK INTER + INTRA:          -4.677
REMARK INTER:                  -4.551
REMARK INTRA:                  -0.126
REMARK UNBOUND:                -0.143
REMARK  Name = 1550473
REMARK  2 active torsions:
REMARK  status: ('A' for Active; 'I' for Inactive)
REMARK    1  A    between atoms: N_1  and  C_4
REMARK    2  A    between atoms: C_4  and  C_5
REMARK                            x       y       z     vdW  Elec       q    Type
REMARK                         _______ _______ _______ _____ _____    ______ ____
ROOT
ATOM      1  N   UNL     1      -8.600  20.708  13.502  0.00  0.00    -0.354 N 
ATOM      2  N   UNL     1      -9.601  19.555  11.760  0.00  0.00    -0.372 N 
ATOM      3  N   UNL     1     -10.691  19.685  13.775  0.00  0.00    -0.372 N 
ATOM      4  C   UNL     1      -9.626  19.990  13.026  0.00  0.00    +0.166 C 
ATOM      5  H   UNL     1      -7.809  20.880  12.893  0.00  0.00    +0.163 HD
ATOM      6  H   UNL     1     -10.362  19.014  11.372  0.00  0.00    +0.159 HD
ATOM      7  H   UNL     1      -8.829  19.767  11.140  0.00  0.00    +0.159 HD
ATOM      8  H   UNL     1     -10.768  19.978  14.740  0.00  0.00    +0.159 HD
ATOM      9  H   UNL     1     -11.457  19.135  13.408  0.00  0.00    +0.159 HD
ENDROOT
BRANCH   1  10
ATOM     10  C   UNL     1      -8.554  21.274  14.849  0.00  0.00    +0.151 C 
BRANCH  10  11
ATOM     11  C   UNL     1      -7.141  21.684  15.162  0.00  0.00    -0.028 A 
ATOM     12  C   UNL     1      -6.108  21.433  14.246  0.00  0.00    +0.005 A 
ATOM     13  C   UNL     1      -6.830  22.328  16.369  0.00  0.00    +0.005 A 
ATOM     14  C   UNL     1      -4.801  21.840  14.523  0.00  0.00    +0.000 A 
ATOM     15  C   UNL     1      -5.523  22.732  16.642  0.00  0.00    +0.000 A 
ATOM     16  C   UNL     1      -4.509  22.490  15.718  0.00  0.00    +0.000 A 
ENDBRANCH  10  11
ENDBRANCH   1  10
TORSDOF 2
ENDMDL
MODEL 9
REMARK VINA RESULT:    -4.018      6.770      7.969
REMARK INTER + INTRA:          -4.631
REMARK INTER:                  -4.532
REMARK INTRA:                  -0.099
REMARK UNBOUND:                -0.143
REMARK  Name = 1550473
REMARK  2 active torsions:
REMARK  status: ('A' for Active; 'I' for Inactive)
REMARK    1  A    between atoms: N_1  and  C_4
REMARK    2  A    between atoms: C_4  and  C_5
REMARK                            x       y       z     vdW  Elec       q    Type
REMARK                         _______ _______ _______ _____ _____    ______ ____
ROOT
ATOM      1  N   UNL     1      23.645  -9.379  16.020  0.00  0.00    -0.354 N 
ATOM      2  N   UNL     1      24.429 -10.761  14.335  0.00  0.00    -0.372 N 
ATOM      3  N   UNL     1      22.294 -11.069  15.119  0.00  0.00    -0.372 N 
ATOM      4  C   UNL     1      23.448 -10.395  15.169  0.00  0.00    +0.166 C 
ATOM      5  H   UNL     1      24.553  -8.929  16.030  0.00  0.00    +0.163 HD
ATOM      6  H   UNL     1      24.308 -11.521  13.679  0.00  0.00    +0.159 HD
ATOM      7  H   UNL     1      25.319 -10.279  14.315  0.00  0.00    +0.159 HD
ATOM      8  H   UNL     1      21.517 -10.846  15.726  0.00  0.00    +0.159 HD
ATOM      9  H   UNL     1      22.159 -11.840  14.478  0.00  0.00    +0.159 HD
ENDROOT
BRANCH   1  10
ATOM     10  C   UNL     1      22.624  -8.868  16.933  0.00  0.00    +0.151 C 
BRANCH  10  11
ATOM     11  C   UNL     1      23.038  -7.507  17.421  0.00  0.00    -0.028 A 
ATOM     12  C   UNL     1      22.999  -6.400  16.561  0.00  0.00    +0.005 A 
ATOM     13  C   UNL     1      23.466  -7.317  18.744  0.00  0.00    +0.005 A 
ATOM     14  C   UNL     1      23.355  -5.130  17.022  0.00  0.00    +0.000 A 
ATOM     15  C   UNL     1      23.822  -6.048  19.200  0.00  0.00    +0.000 A 
ATOM     16  C   UNL     1      23.764  -4.954  18.340  0.00  0.00    +0.000 A 
ENDBRANCH  10  11
ENDBRANCH   1  10
TORSDOF 2
ENDMDL
