MODEL 1
REMARK VINA RESULT:    -6.097      0.000      0.000
REMARK INTER + INTRA:          -6.928
REMARK INTER:                  -6.810
REMARK INTRA:                  -0.117
REMARK UNBOUND:                -0.117
REMARK  Name = 1550473
REMARK  2 active torsions:
REMARK  status: ('A' for Active; 'I' for Inactive)
REMARK    1  A    between atoms: N_1  and  C_4
REMARK    2  A    between atoms: C_4  and  C_5
REMARK                            x       y       z     vdW  Elec       q    Type
REMARK                         _______ _______ _______ _____ _____    ______ ____
ROOT
ATOM      1  N   UNL     1      10.632   3.651  -8.127  0.00  0.00    -0.354 N 
ATOM      2  N   UNL     1      10.799   1.567  -7.129  0.00  0.00    -0.372 N 
ATOM      3  N   UNL     1      12.384   3.156  -6.651  0.00  0.00    -0.372 N 
ATOM      4  C   UNL     1      11.273   2.806  -7.308  0.00  0.00    +0.166 C 
ATOM      5  H   UNL     1       9.812   3.315  -8.619  0.00  0.00    +0.163 HD
ATOM      6  H   UNL     1      11.260   0.909  -6.515  0.00  0.00    +0.159 HD
ATOM      7  H   UNL     1       9.954   1.249  -7.587  0.00  0.00    +0.159 HD
ATOM      8  H   UNL     1      12.796   4.075  -6.747  0.00  0.00    +0.159 HD
ATOM      9  H   UNL     1      12.866   2.508  -6.041  0.00  0.00    +0.159 HD
ENDROOT
BRANCH   1  10
ATOM     10  C   UNL     1      11.035   5.038  -8.349  0.00  0.00    +0.151 C 
BRANCH  10  11
ATOM     11  C   UNL     1      10.908   5.358  -9.813  0.00  0.00    -0.028 A 
ATOM     12  C   UNL     1       9.746   5.012 -10.519  0.00  0.00    +0.005 A 
ATOM     13  C   UNL     1      11.942   6.013 -10.498  0.00  0.00    +0.005 A 
ATOM     14  C   UNL     1       9.615   5.336 -11.871  0.00  0.00    +0.000 A 
ATOM     15  C   UNL     1      11.808   6.334 -11.849  0.00  0.00    +0.000 A 
ATOM     16  C   UNL     1      10.643   5.998 -12.534  0.00  0.00    +0.000 A 
ENDBRANCH  10  11
ENDBRANCH   1  10
TORSDOF 2
ENDMDL
MODEL 2
REMARK VINA RESULT:    -5.712      3.617      4.910
REMARK INTER + INTRA:          -6.498
REMARK INTER:                  -6.430
REMARK INTRA:                  -0.068
REMARK UNBOUND:                -0.117
REMARK  Name = 1550473
REMARK  2 active torsions:
REMARK  status: ('A' for Active; 'I' for Inactive)
REMARK    1  A    between atoms: N_1  and  C_4
REMARK    2  A    between atoms: C_4  and  C_5
REMARK                            x       y       z     vdW  Elec       q    Type
REMARK                         _______ _______ _______ _____ _____    ______ ____
ROOT
ATOM      1  N   UNL     1       9.673   4.726 -13.187  0.00  0.00    -0.354 N 
ATOM      2  N   UNL     1      10.384   4.932 -15.382  0.00  0.00    -0.372 N 
ATOM      3  N   UNL     1      11.085   3.125 -14.154  0.00  0.00    -0.372 N 
ATOM      4  C   UNL     1      10.378   4.257 -14.226  0.00  0.00    +0.166 C 
ATOM      5  H   UNL     1       9.182   5.606 -13.297  0.00  0.00    +0.163 HD
ATOM      6  H   UNL     1      10.903   4.601 -16.184  0.00  0.00    +0.159 HD
ATOM      7  H   UNL     1       9.855   5.787 -15.503  0.00  0.00    +0.159 HD
ATOM      8  H   UNL     1      11.127   2.573 -13.308  0.00  0.00    +0.159 HD
ATOM      9  H   UNL     1      11.621   2.784 -14.942  0.00  0.00    +0.159 HD
ENDROOT
BRANCH   1  10
ATOM     10  C   UNL     1       9.557   4.041 -11.902  0.00  0.00    +0.151 C 
BRANCH  10  11
ATOM     11  C   UNL     1      10.332   4.806 -10.865  0.00  0.00    -0.028 A 
ATOM     12  C   UNL     1      10.011   4.687  -9.505  0.00  0.00    +0.005 A 
ATOM     13  C   UNL     1      11.392   5.648 -11.236  0.00  0.00    +0.005 A 
ATOM     14  C   UNL     1      10.750   5.375  -8.539  0.00  0.00    +0.000 A 
ATOM     15  C   UNL     1      12.127   6.333 -10.268  0.00  0.00    +0.000 A 
ATOM     16  C   UNL     1      11.807   6.194  -8.920  0.00  0.00    +0.000 A 
ENDBRANCH  10  11
ENDBRANCH   1  10
TORSDOF 2
ENDMDL
MODEL 3
REMARK VINA RESULT:    -5.706     24.915     26.154
REMARK INTER + INTRA:          -6.490
REMARK INTER:                  -6.340
REMARK INTRA:                  -0.151
REMARK UNBOUND:                -0.117
REMARK  Name = 1550473
REMARK  2 active torsions:
REMARK  status: ('A' for Active; 'I' for Inactive)
REMARK    1  A    between atoms: N_1  and  C_4
REMARK    2  A    between atoms: C_4  and  C_5
REMARK                            x       y       z     vdW  Elec       q    Type
REMARK                         _______ _______ _______ _____ _____    ______ ____
ROOT
ATOM      1  N   UNL     1     -10.598   0.546 -20.721  0.00  0.00    -0.354 N 
ATOM      2  N   UNL     1     -10.455   1.896 -22.598  0.00  0.00    -0.372 N 
ATOM      3  N   UNL     1     -10.778  -0.359 -22.875  0.00  0.00    -0.372 N 
ATOM      4  C   UNL     1     -10.611   0.683 -22.054  0.00  0.00    +0.166 C 
ATOM      5  H   UNL     1     -10.437   1.371 -20.154  0.00  0.00    +0.163 HD
ATOM      6  H   UNL     1     -10.464   2.030 -23.600  0.00  0.00    +0.159 HD
ATOM      7  H   UNL     1     -10.340   2.725 -22.028  0.00  0.00    +0.159 HD
ATOM      8  H   UNL     1     -10.895  -1.301 -22.528  0.00  0.00    +0.159 HD
ATOM      9  H   UNL     1     -10.778  -0.246 -23.881  0.00  0.00    +0.159 HD
ENDROOT
BRANCH   1  10
ATOM     10  C   UNL     1     -10.813  -0.722 -20.027  0.00  0.00    +0.151 C 
BRANCH  10  11
ATOM     11  C   UNL     1     -12.078  -0.631 -19.218  0.00  0.00    -0.028 A 
ATOM     12  C   UNL     1     -12.105   0.096 -18.019  0.00  0.00    +0.005 A 
ATOM     13  C   UNL     1     -13.254  -1.264 -19.649  0.00  0.00    +0.005 A 
ATOM     14  C   UNL     1     -13.287   0.206 -17.283  0.00  0.00    +0.000 A 
ATOM     15  C   UNL     1     -14.432  -1.153 -18.911  0.00  0.00    +0.000 A 
ATOM     16  C   UNL     1     -14.449  -0.416 -17.729  0.00  0.00    +0.000 A 
ENDBRANCH  10  11
ENDBRANCH   1  10
TORSDOF 2
ENDMDL
MODEL 4
REMARK VINA RESULT:    -5.584     18.263     19.408
REMARK INTER + INTRA:          -6.355
REMARK INTER:                  -6.251
REMARK INTRA:                  -0.104
REMARK UNBOUND:                -0.117
REMARK  Name = 1550473
REMARK  2 active torsions:
REMARK  status: ('A' for Active; 'I' for Inactive)
REMARK    1  A    between atoms: N_1  and  C_4
REMARK    2  A    between atoms: C_4  and  C_5
REMARK                            x       y       z     vdW  Elec       q    Type
REMARK                         _______ _______ _______ _____ _____    ______ ____
ROOT
ATOM      1  N   UNL     1      -6.683   3.816  -7.852  0.00  0.00    -0.354 N 
ATOM      2  N   UNL     1      -5.528   4.817  -9.592  0.00  0.00    -0.372 N 
ATOM      3  N   UNL     1      -4.959   5.347  -7.434  0.00  0.00    -0.372 N 
ATOM      4  C   UNL     1      -5.729   4.655  -8.279  0.00  0.00    +0.166 C 
ATOM      5  H   UNL     1      -7.253   3.343  -8.544  0.00  0.00    +0.163 HD
ATOM      6  H   UNL     1      -4.813   5.440  -9.944  0.00  0.00    +0.159 HD
ATOM      7  H   UNL     1      -6.069   4.308 -10.281  0.00  0.00    +0.159 HD
ATOM      8  H   UNL     1      -5.065   5.274  -6.431  0.00  0.00    +0.159 HD
ATOM      9  H   UNL     1      -4.247   5.985  -7.767  0.00  0.00    +0.159 HD
ENDROOT
BRANCH   1  10
ATOM     10  C   UNL     1      -6.947   3.528  -6.444  0.00  0.00    +0.151 C 
BRANCH  10  11
ATOM     11  C   UNL     1      -8.044   2.503  -6.349  0.00  0.00    -0.028 A 
ATOM     12  C   UNL     1      -9.261   2.699  -7.020  0.00  0.00    +0.005 A 
ATOM     13  C   UNL     1      -7.872   1.332  -5.596  0.00  0.00    +0.005 A 
ATOM     14  C   UNL     1     -10.269   1.734  -6.957  0.00  0.00    +0.000 A 
ATOM     15  C   UNL     1      -8.881   0.371  -5.535  0.00  0.00    +0.000 A 
ATOM     16  C   UNL     1     -10.078   0.572  -6.218  0.00  0.00    +0.000 A 
ENDBRANCH  10  11
ENDBRANCH   1  10
TORSDOF 2
ENDMDL
MODEL 5
REMARK VINA RESULT:    -5.537     20.265     21.745
REMARK INTER + INTRA:          -6.302
REMARK INTER:                  -6.205
REMARK INTRA:                  -0.097
REMARK UNBOUND:                -0.117
REMARK  Name = 1550473
REMARK  2 active torsions:
REMARK  status: ('A' for Active; 'I' for Inactive)
REMARK    1  A    between atoms: N_1  and  C_4
REMARK    2  A    between atoms: C_4  and  C_5
REMARK                            x       y       z     vdW  Elec       q    Type
REMARK                         _______ _______ _______ _____ _____    ______ ____
ROOT
ATOM      1  N   UNL     1      11.682  -3.379   9.751  0.00  0.00    -0.354 N 
ATOM      2  N   UNL     1      13.929  -3.769   9.348  0.00  0.00    -0.372 N 
ATOM      3  N   UNL     1      13.002  -1.795   8.637  0.00  0.00    -0.372 N 
ATOM      4  C   UNL     1      12.856  -2.976   9.247  0.00  0.00    +0.166 C 
ATOM      5  H   UNL     1      11.630  -4.298  10.175  0.00  0.00    +0.163 HD
ATOM      6  H   UNL     1      14.829  -3.491   8.981  0.00  0.00    +0.159 HD
ATOM      7  H   UNL     1      13.885  -4.668   9.813  0.00  0.00    +0.159 HD
ATOM      8  H   UNL     1      12.229  -1.152   8.523  0.00  0.00    +0.159 HD
ATOM      9  H   UNL     1      13.892  -1.503   8.252  0.00  0.00    +0.159 HD
ENDROOT
BRANCH   1  10
ATOM     10  C   UNL     1      10.466  -2.568   9.741  0.00  0.00    +0.151 C 
BRANCH  10  11
ATOM     11  C   UNL     1       9.341  -3.362  10.344  0.00  0.00    -0.028 A 
ATOM     12  C   UNL     1       8.741  -2.949  11.543  0.00  0.00    +0.005 A 
ATOM     13  C   UNL     1       8.865  -4.525   9.720  0.00  0.00    +0.005 A 
ATOM     14  C   UNL     1       7.676  -3.669  12.089  0.00  0.00    +0.000 A 
ATOM     15  C   UNL     1       7.802  -5.242  10.268  0.00  0.00    +0.000 A 
ATOM     16  C   UNL     1       7.206  -4.813  11.451  0.00  0.00    +0.000 A 
ENDBRANCH  10  11
ENDBRANCH   1  10
TORSDOF 2
ENDMDL
MODEL 6
REMARK VINA RESULT:    -5.450     24.560     25.363
REMARK INTER + INTRA:          -6.204
REMARK INTER:                  -6.066
REMARK INTRA:                  -0.138
REMARK UNBOUND:                -0.117
REMARK  Name = 1550473
REMARK  2 active torsions:
REMARK  status: ('A' for Active; 'I' for Inactive)
REMARK    1  A    between atoms: N_1  and  C_4
REMARK    2  A    between atoms: C_4  and  C_5
REMARK                            x       y       z     vdW  Elec       q    Type
REMARK                         _______ _______ _______ _____ _____    ______ ____
ROOT
ATOM      1  N   UNL     1     -13.209  -1.293 -17.042  0.00  0.00    -0.354 N 
ATOM      2  N   UNL     1     -13.769   0.888 -16.500  0.00  0.00    -0.372 N 
ATOM      3  N   UNL     1     -12.077   0.518 -18.006  0.00  0.00    -0.372 N 
ATOM      4  C   UNL     1     -13.013   0.024 -17.188  0.00  0.00    +0.166 C 
ATOM      5  H   UNL     1     -13.914  -1.605 -16.384  0.00  0.00    +0.163 HD
ATOM      6  H   UNL     1     -13.646   1.887 -16.592  0.00  0.00    +0.159 HD
ATOM      7  H   UNL     1     -14.504   0.574 -15.878  0.00  0.00    +0.159 HD
ATOM      8  H   UNL     1     -11.469  -0.080 -18.548  0.00  0.00    +0.159 HD
ATOM      9  H   UNL     1     -11.931   1.515 -18.102  0.00  0.00    +0.159 HD
ENDROOT
BRANCH   1  10
ATOM     10  C   UNL     1     -12.476  -2.317 -17.785  0.00  0.00    +0.151 C 
BRANCH  10  11
ATOM     11  C   UNL     1     -11.729  -3.189 -16.814  0.00  0.00    -0.028 A 
ATOM     12  C   UNL     1     -11.841  -2.973 -15.432  0.00  0.00    +0.005 A 
ATOM     13  C   UNL     1     -10.914  -4.237 -17.268  0.00  0.00    +0.005 A 
ATOM     14  C   UNL     1     -11.171  -3.801 -14.528  0.00  0.00    +0.000 A 
ATOM     15  C   UNL     1     -10.247  -5.061 -16.362  0.00  0.00    +0.000 A 
ATOM     16  C   UNL     1     -10.378  -4.845 -14.993  0.00  0.00    +0.000 A 
ENDBRANCH  10  11
ENDBRANCH   1  10
TORSDOF 2
ENDMDL
MODEL 7
REMARK VINA RESULT:    -5.388     24.832     25.694
REMARK INTER + INTRA:          -6.135
REMARK INTER:                  -6.007
REMARK INTRA:                  -0.128
REMARK UNBOUND:                -0.117
REMARK  Name = 1550473
REMARK  2 active torsions:
REMARK  status: ('A' for Active; 'I' for Inactive)
REMARK    1  A    between atoms: N_1  and  C_4
REMARK    2  A    between atoms: C_4  and  C_5
REMARK                            x       y       z     vdW  Elec       q    Type
REMARK                         _______ _______ _______ _____ _____    ______ ____
ROOT
ATOM      1  N   UNL     1     -13.379  -1.232 -17.133  0.00  0.00    -0.354 N 
ATOM      2  N   UNL     1     -13.792   0.942 -16.449  0.00  0.00    -0.372 N 
ATOM      3  N   UNL     1     -12.112   0.557 -17.964  0.00  0.00    -0.372 N 
ATOM      4  C   UNL     1     -13.090   0.075 -17.188  0.00  0.00    +0.166 C 
ATOM      5  H   UNL     1     -14.111  -1.536 -16.503  0.00  0.00    +0.163 HD
ATOM      6  H   UNL     1     -13.599   1.934 -16.473  0.00  0.00    +0.159 HD
ATOM      7  H   UNL     1     -14.554   0.640 -15.855  0.00  0.00    +0.159 HD
ATOM      8  H   UNL     1     -11.541  -0.046 -18.542  0.00  0.00    +0.159 HD
ATOM      9  H   UNL     1     -11.896   1.545 -17.992  0.00  0.00    +0.159 HD
ENDROOT
BRANCH   1  10
ATOM     10  C   UNL     1     -12.709  -2.252 -17.938  0.00  0.00    +0.151 C 
BRANCH  10  11
ATOM     11  C   UNL     1     -12.096  -3.275 -17.023  0.00  0.00    -0.028 A 
ATOM     12  C   UNL     1     -11.763  -4.551 -17.503  0.00  0.00    +0.005 A 
ATOM     13  C   UNL     1     -11.840  -2.974 -15.677  0.00  0.00    +0.005 A 
ATOM     14  C   UNL     1     -11.166  -5.492 -16.660  0.00  0.00    +0.000 A 
ATOM     15  C   UNL     1     -11.244  -3.917 -14.839  0.00  0.00    +0.000 A 
ATOM     16  C   UNL     1     -10.905  -5.174 -15.332  0.00  0.00    +0.000 A 
ENDBRANCH  10  11
ENDBRANCH   1  10
TORSDOF 2
ENDMDL
MODEL 8
REMARK VINA RESULT:    -5.331     24.635     25.876
REMARK INTER + INTRA:          -6.072
REMARK INTER:                  -5.914
REMARK INTRA:                  -0.158
REMARK UNBOUND:                -0.117
REMARK  Name = 1550473
REMARK  2 active torsions:
REMARK  status: ('A' for Active; 'I' for Inactive)
REMARK    1  A    between atoms: N_1  and  C_4
REMARK    2  A    between atoms: C_4  and  C_5
REMARK                            x       y       z     vdW  Elec       q    Type
REMARK                         _______ _______ _______ _____ _____    ______ ____
ROOT
ATOM      1  N   UNL     1     -11.280  -1.099 -17.389  0.00  0.00    -0.354 N 
ATOM      2  N   UNL     1     -11.282   0.578 -18.986  0.00  0.00    -0.372 N 
ATOM      3  N   UNL     1     -12.944   0.551 -17.404  0.00  0.00    -0.372 N 
ATOM      4  C   UNL     1     -11.838  -0.000 -17.914  0.00  0.00    +0.166 C 
ATOM      5  H   UNL     1     -10.459  -1.485 -17.841  0.00  0.00    +0.163 HD
ATOM      6  H   UNL     1     -11.678   1.410 -19.402  0.00  0.00    +0.159 HD
ATOM      7  H   UNL     1     -10.435   0.217 -19.407  0.00  0.00    +0.159 HD
ATOM      8  H   UNL     1     -13.415   0.159 -16.600  0.00  0.00    +0.159 HD
ATOM      9  H   UNL     1     -13.362   1.377 -17.814  0.00  0.00    +0.159 HD
ENDROOT
BRANCH   1  10
ATOM     10  C   UNL     1     -11.775  -1.775 -16.191  0.00  0.00    +0.151 C 
BRANCH  10  11
ATOM     11  C   UNL     1     -12.152  -3.187 -16.544  0.00  0.00    -0.028 A 
ATOM     12  C   UNL     1     -11.431  -4.269 -16.018  0.00  0.00    +0.005 A 
ATOM     13  C   UNL     1     -13.232  -3.451 -17.400  0.00  0.00    +0.005 A 
ATOM     14  C   UNL     1     -11.799  -5.582 -16.322  0.00  0.00    +0.000 A 
ATOM     15  C   UNL     1     -13.596  -4.763 -17.702  0.00  0.00    +0.000 A 
ATOM     16  C   UNL     1     -12.880  -5.829 -17.160  0.00  0.00    +0.000 A 
ENDBRANCH  10  11
ENDBRANCH   1  10
TORSDOF 2
ENDMDL
MODEL 9
REMARK VINA RESULT:    -5.257      5.295      6.741
REMARK INTER + INTRA:          -5.989
REMARK INTER:                  -5.883
REMARK INTRA:                  -0.105
REMARK UNBOUND:                -0.117
REMARK  Name = 1550473
REMARK  2 active torsions:
REMARK  status: ('A' for Active; 'I' for Inactive)
REMARK    1  A    between atoms: N_1  and  C_4
REMARK    2  A    between atoms: C_4  and  C_5
REMARK                            x       y       z     vdW  Elec       q    Type
REMARK                         _______ _______ _______ _____ _____    ______ ____
ROOT
ATOM      1  N   UNL     1       9.513   5.822 -15.299  0.00  0.00    -0.354 N 
ATOM      2  N   UNL     1       8.907   7.452 -16.829  0.00  0.00    -0.372 N 
ATOM      3  N   UNL     1       9.606   8.097 -14.741  0.00  0.00    -0.372 N 
ATOM      4  C   UNL     1       9.346   7.114 -15.610  0.00  0.00    +0.166 C 
ATOM      5  H   UNL     1       9.269   5.124 -15.992  0.00  0.00    +0.163 HD
ATOM      6  H   UNL     1       8.775   8.418 -17.094  0.00  0.00    +0.159 HD
ATOM      7  H   UNL     1       8.708   6.754 -17.536  0.00  0.00    +0.159 HD
ATOM      8  H   UNL     1       9.935   7.908 -13.803  0.00  0.00    +0.159 HD
ATOM      9  H   UNL     1       9.469   9.070 -14.984  0.00  0.00    +0.159 HD
ENDROOT
BRANCH   1  10
ATOM     10  C   UNL     1      10.037   5.351 -14.018  0.00  0.00    +0.151 C 
BRANCH  10  11
ATOM     11  C   UNL     1       8.887   5.036 -13.102  0.00  0.00    -0.028 A 
ATOM     12  C   UNL     1       7.631   4.700 -13.627  0.00  0.00    +0.005 A 
ATOM     13  C   UNL     1       9.049   5.066 -11.708  0.00  0.00    +0.005 A 
ATOM     14  C   UNL     1       6.570   4.377 -12.777  0.00  0.00    +0.000 A 
ATOM     15  C   UNL     1       7.987   4.745 -10.863  0.00  0.00    +0.000 A 
ATOM     16  C   UNL     1       6.748   4.398 -11.398  0.00  0.00    +0.000 A 
ENDBRANCH  10  11
ENDBRANCH   1  10
TORSDOF 2
ENDMDL
