MODEL 1
REMARK VINA RESULT:    -5.949      0.000      0.000
REMARK INTER + INTRA:          -6.766
REMARK INTER:                  -6.645
REMARK INTRA:                  -0.121
REMARK UNBOUND:                -0.121
REMARK  Name = 1550473
REMARK  2 active torsions:
REMARK  status: ('A' for Active; 'I' for Inactive)
REMARK    1  A    between atoms: N_1  and  C_4
REMARK    2  A    between atoms: C_4  and  C_5
REMARK                            x       y       z     vdW  Elec       q    Type
REMARK                         _______ _______ _______ _____ _____    ______ ____
ROOT
ATOM      1  N   UNL     1       1.383 -13.081  -0.697  0.00  0.00    -0.354 N 
ATOM      2  N   UNL     1      -0.057 -14.314  -2.028  0.00  0.00    -0.372 N 
ATOM      3  N   UNL     1       1.957 -13.644  -2.899  0.00  0.00    -0.372 N 
ATOM      4  C   UNL     1       1.106 -13.671  -1.868  0.00  0.00    +0.166 C 
ATOM      5  H   UNL     1       0.683 -13.112   0.035  0.00  0.00    +0.163 HD
ATOM      6  H   UNL     1      -0.293 -14.771  -2.899  0.00  0.00    +0.159 HD
ATOM      7  H   UNL     1      -0.736 -14.382  -1.279  0.00  0.00    +0.159 HD
ATOM      8  H   UNL     1       2.849 -13.170  -2.845  0.00  0.00    +0.159 HD
ATOM      9  H   UNL     1       1.734 -14.085  -3.782  0.00  0.00    +0.159 HD
ENDROOT
BRANCH   1  10
ATOM     10  C   UNL     1       2.644 -12.402  -0.403  0.00  0.00    +0.151 C 
BRANCH  10  11
ATOM     11  C   UNL     1       2.719 -12.126   1.074  0.00  0.00    -0.028 A 
ATOM     12  C   UNL     1       3.939 -11.777   1.671  0.00  0.00    +0.005 A 
ATOM     13  C   UNL     1       1.573 -12.207   1.880  0.00  0.00    +0.005 A 
ATOM     14  C   UNL     1       4.004 -11.491   3.037  0.00  0.00    +0.000 A 
ATOM     15  C   UNL     1       1.642 -11.921   3.243  0.00  0.00    +0.000 A 
ATOM     16  C   UNL     1       2.857 -11.561   3.821  0.00  0.00    +0.000 A 
ENDBRANCH  10  11
ENDBRANCH   1  10
TORSDOF 2
ENDMDL
MODEL 2
REMARK VINA RESULT:    -5.939      2.531      5.199
REMARK INTER + INTRA:          -6.755
REMARK INTER:                  -6.645
REMARK INTRA:                  -0.109
REMARK UNBOUND:                -0.121
REMARK  Name = 1550473
REMARK  2 active torsions:
REMARK  status: ('A' for Active; 'I' for Inactive)
REMARK    1  A    between atoms: N_1  and  C_4
REMARK    2  A    between atoms: C_4  and  C_5
REMARK                            x       y       z     vdW  Elec       q    Type
REMARK                         _______ _______ _______ _____ _____    ______ ____
ROOT
ATOM      1  N   UNL     1       3.106 -12.004   1.319  0.00  0.00    -0.354 N 
ATOM      2  N   UNL     1       4.557 -11.594   3.077  0.00  0.00    -0.372 N 
ATOM      3  N   UNL     1       2.310 -11.758   3.509  0.00  0.00    -0.372 N 
ATOM      4  C   UNL     1       3.312 -11.788   2.625  0.00  0.00    +0.166 C 
ATOM      5  H   UNL     1       3.905 -11.985   0.696  0.00  0.00    +0.163 HD
ATOM      6  H   UNL     1       4.744 -11.432   4.057  0.00  0.00    +0.159 HD
ATOM      7  H   UNL     1       5.359 -11.621   2.458  0.00  0.00    +0.159 HD
ATOM      8  H   UNL     1       1.347 -11.891   3.231  0.00  0.00    +0.159 HD
ATOM      9  H   UNL     1       2.475 -11.585   4.493  0.00  0.00    +0.159 HD
ENDROOT
BRANCH   1  10
ATOM     10  C   UNL     1       1.796 -12.280   0.733  0.00  0.00    +0.151 C 
BRANCH  10  11
ATOM     11  C   UNL     1       1.970 -12.618  -0.722  0.00  0.00    -0.028 A 
ATOM     12  C   UNL     1       2.855 -11.882  -1.524  0.00  0.00    +0.005 A 
ATOM     13  C   UNL     1       1.257 -13.678  -1.304  0.00  0.00    +0.005 A 
ATOM     14  C   UNL     1       3.039 -12.216  -2.868  0.00  0.00    +0.000 A 
ATOM     15  C   UNL     1       1.443 -14.007  -2.647  0.00  0.00    +0.000 A 
ATOM     16  C   UNL     1       2.336 -13.277  -3.427  0.00  0.00    +0.000 A 
ENDBRANCH  10  11
ENDBRANCH   1  10
TORSDOF 2
ENDMDL
MODEL 3
REMARK VINA RESULT:    -5.833      2.918      5.374
REMARK INTER + INTRA:          -6.635
REMARK INTER:                  -6.524
REMARK INTRA:                  -0.112
REMARK UNBOUND:                -0.121
REMARK  Name = 1550473
REMARK  2 active torsions:
REMARK  status: ('A' for Active; 'I' for Inactive)
REMARK    1  A    between atoms: N_1  and  C_4
REMARK    2  A    between atoms: C_4  and  C_5
REMARK                            x       y       z     vdW  Elec       q    Type
REMARK                         _______ _______ _______ _____ _____    ______ ____
ROOT
ATOM      1  N   UNL     1       3.572 -11.541   1.203  0.00  0.00    -0.354 N 
ATOM      2  N   UNL     1       4.448 -11.716   3.340  0.00  0.00    -0.372 N 
ATOM      3  N   UNL     1       5.085  -9.950   2.021  0.00  0.00    -0.372 N 
ATOM      4  C   UNL     1       4.364 -11.066   2.173  0.00  0.00    +0.166 C 
ATOM      5  H   UNL     1       3.074 -12.408   1.370  0.00  0.00    +0.163 HD
ATOM      6  H   UNL     1       5.035 -11.379   4.091  0.00  0.00    +0.159 HD
ATOM      7  H   UNL     1       3.914 -12.558   3.521  0.00  0.00    +0.159 HD
ATOM      8  H   UNL     1       5.070  -9.416   1.162  0.00  0.00    +0.159 HD
ATOM      9  H   UNL     1       5.687  -9.603   2.757  0.00  0.00    +0.159 HD
ENDROOT
BRANCH   1  10
ATOM     10  C   UNL     1       3.368 -10.880  -0.084  0.00  0.00    +0.151 C 
BRANCH  10  11
ATOM     11  C   UNL     1       2.835 -11.880  -1.072  0.00  0.00    -0.028 A 
ATOM     12  C   UNL     1       1.895 -12.843  -0.674  0.00  0.00    +0.005 A 
ATOM     13  C   UNL     1       3.261 -11.868  -2.409  0.00  0.00    +0.005 A 
ATOM     14  C   UNL     1       1.377 -13.753  -1.598  0.00  0.00    +0.000 A 
ATOM     15  C   UNL     1       2.742 -12.780  -3.328  0.00  0.00    +0.000 A 
ATOM     16  C   UNL     1       1.799 -13.721  -2.923  0.00  0.00    +0.000 A 
ENDBRANCH  10  11
ENDBRANCH   1  10
TORSDOF 2
ENDMDL
MODEL 4
REMARK VINA RESULT:    -5.295     13.257     14.941
REMARK INTER + INTRA:          -6.035
REMARK INTER:                  -5.909
REMARK INTRA:                  -0.126
REMARK UNBOUND:                -0.121
REMARK  Name = 1550473
REMARK  2 active torsions:
REMARK  status: ('A' for Active; 'I' for Inactive)
REMARK    1  A    between atoms: N_1  and  C_4
REMARK    2  A    between atoms: C_4  and  C_5
REMARK                            x       y       z     vdW  Elec       q    Type
REMARK                         _______ _______ _______ _____ _____    ______ ____
ROOT
ATOM      1  N   UNL     1      -4.986  -4.694  12.388  0.00  0.00    -0.354 N 
ATOM      2  N   UNL     1      -6.591  -4.094  13.947  0.00  0.00    -0.372 N 
ATOM      3  N   UNL     1      -5.875  -2.526  12.432  0.00  0.00    -0.372 N 
ATOM      4  C   UNL     1      -5.806  -3.773  12.911  0.00  0.00    +0.166 C 
ATOM      5  H   UNL     1      -4.959  -5.612  12.816  0.00  0.00    +0.163 HD
ATOM      6  H   UNL     1      -7.222  -3.421  14.360  0.00  0.00    +0.159 HD
ATOM      7  H   UNL     1      -6.595  -5.026  14.343  0.00  0.00    +0.159 HD
ATOM      8  H   UNL     1      -5.304  -2.218  11.656  0.00  0.00    +0.159 HD
ATOM      9  H   UNL     1      -6.492  -1.835  12.840  0.00  0.00    +0.159 HD
ENDROOT
BRANCH   1  10
ATOM     10  C   UNL     1      -4.130  -4.461  11.226  0.00  0.00    +0.151 C 
BRANCH  10  11
ATOM     11  C   UNL     1      -3.860  -5.774  10.544  0.00  0.00    -0.028 A 
ATOM     12  C   UNL     1      -3.273  -5.808   9.271  0.00  0.00    +0.005 A 
ATOM     13  C   UNL     1      -4.184  -6.989  11.169  0.00  0.00    +0.005 A 
ATOM     14  C   UNL     1      -2.995  -7.028   8.650  0.00  0.00    +0.000 A 
ATOM     15  C   UNL     1      -3.906  -8.205  10.545  0.00  0.00    +0.000 A 
ATOM     16  C   UNL     1      -3.309  -8.224   9.287  0.00  0.00    +0.000 A 
ENDBRANCH  10  11
ENDBRANCH   1  10
TORSDOF 2
ENDMDL
MODEL 5
REMARK VINA RESULT:    -5.292      2.599      4.886
REMARK INTER + INTRA:          -6.031
REMARK INTER:                  -5.892
REMARK INTRA:                  -0.140
REMARK UNBOUND:                -0.121
REMARK  Name = 1550473
REMARK  2 active torsions:
REMARK  status: ('A' for Active; 'I' for Inactive)
REMARK    1  A    between atoms: N_1  and  C_4
REMARK    2  A    between atoms: C_4  and  C_5
REMARK                            x       y       z     vdW  Elec       q    Type
REMARK                         _______ _______ _______ _____ _____    ______ ____
ROOT
ATOM      1  N   UNL     1       1.063 -11.927   1.003  0.00  0.00    -0.354 N 
ATOM      2  N   UNL     1      -0.621 -10.599   1.878  0.00  0.00    -0.372 N 
ATOM      3  N   UNL     1       1.425  -9.654   1.445  0.00  0.00    -0.372 N 
ATOM      4  C   UNL     1       0.636 -10.734   1.436  0.00  0.00    +0.166 C 
ATOM      5  H   UNL     1       0.425 -12.713   1.051  0.00  0.00    +0.163 HD
ATOM      6  H   UNL     1      -0.972  -9.710   2.208  0.00  0.00    +0.159 HD
ATOM      7  H   UNL     1      -1.270 -11.376   1.882  0.00  0.00    +0.159 HD
ATOM      8  H   UNL     1       2.385  -9.691   1.130  0.00  0.00    +0.159 HD
ATOM      9  H   UNL     1       1.095  -8.759   1.782  0.00  0.00    +0.159 HD
ENDROOT
BRANCH   1  10
ATOM     10  C   UNL     1       2.395 -12.168   0.452  0.00  0.00    +0.151 C 
BRANCH  10  11
ATOM     11  C   UNL     1       2.261 -12.634  -0.971  0.00  0.00    -0.028 A 
ATOM     12  C   UNL     1       3.012 -12.031  -1.992  0.00  0.00    +0.005 A 
ATOM     13  C   UNL     1       1.389 -13.682  -1.305  0.00  0.00    +0.005 A 
ATOM     14  C   UNL     1       2.910 -12.484  -3.309  0.00  0.00    +0.000 A 
ATOM     15  C   UNL     1       1.290 -14.130  -2.622  0.00  0.00    +0.000 A 
ATOM     16  C   UNL     1       2.052 -13.533  -3.623  0.00  0.00    +0.000 A 
ENDBRANCH  10  11
ENDBRANCH   1  10
TORSDOF 2
ENDMDL
MODEL 6
REMARK VINA RESULT:    -5.126     18.426     18.923
REMARK INTER + INTRA:          -5.846
REMARK INTER:                  -5.729
REMARK INTRA:                  -0.117
REMARK UNBOUND:                -0.121
REMARK  Name = 1550473
REMARK  2 active torsions:
REMARK  status: ('A' for Active; 'I' for Inactive)
REMARK    1  A    between atoms: N_1  and  C_4
REMARK    2  A    between atoms: C_4  and  C_5
REMARK                            x       y       z     vdW  Elec       q    Type
REMARK                         _______ _______ _______ _____ _____    ______ ____
ROOT
ATOM      1  N   UNL     1      -7.418   0.950  -9.259  0.00  0.00    -0.354 N 
ATOM      2  N   UNL     1      -6.201   1.504 -11.151  0.00  0.00    -0.372 N 
ATOM      3  N   UNL     1      -6.427  -0.708 -10.586  0.00  0.00    -0.372 N 
ATOM      4  C   UNL     1      -6.689   0.576 -10.320  0.00  0.00    +0.166 C 
ATOM      5  H   UNL     1      -7.556   1.941  -9.096  0.00  0.00    +0.163 HD
ATOM      6  H   UNL     1      -5.652   1.252 -11.961  0.00  0.00    +0.159 HD
ATOM      7  H   UNL     1      -6.380   2.491 -11.011  0.00  0.00    +0.159 HD
ATOM      8  H   UNL     1      -6.761  -1.457  -9.995  0.00  0.00    +0.159 HD
ATOM      9  H   UNL     1      -5.868  -0.980 -11.386  0.00  0.00    +0.159 HD
ENDROOT
BRANCH   1  10
ATOM     10  C   UNL     1      -8.040   0.015  -8.323  0.00  0.00    +0.151 C 
BRANCH  10  11
ATOM     11  C   UNL     1      -8.318   0.728  -7.029  0.00  0.00    -0.028 A 
ATOM     12  C   UNL     1      -9.546   0.559  -6.373  0.00  0.00    +0.005 A 
ATOM     13  C   UNL     1      -7.355   1.569  -6.450  0.00  0.00    +0.005 A 
ATOM     14  C   UNL     1      -9.793   1.197  -5.155  0.00  0.00    +0.000 A 
ATOM     15  C   UNL     1      -7.606   2.205  -5.235  0.00  0.00    +0.000 A 
ATOM     16  C   UNL     1      -8.824   2.017  -4.586  0.00  0.00    +0.000 A 
ENDBRANCH  10  11
ENDBRANCH   1  10
TORSDOF 2
ENDMDL
MODEL 7
REMARK VINA RESULT:    -5.057     18.670     19.095
REMARK INTER + INTRA:          -5.769
REMARK INTER:                  -5.662
REMARK INTRA:                  -0.107
REMARK UNBOUND:                -0.121
REMARK  Name = 1550473
REMARK  2 active torsions:
REMARK  status: ('A' for Active; 'I' for Inactive)
REMARK    1  A    between atoms: N_1  and  C_4
REMARK    2  A    between atoms: C_4  and  C_5
REMARK                            x       y       z     vdW  Elec       q    Type
REMARK                         _______ _______ _______ _____ _____    ______ ____
ROOT
ATOM      1  N   UNL     1      -7.391   1.646  -7.999  0.00  0.00    -0.354 N 
ATOM      2  N   UNL     1      -6.594   2.568  -9.968  0.00  0.00    -0.372 N 
ATOM      3  N   UNL     1      -7.384   0.414  -9.992  0.00  0.00    -0.372 N 
ATOM      4  C   UNL     1      -7.129   1.534  -9.308  0.00  0.00    +0.166 C 
ATOM      5  H   UNL     1      -7.146   2.512  -7.531  0.00  0.00    +0.163 HD
ATOM      6  H   UNL     1      -6.389   2.514 -10.957  0.00  0.00    +0.159 HD
ATOM      7  H   UNL     1      -6.393   3.448  -9.509  0.00  0.00    +0.159 HD
ATOM      8  H   UNL     1      -7.781  -0.404  -9.551  0.00  0.00    +0.159 HD
ATOM      9  H   UNL     1      -7.174   0.337 -10.979  0.00  0.00    +0.159 HD
ENDROOT
BRANCH   1  10
ATOM     10  C   UNL     1      -8.022   0.598  -7.198  0.00  0.00    +0.151 C 
BRANCH  10  11
ATOM     11  C   UNL     1      -8.516   1.195  -5.909  0.00  0.00    -0.028 A 
ATOM     12  C   UNL     1      -7.696   2.053  -5.162  0.00  0.00    +0.005 A 
ATOM     13  C   UNL     1      -9.805   0.910  -5.433  0.00  0.00    +0.005 A 
ATOM     14  C   UNL     1      -8.165   2.631  -3.980  0.00  0.00    +0.000 A 
ATOM     15  C   UNL     1     -10.269   1.489  -4.252  0.00  0.00    +0.000 A 
ATOM     16  C   UNL     1      -9.450   2.351  -3.527  0.00  0.00    +0.000 A 
ENDBRANCH  10  11
ENDBRANCH   1  10
TORSDOF 2
ENDMDL
MODEL 8
REMARK VINA RESULT:    -4.974      4.131      5.448
REMARK INTER + INTRA:          -5.677
REMARK INTER:                  -5.639
REMARK INTRA:                  -0.038
REMARK UNBOUND:                -0.121
REMARK  Name = 1550473
REMARK  2 active torsions:
REMARK  status: ('A' for Active; 'I' for Inactive)
REMARK    1  A    between atoms: N_1  and  C_4
REMARK    2  A    between atoms: C_4  and  C_5
REMARK                            x       y       z     vdW  Elec       q    Type
REMARK                         _______ _______ _______ _____ _____    ______ ____
ROOT
ATOM      1  N   UNL     1       3.749  -9.969   3.998  0.00  0.00    -0.354 N 
ATOM      2  N   UNL     1       3.666 -10.742   6.180  0.00  0.00    -0.372 N 
ATOM      3  N   UNL     1       5.244 -11.607   4.756  0.00  0.00    -0.372 N 
ATOM      4  C   UNL     1       4.222 -10.769   4.962  0.00  0.00    +0.166 C 
ATOM      5  H   UNL     1       2.953  -9.379   4.210  0.00  0.00    +0.163 HD
ATOM      6  H   UNL     1       4.004 -11.332   6.928  0.00  0.00    +0.159 HD
ATOM      7  H   UNL     1       2.900 -10.118   6.401  0.00  0.00    +0.159 HD
ATOM      8  H   UNL     1       5.703 -11.680   3.858  0.00  0.00    +0.159 HD
ATOM      9  H   UNL     1       5.589 -12.214   5.489  0.00  0.00    +0.159 HD
ENDROOT
BRANCH   1  10
ATOM     10  C   UNL     1       4.318  -9.884   2.654  0.00  0.00    +0.151 C 
BRANCH  10  11
ATOM     11  C   UNL     1       3.552 -10.797   1.737  0.00  0.00    -0.028 A 
ATOM     12  C   UNL     1       4.023 -11.065   0.443  0.00  0.00    +0.005 A 
ATOM     13  C   UNL     1       2.357 -11.401   2.158  0.00  0.00    +0.005 A 
ATOM     14  C   UNL     1       3.327 -11.937  -0.398  0.00  0.00    +0.000 A 
ATOM     15  C   UNL     1       1.665 -12.270   1.314  0.00  0.00    +0.000 A 
ATOM     16  C   UNL     1       2.152 -12.539   0.037  0.00  0.00    +0.000 A 
ENDBRANCH  10  11
ENDBRANCH   1  10
TORSDOF 2
ENDMDL
MODEL 9
REMARK VINA RESULT:    -4.924      2.711      3.999
REMARK INTER + INTRA:          -5.620
REMARK INTER:                  -5.448
REMARK INTRA:                  -0.172
REMARK UNBOUND:                -0.121
REMARK  Name = 1550473
REMARK  2 active torsions:
REMARK  status: ('A' for Active; 'I' for Inactive)
REMARK    1  A    between atoms: N_1  and  C_4
REMARK    2  A    between atoms: C_4  and  C_5
REMARK                            x       y       z     vdW  Elec       q    Type
REMARK                         _______ _______ _______ _____ _____    ______ ____
ROOT
ATOM      1  N   UNL     1       1.003 -12.758  -4.645  0.00  0.00    -0.354 N 
ATOM      2  N   UNL     1      -0.697 -11.516  -5.609  0.00  0.00    -0.372 N 
ATOM      3  N   UNL     1       1.389 -10.580  -5.418  0.00  0.00    -0.372 N 
ATOM      4  C   UNL     1       0.578 -11.624  -5.218  0.00  0.00    +0.166 C 
ATOM      5  H   UNL     1       0.331 -13.502  -4.494  0.00  0.00    +0.163 HD
ATOM      6  H   UNL     1      -1.046 -10.674  -6.047  0.00  0.00    +0.159 HD
ATOM      7  H   UNL     1      -1.355 -12.278  -5.499  0.00  0.00    +0.159 HD
ATOM      8  H   UNL     1       2.361 -10.595  -5.139  0.00  0.00    +0.159 HD
ATOM      9  H   UNL     1       1.055  -9.724  -5.844  0.00  0.00    +0.159 HD
ENDROOT
BRANCH   1  10
ATOM     10  C   UNL     1       2.385 -12.998  -4.232  0.00  0.00    +0.151 C 
BRANCH  10  11
ATOM     11  C   UNL     1       2.518 -12.693  -2.765  0.00  0.00    -0.028 A 
ATOM     12  C   UNL     1       3.502 -11.803  -2.310  0.00  0.00    +0.005 A 
ATOM     13  C   UNL     1       1.660 -13.287  -1.827  0.00  0.00    +0.005 A 
ATOM     14  C   UNL     1       3.607 -11.497  -0.951  0.00  0.00    +0.000 A 
ATOM     15  C   UNL     1       1.769 -12.979  -0.471  0.00  0.00    +0.000 A 
ATOM     16  C   UNL     1       2.741 -12.082  -0.033  0.00  0.00    +0.000 A 
ENDBRANCH  10  11
ENDBRANCH   1  10
TORSDOF 2
ENDMDL
