MODEL 1
REMARK VINA RESULT:    -5.154      0.000      0.000
REMARK INTER + INTRA:          -5.828
REMARK INTER:                  -5.757
REMARK INTRA:                  -0.071
REMARK UNBOUND:                -0.071
REMARK  Name = 1550473
REMARK  2 active torsions:
REMARK  status: ('A' for Active; 'I' for Inactive)
REMARK    1  A    between atoms: N_1  and  C_4
REMARK    2  A    between atoms: C_4  and  C_5
REMARK                            x       y       z     vdW  Elec       q    Type
REMARK                         _______ _______ _______ _____ _____    ______ ____
ROOT
ATOM      1  N   UNL     1      12.154   1.555  19.462  0.00  0.00    -0.354 N 
ATOM      2  N   UNL     1      11.233   2.991  17.897  0.00  0.00    -0.372 N 
ATOM      3  N   UNL     1      12.544   1.254  17.171  0.00  0.00    -0.372 N 
ATOM      4  C   UNL     1      11.985   1.922  18.185  0.00  0.00    +0.166 C 
ATOM      5  H   UNL     1      11.728   2.121  20.187  0.00  0.00    +0.163 HD
ATOM      6  H   UNL     1      11.084   3.290  16.942  0.00  0.00    +0.159 HD
ATOM      7  H   UNL     1      10.771   3.529  18.620  0.00  0.00    +0.159 HD
ATOM      8  H   UNL     1      13.128   0.442  17.322  0.00  0.00    +0.159 HD
ATOM      9  H   UNL     1      12.417   1.545  16.210  0.00  0.00    +0.159 HD
ENDROOT
BRANCH   1  10
ATOM     10  C   UNL     1      12.910   0.375  19.880  0.00  0.00    +0.151 C 
BRANCH  10  11
ATOM     11  C   UNL     1      11.950  -0.679  20.358  0.00  0.00    -0.028 A 
ATOM     12  C   UNL     1      10.824  -1.016  19.592  0.00  0.00    +0.005 A 
ATOM     13  C   UNL     1      12.163  -1.349  21.573  0.00  0.00    +0.005 A 
ATOM     14  C   UNL     1       9.948  -2.017  20.021  0.00  0.00    +0.000 A 
ATOM     15  C   UNL     1      11.286  -2.346  21.998  0.00  0.00    +0.000 A 
ATOM     16  C   UNL     1      10.180  -2.682  21.220  0.00  0.00    +0.000 A 
ENDBRANCH  10  11
ENDBRANCH   1  10
TORSDOF 2
ENDMDL
MODEL 2
REMARK VINA RESULT:    -5.001      2.172      3.355
REMARK INTER + INTRA:          -5.657
REMARK INTER:                  -5.497
REMARK INTRA:                  -0.160
REMARK UNBOUND:                -0.071
REMARK  Name = 1550473
REMARK  2 active torsions:
REMARK  status: ('A' for Active; 'I' for Inactive)
REMARK    1  A    between atoms: N_1  and  C_4
REMARK    2  A    between atoms: C_4  and  C_5
REMARK                            x       y       z     vdW  Elec       q    Type
REMARK                         _______ _______ _______ _____ _____    ______ ____
ROOT
ATOM      1  N   UNL     1      13.619   1.562  21.135  0.00  0.00    -0.354 N 
ATOM      2  N   UNL     1      13.471   3.628  22.171  0.00  0.00    -0.372 N 
ATOM      3  N   UNL     1      12.713   1.771  23.286  0.00  0.00    -0.372 N 
ATOM      4  C   UNL     1      13.267   2.306  22.192  0.00  0.00    +0.166 C 
ATOM      5  H   UNL     1      14.007   2.032  20.324  0.00  0.00    +0.163 HD
ATOM      6  H   UNL     1      13.219   4.214  22.955  0.00  0.00    +0.159 HD
ATOM      7  H   UNL     1      13.901   4.089  21.378  0.00  0.00    +0.159 HD
ATOM      8  H   UNL     1      12.528   0.780  23.362  0.00  0.00    +0.159 HD
ATOM      9  H   UNL     1      12.443   2.343  24.076  0.00  0.00    +0.159 HD
ENDROOT
BRANCH   1  10
ATOM     10  C   UNL     1      13.490   0.107  21.078  0.00  0.00    +0.151 C 
BRANCH  10  11
ATOM     11  C   UNL     1      12.217  -0.245  20.359  0.00  0.00    -0.028 A 
ATOM     12  C   UNL     1      11.446  -1.341  20.773  0.00  0.00    +0.005 A 
ATOM     13  C   UNL     1      11.775   0.516  19.266  0.00  0.00    +0.005 A 
ATOM     14  C   UNL     1      10.248  -1.651  20.124  0.00  0.00    +0.000 A 
ATOM     15  C   UNL     1      10.579   0.203  18.621  0.00  0.00    +0.000 A 
ATOM     16  C   UNL     1       9.815  -0.879  19.051  0.00  0.00    +0.000 A 
ENDBRANCH  10  11
ENDBRANCH   1  10
TORSDOF 2
ENDMDL
MODEL 3
REMARK VINA RESULT:    -4.869     17.557     18.981
REMARK INTER + INTRA:          -5.510
REMARK INTER:                  -5.413
REMARK INTRA:                  -0.097
REMARK UNBOUND:                -0.071
REMARK  Name = 1550473
REMARK  2 active torsions:
REMARK  status: ('A' for Active; 'I' for Inactive)
REMARK    1  A    between atoms: N_1  and  C_4
REMARK    2  A    between atoms: C_4  and  C_5
REMARK                            x       y       z     vdW  Elec       q    Type
REMARK                         _______ _______ _______ _____ _____    ______ ____
ROOT
ATOM      1  N   UNL     1      -1.684 -12.026  10.349  0.00  0.00    -0.354 N 
ATOM      2  N   UNL     1      -2.255 -12.379   8.133  0.00  0.00    -0.372 N 
ATOM      3  N   UNL     1      -0.699 -13.754   9.110  0.00  0.00    -0.372 N 
ATOM      4  C   UNL     1      -1.540 -12.719   9.212  0.00  0.00    +0.166 C 
ATOM      5  H   UNL     1      -2.316 -11.234  10.353  0.00  0.00    +0.163 HD
ATOM      6  H   UNL     1      -2.170 -12.886   7.262  0.00  0.00    +0.159 HD
ATOM      7  H   UNL     1      -2.919 -11.615   8.153  0.00  0.00    +0.159 HD
ATOM      8  H   UNL     1      -0.126 -14.057   9.886  0.00  0.00    +0.159 HD
ATOM      9  H   UNL     1      -0.591 -14.266   8.243  0.00  0.00    +0.159 HD
ENDROOT
BRANCH   1  10
ATOM     10  C   UNL     1      -0.993 -12.349  11.596  0.00  0.00    +0.151 C 
BRANCH  10  11
ATOM     11  C   UNL     1      -0.862 -11.099  12.423  0.00  0.00    -0.028 A 
ATOM     12  C   UNL     1       0.377 -10.454  12.546  0.00  0.00    +0.005 A 
ATOM     13  C   UNL     1      -1.974 -10.552  13.080  0.00  0.00    +0.005 A 
ATOM     14  C   UNL     1       0.494  -9.277  13.289  0.00  0.00    +0.000 A 
ATOM     15  C   UNL     1      -1.854  -9.377  13.821  0.00  0.00    +0.000 A 
ATOM     16  C   UNL     1      -0.621  -8.738  13.923  0.00  0.00    +0.000 A 
ENDBRANCH  10  11
ENDBRANCH   1  10
TORSDOF 2
ENDMDL
MODEL 4
REMARK VINA RESULT:    -4.557      9.805     10.973
REMARK INTER + INTRA:          -5.161
REMARK INTER:                  -5.002
REMARK INTRA:                  -0.159
REMARK UNBOUND:                -0.071
REMARK  Name = 1550473
REMARK  2 active torsions:
REMARK  status: ('A' for Active; 'I' for Inactive)
REMARK    1  A    between atoms: N_1  and  C_4
REMARK    2  A    between atoms: C_4  and  C_5
REMARK                            x       y       z     vdW  Elec       q    Type
REMARK                         _______ _______ _______ _____ _____    ______ ____
ROOT
ATOM      1  N   UNL     1      17.340   6.581  21.755  0.00  0.00    -0.354 N 
ATOM      2  N   UNL     1      18.942   5.886  20.234  0.00  0.00    -0.372 N 
ATOM      3  N   UNL     1      19.607   7.076  22.080  0.00  0.00    -0.372 N 
ATOM      4  C   UNL     1      18.621   6.521  21.368  0.00  0.00    +0.166 C 
ATOM      5  H   UNL     1      16.635   6.166  21.156  0.00  0.00    +0.163 HD
ATOM      6  H   UNL     1      19.900   5.821  19.918  0.00  0.00    +0.159 HD
ATOM      7  H   UNL     1      18.241   5.432  19.661  0.00  0.00    +0.159 HD
ATOM      8  H   UNL     1      19.430   7.575  22.942  0.00  0.00    +0.159 HD
ATOM      9  H   UNL     1      20.571   7.032  21.774  0.00  0.00    +0.159 HD
ENDROOT
BRANCH   1  10
ATOM     10  C   UNL     1      16.890   7.201  23.000  0.00  0.00    +0.151 C 
BRANCH  10  11
ATOM     11  C   UNL     1      16.171   8.483  22.679  0.00  0.00    -0.028 A 
ATOM     12  C   UNL     1      16.889   9.625  22.296  0.00  0.00    +0.005 A 
ATOM     13  C   UNL     1      14.772   8.559  22.751  0.00  0.00    +0.005 A 
ATOM     14  C   UNL     1      16.220  10.807  21.969  0.00  0.00    +0.000 A 
ATOM     15  C   UNL     1      14.108   9.741  22.424  0.00  0.00    +0.000 A 
ATOM     16  C   UNL     1      14.832  10.864  22.031  0.00  0.00    +0.000 A 
ENDBRANCH  10  11
ENDBRANCH   1  10
TORSDOF 2
ENDMDL
MODEL 5
REMARK VINA RESULT:    -4.321      2.479      3.847
REMARK INTER + INTRA:          -4.898
REMARK INTER:                  -4.758
REMARK INTRA:                  -0.140
REMARK UNBOUND:                -0.071
REMARK  Name = 1550473
REMARK  2 active torsions:
REMARK  status: ('A' for Active; 'I' for Inactive)
REMARK    1  A    between atoms: N_1  and  C_4
REMARK    2  A    between atoms: C_4  and  C_5
REMARK                            x       y       z     vdW  Elec       q    Type
REMARK                         _______ _______ _______ _____ _____    ______ ____
ROOT
ATOM      1  N   UNL     1      12.757   1.299  18.820  0.00  0.00    -0.354 N 
ATOM      2  N   UNL     1      11.332   2.815  17.804  0.00  0.00    -0.372 N 
ATOM      3  N   UNL     1      10.438   0.965  18.825  0.00  0.00    -0.372 N 
ATOM      4  C   UNL     1      11.516   1.681  18.491  0.00  0.00    +0.166 C 
ATOM      5  H   UNL     1      13.535   1.870  18.511  0.00  0.00    +0.163 HD
ATOM      6  H   UNL     1      10.407   3.131  17.544  0.00  0.00    +0.159 HD
ATOM      7  H   UNL     1      12.108   3.408  17.536  0.00  0.00    +0.159 HD
ATOM      8  H   UNL     1      10.509   0.097  19.338  0.00  0.00    +0.159 HD
ATOM      9  H   UNL     1       9.505   1.259  18.564  0.00  0.00    +0.159 HD
ENDROOT
BRANCH   1  10
ATOM     10  C   UNL     1      13.063   0.109  19.613  0.00  0.00    +0.151 C 
BRANCH  10  11
ATOM     11  C   UNL     1      13.970   0.495  20.748  0.00  0.00    -0.028 A 
ATOM     12  C   UNL     1      13.545   1.415  21.718  0.00  0.00    +0.005 A 
ATOM     13  C   UNL     1      15.254  -0.060  20.864  0.00  0.00    +0.005 A 
ATOM     14  C   UNL     1      14.375   1.751  22.790  0.00  0.00    +0.000 A 
ATOM     15  C   UNL     1      16.080   0.279  21.935  0.00  0.00    +0.000 A 
ATOM     16  C   UNL     1      15.640   1.183  22.899  0.00  0.00    +0.000 A 
ENDBRANCH  10  11
ENDBRANCH   1  10
TORSDOF 2
ENDMDL
MODEL 6
REMARK VINA RESULT:    -4.269     13.540     14.560
REMARK INTER + INTRA:          -4.840
REMARK INTER:                  -4.710
REMARK INTRA:                  -0.130
REMARK UNBOUND:                -0.071
REMARK  Name = 1550473
REMARK  2 active torsions:
REMARK  status: ('A' for Active; 'I' for Inactive)
REMARK    1  A    between atoms: N_1  and  C_4
REMARK    2  A    between atoms: C_4  and  C_5
REMARK                            x       y       z     vdW  Elec       q    Type
REMARK                         _______ _______ _______ _____ _____    ______ ____
ROOT
ATOM      1  N   UNL     1       9.077  -5.349   4.850  0.00  0.00    -0.354 N 
ATOM      2  N   UNL     1      10.274  -4.301   3.167  0.00  0.00    -0.372 N 
ATOM      3  N   UNL     1      11.358  -5.785   4.541  0.00  0.00    -0.372 N 
ATOM      4  C   UNL     1      10.230  -5.153   4.198  0.00  0.00    +0.166 C 
ATOM      5  H   UNL     1       8.264  -4.817   4.561  0.00  0.00    +0.163 HD
ATOM      6  H   UNL     1      11.129  -4.136   2.654  0.00  0.00    +0.159 HD
ATOM      7  H   UNL     1       9.449  -3.805   2.851  0.00  0.00    +0.159 HD
ATOM      8  H   UNL     1      11.394  -6.436   5.314  0.00  0.00    +0.159 HD
ATOM      9  H   UNL     1      12.227  -5.624   4.047  0.00  0.00    +0.159 HD
ENDROOT
BRANCH   1  10
ATOM     10  C   UNL     1       8.910  -6.295   5.952  0.00  0.00    +0.151 C 
BRANCH  10  11
ATOM     11  C   UNL     1       8.431  -5.553   7.169  0.00  0.00    -0.028 A 
ATOM     12  C   UNL     1       7.883  -6.248   8.257  0.00  0.00    +0.005 A 
ATOM     13  C   UNL     1       8.527  -4.155   7.242  0.00  0.00    +0.005 A 
ATOM     14  C   UNL     1       7.465  -5.562   9.400  0.00  0.00    +0.000 A 
ATOM     15  C   UNL     1       8.108  -3.473   8.385  0.00  0.00    +0.000 A 
ATOM     16  C   UNL     1       7.579  -4.177   9.464  0.00  0.00    +0.000 A 
ENDBRANCH  10  11
ENDBRANCH   1  10
TORSDOF 2
ENDMDL
MODEL 7
REMARK VINA RESULT:    -4.131     14.728     15.430
REMARK INTER + INTRA:          -4.685
REMARK INTER:                  -4.544
REMARK INTRA:                  -0.141
REMARK UNBOUND:                -0.071
REMARK  Name = 1550473
REMARK  2 active torsions:
REMARK  status: ('A' for Active; 'I' for Inactive)
REMARK    1  A    between atoms: N_1  and  C_4
REMARK    2  A    between atoms: C_4  and  C_5
REMARK                            x       y       z     vdW  Elec       q    Type
REMARK                         _______ _______ _______ _____ _____    ______ ____
ROOT
ATOM      1  N   UNL     1      -2.469  -4.417  15.206  0.00  0.00    -0.354 N 
ATOM      2  N   UNL     1      -2.221  -2.365  16.252  0.00  0.00    -0.372 N 
ATOM      3  N   UNL     1      -1.534  -2.590  14.075  0.00  0.00    -0.372 N 
ATOM      4  C   UNL     1      -2.075  -3.137  15.168  0.00  0.00    +0.166 C 
ATOM      5  H   UNL     1      -2.844  -4.779  16.075  0.00  0.00    +0.163 HD
ATOM      6  H   UNL     1      -1.936  -1.395  16.252  0.00  0.00    +0.159 HD
ATOM      7  H   UNL     1      -2.639  -2.718  17.105  0.00  0.00    +0.159 HD
ATOM      8  H   UNL     1      -1.391  -3.120  13.226  0.00  0.00    +0.159 HD
ATOM      9  H   UNL     1      -1.232  -1.624  14.059  0.00  0.00    +0.159 HD
ENDROOT
BRANCH   1  10
ATOM     10  C   UNL     1      -2.404  -5.327  14.064  0.00  0.00    +0.151 C 
BRANCH  10  11
ATOM     11  C   UNL     1      -1.840  -6.645  14.518  0.00  0.00    -0.028 A 
ATOM     12  C   UNL     1      -1.495  -6.847  15.862  0.00  0.00    +0.005 A 
ATOM     13  C   UNL     1      -1.653  -7.698  13.609  0.00  0.00    +0.005 A 
ATOM     14  C   UNL     1      -1.000  -8.081  16.290  0.00  0.00    +0.000 A 
ATOM     15  C   UNL     1      -1.157  -8.928  14.040  0.00  0.00    +0.000 A 
ATOM     16  C   UNL     1      -0.833  -9.120  15.381  0.00  0.00    +0.000 A 
ENDBRANCH  10  11
ENDBRANCH   1  10
TORSDOF 2
ENDMDL
MODEL 8
REMARK VINA RESULT:    -4.099      4.504      5.591
REMARK INTER + INTRA:          -4.650
REMARK INTER:                  -4.517
REMARK INTRA:                  -0.133
REMARK UNBOUND:                -0.071
REMARK  Name = 1550473
REMARK  2 active torsions:
REMARK  status: ('A' for Active; 'I' for Inactive)
REMARK    1  A    between atoms: N_1  and  C_4
REMARK    2  A    between atoms: C_4  and  C_5
REMARK                            x       y       z     vdW  Elec       q    Type
REMARK                         _______ _______ _______ _____ _____    ______ ____
ROOT
ATOM      1  N   UNL     1      16.730   2.528  22.067  0.00  0.00    -0.354 N 
ATOM      2  N   UNL     1      18.913   3.068  21.512  0.00  0.00    -0.372 N 
ATOM      3  N   UNL     1      18.487   2.148  23.571  0.00  0.00    -0.372 N 
ATOM      4  C   UNL     1      18.029   2.577  22.389  0.00  0.00    +0.166 C 
ATOM      5  H   UNL     1      16.443   2.897  21.167  0.00  0.00    +0.163 HD
ATOM      6  H   UNL     1      19.900   3.115  21.726  0.00  0.00    +0.159 HD
ATOM      7  H   UNL     1      18.630   3.394  20.596  0.00  0.00    +0.159 HD
ATOM      8  H   UNL     1      17.871   1.772  24.279  0.00  0.00    +0.159 HD
ATOM      9  H   UNL     1      19.470   2.198  23.808  0.00  0.00    +0.159 HD
ENDROOT
BRANCH   1  10
ATOM     10  C   UNL     1      15.694   1.963  22.929  0.00  0.00    +0.151 C 
BRANCH  10  11
ATOM     11  C   UNL     1      14.706   1.210  22.081  0.00  0.00    -0.028 A 
ATOM     12  C   UNL     1      13.342   1.211  22.407  0.00  0.00    +0.005 A 
ATOM     13  C   UNL     1      15.127   0.498  20.947  0.00  0.00    +0.005 A 
ATOM     14  C   UNL     1      12.420   0.536  21.603  0.00  0.00    +0.000 A 
ATOM     15  C   UNL     1      14.203  -0.174  20.147  0.00  0.00    +0.000 A 
ATOM     16  C   UNL     1      12.850  -0.153  20.474  0.00  0.00    +0.000 A 
ENDBRANCH  10  11
ENDBRANCH   1  10
TORSDOF 2
ENDMDL
MODEL 9
REMARK VINA RESULT:    -4.095     13.017     14.219
REMARK INTER + INTRA:          -4.645
REMARK INTER:                  -4.548
REMARK INTRA:                  -0.097
REMARK UNBOUND:                -0.071
REMARK  Name = 1550473
REMARK  2 active torsions:
REMARK  status: ('A' for Active; 'I' for Inactive)
REMARK    1  A    between atoms: N_1  and  C_4
REMARK    2  A    between atoms: C_4  and  C_5
REMARK                            x       y       z     vdW  Elec       q    Type
REMARK                         _______ _______ _______ _____ _____    ______ ____
ROOT
ATOM      1  N   UNL     1       9.747  -8.149   8.469  0.00  0.00    -0.354 N 
ATOM      2  N   UNL     1      11.536  -9.618   8.387  0.00  0.00    -0.372 N 
ATOM      3  N   UNL     1       9.444 -10.385   7.836  0.00  0.00    -0.372 N 
ATOM      4  C   UNL     1      10.228  -9.376   8.231  0.00  0.00    +0.166 C 
ATOM      5  H   UNL     1      10.388  -7.435   8.795  0.00  0.00    +0.163 HD
ATOM      6  H   UNL     1      11.928 -10.533   8.211  0.00  0.00    +0.159 HD
ATOM      7  H   UNL     1      12.182  -8.891   8.668  0.00  0.00    +0.159 HD
ATOM      8  H   UNL     1       8.448 -10.270   7.705  0.00  0.00    +0.159 HD
ATOM      9  H   UNL     1       9.817 -11.311   7.666  0.00  0.00    +0.159 HD
ENDROOT
BRANCH   1  10
ATOM     10  C   UNL     1       8.349  -7.768   8.277  0.00  0.00    +0.151 C 
BRANCH  10  11
ATOM     11  C   UNL     1       8.239  -6.268   8.310  0.00  0.00    -0.028 A 
ATOM     12  C   UNL     1       8.683  -5.499   7.225  0.00  0.00    +0.005 A 
ATOM     13  C   UNL     1       7.687  -5.612   9.420  0.00  0.00    +0.005 A 
ATOM     14  C   UNL     1       8.555  -4.108   7.242  0.00  0.00    +0.000 A 
ATOM     15  C   UNL     1       7.561  -4.223   9.434  0.00  0.00    +0.000 A 
ATOM     16  C   UNL     1       7.993  -3.471   8.343  0.00  0.00    +0.000 A 
ENDBRANCH  10  11
ENDBRANCH   1  10
TORSDOF 2
ENDMDL
