MODEL 1
REMARK VINA RESULT:    -5.469      0.000      0.000
REMARK INTER + INTRA:          -6.247
REMARK INTER:                  -6.109
REMARK INTRA:                  -0.138
REMARK UNBOUND:                -0.138
REMARK  Name = 1550473
REMARK  2 active torsions:
REMARK  status: ('A' for Active; 'I' for Inactive)
REMARK    1  A    between atoms: N_1  and  C_4
REMARK    2  A    between atoms: C_4  and  C_5
REMARK                            x       y       z     vdW  Elec       q    Type
REMARK                         _______ _______ _______ _____ _____    ______ ____
ROOT
ATOM      1  N   UNL     1      -5.903  -8.861  -7.103  0.00  0.00    -0.354 N 
ATOM      2  N   UNL     1      -6.040  -9.772  -9.228  0.00  0.00    -0.372 N 
ATOM      3  N   UNL     1      -5.011 -10.977  -7.568  0.00  0.00    -0.372 N 
ATOM      4  C   UNL     1      -5.649  -9.866  -7.951  0.00  0.00    +0.166 C 
ATOM      5  H   UNL     1      -6.364  -8.033  -7.463  0.00  0.00    +0.163 HD
ATOM      6  H   UNL     1      -5.865 -10.516  -9.890  0.00  0.00    +0.159 HD
ATOM      7  H   UNL     1      -6.540  -8.963  -9.574  0.00  0.00    +0.159 HD
ATOM      8  H   UNL     1      -4.685 -11.108  -6.619  0.00  0.00    +0.159 HD
ATOM      9  H   UNL     1      -4.816 -11.728  -8.218  0.00  0.00    +0.159 HD
ENDROOT
BRANCH   1  10
ATOM     10  C   UNL     1      -5.568  -8.886  -5.680  0.00  0.00    +0.151 C 
BRANCH  10  11
ATOM     11  C   UNL     1      -6.749  -8.396  -4.889  0.00  0.00    -0.028 A 
ATOM     12  C   UNL     1      -6.560  -7.641  -3.722  0.00  0.00    +0.005 A 
ATOM     13  C   UNL     1      -8.059  -8.678  -5.303  0.00  0.00    +0.005 A 
ATOM     14  C   UNL     1      -7.656  -7.160  -3.002  0.00  0.00    +0.000 A 
ATOM     15  C   UNL     1      -9.152  -8.197  -4.581  0.00  0.00    +0.000 A 
ATOM     16  C   UNL     1      -8.950  -7.436  -3.433  0.00  0.00    +0.000 A 
ENDBRANCH  10  11
ENDBRANCH   1  10
TORSDOF 2
ENDMDL
MODEL 2
REMARK VINA RESULT:    -4.677      3.784      4.884
REMARK INTER + INTRA:          -5.362
REMARK INTER:                  -5.196
REMARK INTRA:                  -0.166
REMARK UNBOUND:                -0.138
REMARK  Name = 1550473
REMARK  2 active torsions:
REMARK  status: ('A' for Active; 'I' for Inactive)
REMARK    1  A    between atoms: N_1  and  C_4
REMARK    2  A    between atoms: C_4  and  C_5
REMARK                            x       y       z     vdW  Elec       q    Type
REMARK                         _______ _______ _______ _____ _____    ______ ____
ROOT
ATOM      1  N   UNL     1      -6.127  -8.429  -1.395  0.00  0.00    -0.354 N 
ATOM      2  N   UNL     1      -4.279  -8.886  -0.077  0.00  0.00    -0.372 N 
ATOM      3  N   UNL     1      -5.138 -10.553  -1.398  0.00  0.00    -0.372 N 
ATOM      4  C   UNL     1      -5.194  -9.289  -0.967  0.00  0.00    +0.166 C 
ATOM      5  H   UNL     1      -6.134  -7.492  -1.007  0.00  0.00    +0.163 HD
ATOM      6  H   UNL     1      -3.560  -9.511   0.262  0.00  0.00    +0.159 HD
ATOM      7  H   UNL     1      -4.260  -7.936   0.275  0.00  0.00    +0.159 HD
ATOM      8  H   UNL     1      -5.804 -10.921  -2.065  0.00  0.00    +0.159 HD
ATOM      9  H   UNL     1      -4.434 -11.198  -1.062  0.00  0.00    +0.159 HD
ENDROOT
BRANCH   1  10
ATOM     10  C   UNL     1      -7.136  -8.752  -2.403  0.00  0.00    +0.151 C 
BRANCH  10  11
ATOM     11  C   UNL     1      -6.665  -8.263  -3.744  0.00  0.00    -0.028 A 
ATOM     12  C   UNL     1      -5.987  -7.041  -3.859  0.00  0.00    +0.005 A 
ATOM     13  C   UNL     1      -6.889  -9.020  -4.905  0.00  0.00    +0.005 A 
ATOM     14  C   UNL     1      -5.523  -6.601  -5.101  0.00  0.00    +0.000 A 
ATOM     15  C   UNL     1      -6.425  -8.577  -6.143  0.00  0.00    +0.000 A 
ATOM     16  C   UNL     1      -5.739  -7.368  -6.240  0.00  0.00    +0.000 A 
ENDBRANCH  10  11
ENDBRANCH   1  10
TORSDOF 2
ENDMDL
MODEL 3
REMARK VINA RESULT:    -4.597     19.913     21.393
REMARK INTER + INTRA:          -5.272
REMARK INTER:                  -5.097
REMARK INTRA:                  -0.175
REMARK UNBOUND:                -0.138
REMARK  Name = 1550473
REMARK  2 active torsions:
REMARK  status: ('A' for Active; 'I' for Inactive)
REMARK    1  A    between atoms: N_1  and  C_4
REMARK    2  A    between atoms: C_4  and  C_5
REMARK                            x       y       z     vdW  Elec       q    Type
REMARK                         _______ _______ _______ _____ _____    ______ ____
ROOT
ATOM      1  N   UNL     1      -9.734   2.750 -20.724  0.00  0.00    -0.354 N 
ATOM      2  N   UNL     1      -9.763   3.811 -18.666  0.00  0.00    -0.372 N 
ATOM      3  N   UNL     1     -11.228   4.503 -20.291  0.00  0.00    -0.372 N 
ATOM      4  C   UNL     1     -10.244   3.683 -19.908  0.00  0.00    +0.166 C 
ATOM      5  H   UNL     1      -8.968   2.180 -20.384  0.00  0.00    +0.163 HD
ATOM      6  H   UNL     1     -10.130   4.504 -18.027  0.00  0.00    +0.159 HD
ATOM      7  H   UNL     1      -9.029   3.210 -18.313  0.00  0.00    +0.159 HD
ATOM      8  H   UNL     1     -11.630   4.461 -21.218  0.00  0.00    +0.159 HD
ATOM      9  H   UNL     1     -11.601   5.210 -19.670  0.00  0.00    +0.159 HD
ENDROOT
BRANCH   1  10
ATOM     10  C   UNL     1     -10.223   2.492 -22.077  0.00  0.00    +0.151 C 
BRANCH  10  11
ATOM     11  C   UNL     1      -9.263   3.091 -23.068  0.00  0.00    -0.028 A 
ATOM     12  C   UNL     1      -9.705   4.037 -24.005  0.00  0.00    +0.005 A 
ATOM     13  C   UNL     1      -7.909   2.721 -23.072  0.00  0.00    +0.005 A 
ATOM     14  C   UNL     1      -8.808   4.615 -24.906  0.00  0.00    +0.000 A 
ATOM     15  C   UNL     1      -7.017   3.301 -23.974  0.00  0.00    +0.000 A 
ATOM     16  C   UNL     1      -7.466   4.250 -24.889  0.00  0.00    +0.000 A 
ENDBRANCH  10  11
ENDBRANCH   1  10
TORSDOF 2
ENDMDL
MODEL 4
REMARK VINA RESULT:    -4.582     28.589     29.776
REMARK INTER + INTRA:          -5.256
REMARK INTER:                  -5.119
REMARK INTRA:                  -0.137
REMARK UNBOUND:                -0.138
REMARK  Name = 1550473
REMARK  2 active torsions:
REMARK  status: ('A' for Active; 'I' for Inactive)
REMARK    1  A    between atoms: N_1  and  C_4
REMARK    2  A    between atoms: C_4  and  C_5
REMARK                            x       y       z     vdW  Elec       q    Type
REMARK                         _______ _______ _______ _____ _____    ______ ____
ROOT
ATOM      1  N   UNL     1      14.447   4.860   8.889  0.00  0.00    -0.354 N 
ATOM      2  N   UNL     1      13.486   3.887   7.020  0.00  0.00    -0.372 N 
ATOM      3  N   UNL     1      13.951   2.570   8.841  0.00  0.00    -0.372 N 
ATOM      4  C   UNL     1      13.968   3.777   8.264  0.00  0.00    +0.166 C 
ATOM      5  H   UNL     1      14.460   5.740   8.386  0.00  0.00    +0.163 HD
ATOM      6  H   UNL     1      13.115   3.088   6.524  0.00  0.00    +0.159 HD
ATOM      7  H   UNL     1      13.458   4.777   6.537  0.00  0.00    +0.159 HD
ATOM      8  H   UNL     1      14.306   2.419   9.776  0.00  0.00    +0.159 HD
ATOM      9  H   UNL     1      13.594   1.756   8.356  0.00  0.00    +0.159 HD
ENDROOT
BRANCH   1  10
ATOM     10  C   UNL     1      14.945   4.858  10.264  0.00  0.00    +0.151 C 
BRANCH  10  11
ATOM     11  C   UNL     1      14.165   5.858  11.071  0.00  0.00    -0.028 A 
ATOM     12  C   UNL     1      14.480   7.223  11.012  0.00  0.00    +0.005 A 
ATOM     13  C   UNL     1      13.104   5.447  11.893  0.00  0.00    +0.005 A 
ATOM     14  C   UNL     1      13.736   8.155  11.738  0.00  0.00    +0.000 A 
ATOM     15  C   UNL     1      12.364   6.381  12.617  0.00  0.00    +0.000 A 
ATOM     16  C   UNL     1      12.678   7.735  12.538  0.00  0.00    +0.000 A 
ENDBRANCH  10  11
ENDBRANCH   1  10
TORSDOF 2
ENDMDL
MODEL 5
REMARK VINA RESULT:    -4.481     20.327     21.071
REMARK INTER + INTRA:          -5.144
REMARK INTER:                  -4.969
REMARK INTRA:                  -0.175
REMARK UNBOUND:                -0.138
REMARK  Name = 1550473
REMARK  2 active torsions:
REMARK  status: ('A' for Active; 'I' for Inactive)
REMARK    1  A    between atoms: N_1  and  C_4
REMARK    2  A    between atoms: C_4  and  C_5
REMARK                            x       y       z     vdW  Elec       q    Type
REMARK                         _______ _______ _______ _____ _____    ______ ____
ROOT
ATOM      1  N   UNL     1      -5.070  11.992 -10.761  0.00  0.00    -0.354 N 
ATOM      2  N   UNL     1      -6.154  13.095  -9.036  0.00  0.00    -0.372 N 
ATOM      3  N   UNL     1      -6.192  10.801  -9.084  0.00  0.00    -0.372 N 
ATOM      4  C   UNL     1      -5.799  11.953  -9.638  0.00  0.00    +0.166 C 
ATOM      5  H   UNL     1      -4.829  12.898 -11.147  0.00  0.00    +0.163 HD
ATOM      6  H   UNL     1      -6.701  13.096  -8.186  0.00  0.00    +0.159 HD
ATOM      7  H   UNL     1      -5.873  13.997  -9.399  0.00  0.00    +0.159 HD
ATOM      8  H   UNL     1      -5.962   9.905  -9.492  0.00  0.00    +0.159 HD
ATOM      9  H   UNL     1      -6.750  10.782  -8.239  0.00  0.00    +0.159 HD
ENDROOT
BRANCH   1  10
ATOM     10  C   UNL     1      -4.586  10.806 -11.464  0.00  0.00    +0.151 C 
BRANCH  10  11
ATOM     11  C   UNL     1      -3.137  10.590 -11.123  0.00  0.00    -0.028 A 
ATOM     12  C   UNL     1      -2.128  11.175 -11.902  0.00  0.00    +0.005 A 
ATOM     13  C   UNL     1      -2.767   9.805 -10.020  0.00  0.00    +0.005 A 
ATOM     14  C   UNL     1      -0.783  11.000 -11.568  0.00  0.00    +0.000 A 
ATOM     15  C   UNL     1      -1.423   9.632  -9.691  0.00  0.00    +0.000 A 
ATOM     16  C   UNL     1      -0.431  10.231 -10.464  0.00  0.00    +0.000 A 
ENDBRANCH  10  11
ENDBRANCH   1  10
TORSDOF 2
ENDMDL
MODEL 6
REMARK VINA RESULT:    -4.379     18.487     19.818
REMARK INTER + INTRA:          -5.029
REMARK INTER:                  -4.897
REMARK INTRA:                  -0.132
REMARK UNBOUND:                -0.138
REMARK  Name = 1550473
REMARK  2 active torsions:
REMARK  status: ('A' for Active; 'I' for Inactive)
REMARK    1  A    between atoms: N_1  and  C_4
REMARK    2  A    between atoms: C_4  and  C_5
REMARK                            x       y       z     vdW  Elec       q    Type
REMARK                         _______ _______ _______ _____ _____    ______ ____
ROOT
ATOM      1  N   UNL     1       1.389  -8.341  13.034  0.00  0.00    -0.354 N 
ATOM      2  N   UNL     1       3.293  -9.098  14.114  0.00  0.00    -0.372 N 
ATOM      3  N   UNL     1       2.149  -7.318  15.001  0.00  0.00    -0.372 N 
ATOM      4  C   UNL     1       2.264  -8.245  14.044  0.00  0.00    +0.166 C 
ATOM      5  H   UNL     1       1.550  -9.046  12.324  0.00  0.00    +0.163 HD
ATOM      6  H   UNL     1       3.968  -9.052  14.866  0.00  0.00    +0.159 HD
ATOM      7  H   UNL     1       3.425  -9.831  13.427  0.00  0.00    +0.159 HD
ATOM      8  H   UNL     1       1.397  -6.641  15.003  0.00  0.00    +0.159 HD
ATOM      9  H   UNL     1       2.820  -7.249  15.756  0.00  0.00    +0.159 HD
ENDROOT
BRANCH   1  10
ATOM     10  C   UNL     1       0.205  -7.496  12.895  0.00  0.00    +0.151 C 
BRANCH  10  11
ATOM     11  C   UNL     1      -0.884  -8.283  12.220  0.00  0.00    -0.028 A 
ATOM     12  C   UNL     1      -2.093  -7.667  11.866  0.00  0.00    +0.005 A 
ATOM     13  C   UNL     1      -0.711  -9.645  11.927  0.00  0.00    +0.005 A 
ATOM     14  C   UNL     1      -3.093  -8.391  11.212  0.00  0.00    +0.000 A 
ATOM     15  C   UNL     1      -1.712 -10.364  11.275  0.00  0.00    +0.000 A 
ATOM     16  C   UNL     1      -2.902  -9.736  10.915  0.00  0.00    +0.000 A 
ENDBRANCH  10  11
ENDBRANCH   1  10
TORSDOF 2
ENDMDL
MODEL 7
REMARK VINA RESULT:    -4.377      4.104      5.131
REMARK INTER + INTRA:          -5.027
REMARK INTER:                  -4.867
REMARK INTRA:                  -0.160
REMARK UNBOUND:                -0.138
REMARK  Name = 1550473
REMARK  2 active torsions:
REMARK  status: ('A' for Active; 'I' for Inactive)
REMARK    1  A    between atoms: N_1  and  C_4
REMARK    2  A    between atoms: C_4  and  C_5
REMARK                            x       y       z     vdW  Elec       q    Type
REMARK                         _______ _______ _______ _____ _____    ______ ____
ROOT
ATOM      1  N   UNL     1      -7.009 -10.594  -1.835  0.00  0.00    -0.354 N 
ATOM      2  N   UNL     1      -8.080 -10.495   0.217  0.00  0.00    -0.372 N 
ATOM      3  N   UNL     1      -5.802 -10.235   0.142  0.00  0.00    -0.372 N 
ATOM      4  C   UNL     1      -6.954 -10.442  -0.505  0.00  0.00    +0.166 C 
ATOM      5  H   UNL     1      -7.910 -10.778  -2.261  0.00  0.00    +0.163 HD
ATOM      6  H   UNL     1      -8.070 -10.381   1.221  0.00  0.00    +0.159 HD
ATOM      7  H   UNL     1      -8.985 -10.634  -0.217  0.00  0.00    +0.159 HD
ATOM      8  H   UNL     1      -4.916 -10.190  -0.344  0.00  0.00    +0.159 HD
ATOM      9  H   UNL     1      -5.770 -10.130   1.148  0.00  0.00    +0.159 HD
ENDROOT
BRANCH   1  10
ATOM     10  C   UNL     1      -5.848 -10.499  -2.717  0.00  0.00    +0.151 C 
BRANCH  10  11
ATOM     11  C   UNL     1      -5.895  -9.187  -3.451  0.00  0.00    -0.028 A 
ATOM     12  C   UNL     1      -5.478  -8.005  -2.823  0.00  0.00    +0.005 A 
ATOM     13  C   UNL     1      -6.350  -9.121  -4.777  0.00  0.00    +0.005 A 
ATOM     14  C   UNL     1      -5.493  -6.791  -3.514  0.00  0.00    +0.000 A 
ATOM     15  C   UNL     1      -6.364  -7.907  -5.464  0.00  0.00    +0.000 A 
ATOM     16  C   UNL     1      -5.933  -6.743  -4.833  0.00  0.00    +0.000 A 
ENDBRANCH  10  11
ENDBRANCH   1  10
TORSDOF 2
ENDMDL
MODEL 8
REMARK VINA RESULT:    -4.343     20.953     21.864
REMARK INTER + INTRA:          -4.989
REMARK INTER:                  -4.848
REMARK INTRA:                  -0.142
REMARK UNBOUND:                -0.138
REMARK  Name = 1550473
REMARK  2 active torsions:
REMARK  status: ('A' for Active; 'I' for Inactive)
REMARK    1  A    between atoms: N_1  and  C_4
REMARK    2  A    between atoms: C_4  and  C_5
REMARK                            x       y       z     vdW  Elec       q    Type
REMARK                         _______ _______ _______ _____ _____    ______ ____
ROOT
ATOM      1  N   UNL     1      10.716   3.865  -9.892  0.00  0.00    -0.354 N 
ATOM      2  N   UNL     1      10.832   6.011 -10.754  0.00  0.00    -0.372 N 
ATOM      3  N   UNL     1      12.644   4.623 -10.987  0.00  0.00    -0.372 N 
ATOM      4  C   UNL     1      11.399   4.818 -10.539  0.00  0.00    +0.166 C 
ATOM      5  H   UNL     1       9.787   4.086  -9.551  0.00  0.00    +0.163 HD
ATOM      6  H   UNL     1      11.322   6.749 -11.243  0.00  0.00    +0.159 HD
ATOM      7  H   UNL     1       9.887   6.214 -10.453  0.00  0.00    +0.159 HD
ATOM      8  H   UNL     1      13.131   3.747 -10.851  0.00  0.00    +0.159 HD
ATOM      9  H   UNL     1      13.155   5.353 -11.468  0.00  0.00    +0.159 HD
ENDROOT
BRANCH   1  10
ATOM     10  C   UNL     1      11.223   2.515  -9.654  0.00  0.00    +0.151 C 
BRANCH  10  11
ATOM     11  C   UNL     1      11.119   2.203  -8.186  0.00  0.00    -0.028 A 
ATOM     12  C   UNL     1      10.713   3.189  -7.276  0.00  0.00    +0.005 A 
ATOM     13  C   UNL     1      11.422   0.921  -7.700  0.00  0.00    +0.005 A 
ATOM     14  C   UNL     1      10.588   2.892  -5.916  0.00  0.00    +0.000 A 
ATOM     15  C   UNL     1      11.296   0.629  -6.342  0.00  0.00    +0.000 A 
ATOM     16  C   UNL     1      10.877   1.613  -5.451  0.00  0.00    +0.000 A 
ENDBRANCH  10  11
ENDBRANCH   1  10
TORSDOF 2
ENDMDL
MODEL 9
REMARK VINA RESULT:    -4.315     19.565     20.844
REMARK INTER + INTRA:          -4.957
REMARK INTER:                  -4.822
REMARK INTRA:                  -0.135
REMARK UNBOUND:                -0.138
REMARK  Name = 1550473
REMARK  2 active torsions:
REMARK  status: ('A' for Active; 'I' for Inactive)
REMARK    1  A    between atoms: N_1  and  C_4
REMARK    2  A    between atoms: C_4  and  C_5
REMARK                            x       y       z     vdW  Elec       q    Type
REMARK                         _______ _______ _______ _____ _____    ______ ____
ROOT
ATOM      1  N   UNL     1      -9.800   2.989 -21.044  0.00  0.00    -0.354 N 
ATOM      2  N   UNL     1      -8.419   2.190 -19.365  0.00  0.00    -0.372 N 
ATOM      3  N   UNL     1     -10.077   3.679 -18.822  0.00  0.00    -0.372 N 
ATOM      4  C   UNL     1      -9.443   2.960 -19.753  0.00  0.00    +0.166 C 
ATOM      5  H   UNL     1      -9.259   2.444 -21.705  0.00  0.00    +0.163 HD
ATOM      6  H   UNL     1      -8.128   2.145 -18.398  0.00  0.00    +0.159 HD
ATOM      7  H   UNL     1      -7.909   1.611 -20.022  0.00  0.00    +0.159 HD
ATOM      8  H   UNL     1     -10.854   4.285 -19.050  0.00  0.00    +0.159 HD
ATOM      9  H   UNL     1      -9.794   3.657 -17.850  0.00  0.00    +0.159 HD
ENDROOT
BRANCH   1  10
ATOM     10  C   UNL     1     -10.934   3.752 -21.561  0.00  0.00    +0.151 C 
BRANCH  10  11
ATOM     11  C   UNL     1     -11.599   2.964 -22.656  0.00  0.00    -0.028 A 
ATOM     12  C   UNL     1     -12.690   3.498 -23.356  0.00  0.00    +0.005 A 
ATOM     13  C   UNL     1     -11.138   1.684 -23.002  0.00  0.00    +0.005 A 
ATOM     14  C   UNL     1     -13.289   2.779 -24.394  0.00  0.00    +0.000 A 
ATOM     15  C   UNL     1     -11.738   0.969 -24.037  0.00  0.00    +0.000 A 
ATOM     16  C   UNL     1     -12.812   1.517 -24.735  0.00  0.00    +0.000 A 
ENDBRANCH  10  11
ENDBRANCH   1  10
TORSDOF 2
ENDMDL
