MODEL 1
REMARK VINA RESULT:    -6.199      0.000      0.000
REMARK INTER + INTRA:          -7.063
REMARK INTER:                  -6.924
REMARK INTRA:                  -0.140
REMARK UNBOUND:                -0.140
REMARK  Name = 1550473
REMARK  2 active torsions:
REMARK  status: ('A' for Active; 'I' for Inactive)
REMARK    1  A    between atoms: N_1  and  C_4
REMARK    2  A    between atoms: C_4  and  C_5
REMARK                            x       y       z     vdW  Elec       q    Type
REMARK                         _______ _______ _______ _____ _____    ______ ____
ROOT
ATOM      1  N   UNL     1       5.398   3.105  -4.654  0.00  0.00    -0.354 N 
ATOM      2  N   UNL     1       6.122   2.099  -6.610  0.00  0.00    -0.372 N 
ATOM      3  N   UNL     1       5.772   4.366  -6.593  0.00  0.00    -0.372 N 
ATOM      4  C   UNL     1       5.759   3.199  -5.940  0.00  0.00    +0.166 C 
ATOM      5  H   UNL     1       5.381   2.187  -4.225  0.00  0.00    +0.163 HD
ATOM      6  H   UNL     1       6.403   2.140  -7.581  0.00  0.00    +0.159 HD
ATOM      7  H   UNL     1       6.148   1.189  -6.166  0.00  0.00    +0.159 HD
ATOM      8  H   UNL     1       5.504   5.233  -6.146  0.00  0.00    +0.159 HD
ATOM      9  H   UNL     1       6.039   4.426  -7.568  0.00  0.00    +0.159 HD
ENDROOT
BRANCH   1  10
ATOM     10  C   UNL     1       5.038   4.250  -3.819  0.00  0.00    +0.151 C 
BRANCH  10  11
ATOM     11  C   UNL     1       3.766   3.937  -3.080  0.00  0.00    -0.028 A 
ATOM     12  C   UNL     1       3.662   4.190  -1.704  0.00  0.00    +0.005 A 
ATOM     13  C   UNL     1       2.660   3.393  -3.750  0.00  0.00    +0.005 A 
ATOM     14  C   UNL     1       2.471   3.927  -1.022  0.00  0.00    +0.000 A 
ATOM     15  C   UNL     1       1.473   3.132  -3.065  0.00  0.00    +0.000 A 
ATOM     16  C   UNL     1       1.378   3.402  -1.702  0.00  0.00    +0.000 A 
ENDBRANCH  10  11
ENDBRANCH   1  10
TORSDOF 2
ENDMDL
MODEL 2
REMARK VINA RESULT:    -6.124      1.663      2.469
REMARK INTER + INTRA:          -6.980
REMARK INTER:                  -6.887
REMARK INTRA:                  -0.094
REMARK UNBOUND:                -0.140
REMARK  Name = 1550473
REMARK  2 active torsions:
REMARK  status: ('A' for Active; 'I' for Inactive)
REMARK    1  A    between atoms: N_1  and  C_4
REMARK    2  A    between atoms: C_4  and  C_5
REMARK                            x       y       z     vdW  Elec       q    Type
REMARK                         _______ _______ _______ _____ _____    ______ ____
ROOT
ATOM      1  N   UNL     1       4.302   4.824  -5.345  0.00  0.00    -0.354 N 
ATOM      2  N   UNL     1       4.833   6.220  -7.115  0.00  0.00    -0.372 N 
ATOM      3  N   UNL     1       4.178   4.067  -7.559  0.00  0.00    -0.372 N 
ATOM      4  C   UNL     1       4.434   5.025  -6.663  0.00  0.00    +0.166 C 
ATOM      5  H   UNL     1       4.541   5.583  -4.716  0.00  0.00    +0.163 HD
ATOM      6  H   UNL     1       4.939   6.403  -8.104  0.00  0.00    +0.159 HD
ATOM      7  H   UNL     1       5.027   6.990  -6.486  0.00  0.00    +0.159 HD
ATOM      8  H   UNL     1       3.879   3.141  -7.282  0.00  0.00    +0.159 HD
ATOM      9  H   UNL     1       4.289   4.226  -8.553  0.00  0.00    +0.159 HD
ENDROOT
BRANCH   1  10
ATOM     10  C   UNL     1       3.822   3.577  -4.752  0.00  0.00    +0.151 C 
BRANCH  10  11
ATOM     11  C   UNL     1       3.729   3.746  -3.261  0.00  0.00    -0.028 A 
ATOM     12  C   UNL     1       2.479   3.813  -2.629  0.00  0.00    +0.005 A 
ATOM     13  C   UNL     1       4.887   3.834  -2.473  0.00  0.00    +0.005 A 
ATOM     14  C   UNL     1       2.392   3.940  -1.240  0.00  0.00    +0.000 A 
ATOM     15  C   UNL     1       4.796   3.962  -1.088  0.00  0.00    +0.000 A 
ATOM     16  C   UNL     1       3.548   4.012  -0.471  0.00  0.00    +0.000 A 
ENDBRANCH  10  11
ENDBRANCH   1  10
TORSDOF 2
ENDMDL
MODEL 3
REMARK VINA RESULT:    -5.027     23.949     25.308
REMARK INTER + INTRA:          -5.755
REMARK INTER:                  -5.594
REMARK INTRA:                  -0.160
REMARK UNBOUND:                -0.140
REMARK  Name = 1550473
REMARK  2 active torsions:
REMARK  status: ('A' for Active; 'I' for Inactive)
REMARK    1  A    between atoms: N_1  and  C_4
REMARK    2  A    between atoms: C_4  and  C_5
REMARK                            x       y       z     vdW  Elec       q    Type
REMARK                         _______ _______ _______ _____ _____    ______ ____
ROOT
ATOM      1  N   UNL     1     -10.911 -15.591   3.022  0.00  0.00    -0.354 N 
ATOM      2  N   UNL     1      -9.935 -14.623   1.158  0.00  0.00    -0.372 N 
ATOM      3  N   UNL     1      -8.644 -14.996   3.018  0.00  0.00    -0.372 N 
ATOM      4  C   UNL     1      -9.834 -15.076   2.414  0.00  0.00    +0.166 C 
ATOM      5  H   UNL     1     -11.791 -15.596   2.520  0.00  0.00    +0.163 HD
ATOM      6  H   UNL     1      -9.139 -14.233   0.672  0.00  0.00    +0.159 HD
ATOM      7  H   UNL     1     -10.805 -14.672   0.642  0.00  0.00    +0.159 HD
ATOM      8  H   UNL     1      -8.503 -15.315   3.967  0.00  0.00    +0.159 HD
ATOM      9  H   UNL     1      -7.839 -14.597   2.552  0.00  0.00    +0.159 HD
ENDROOT
BRANCH   1  10
ATOM     10  C   UNL     1     -10.895 -16.161   4.368  0.00  0.00    +0.151 C 
BRANCH  10  11
ATOM     11  C   UNL     1     -11.614 -15.229   5.304  0.00  0.00    -0.028 A 
ATOM     12  C   UNL     1     -11.069 -14.921   6.559  0.00  0.00    +0.005 A 
ATOM     13  C   UNL     1     -12.838 -14.648   4.940  0.00  0.00    +0.005 A 
ATOM     14  C   UNL     1     -11.722 -14.032   7.417  0.00  0.00    +0.000 A 
ATOM     15  C   UNL     1     -13.487 -13.761   5.800  0.00  0.00    +0.000 A 
ATOM     16  C   UNL     1     -12.927 -13.452   7.037  0.00  0.00    +0.000 A 
ENDBRANCH  10  11
ENDBRANCH   1  10
TORSDOF 2
ENDMDL
MODEL 4
REMARK VINA RESULT:    -4.936     12.688     13.863
REMARK INTER + INTRA:          -5.654
REMARK INTER:                  -5.559
REMARK INTRA:                  -0.095
REMARK UNBOUND:                -0.140
REMARK  Name = 1550473
REMARK  2 active torsions:
REMARK  status: ('A' for Active; 'I' for Inactive)
REMARK    1  A    between atoms: N_1  and  C_4
REMARK    2  A    between atoms: C_4  and  C_5
REMARK                            x       y       z     vdW  Elec       q    Type
REMARK                         _______ _______ _______ _____ _____    ______ ____
ROOT
ATOM      1  N   UNL     1      10.139  -6.762  -1.004  0.00  0.00    -0.354 N 
ATOM      2  N   UNL     1      10.864  -5.459   0.768  0.00  0.00    -0.372 N 
ATOM      3  N   UNL     1      10.132  -4.422  -1.144  0.00  0.00    -0.372 N 
ATOM      4  C   UNL     1      10.373  -5.554  -0.474  0.00  0.00    +0.166 C 
ATOM      5  H   UNL     1      10.371  -7.582  -0.456  0.00  0.00    +0.163 HD
ATOM      6  H   UNL     1      11.048  -4.562   1.196  0.00  0.00    +0.159 HD
ATOM      7  H   UNL     1      11.052  -6.280   1.331  0.00  0.00    +0.159 HD
ATOM      8  H   UNL     1       9.767  -4.426  -2.087  0.00  0.00    +0.159 HD
ATOM      9  H   UNL     1      10.320  -3.515  -0.736  0.00  0.00    +0.159 HD
ENDROOT
BRANCH   1  10
ATOM     10  C   UNL     1       9.555  -6.974  -2.328  0.00  0.00    +0.151 C 
BRANCH  10  11
ATOM     11  C   UNL     1       9.911  -8.354  -2.806  0.00  0.00    -0.028 A 
ATOM     12  C   UNL     1       9.240  -9.478  -2.303  0.00  0.00    +0.005 A 
ATOM     13  C   UNL     1      10.916  -8.545  -3.767  0.00  0.00    +0.005 A 
ATOM     14  C   UNL     1       9.550 -10.758  -2.769  0.00  0.00    +0.000 A 
ATOM     15  C   UNL     1      11.223  -9.824  -4.230  0.00  0.00    +0.000 A 
ATOM     16  C   UNL     1      10.538 -10.930  -3.732  0.00  0.00    +0.000 A 
ENDBRANCH  10  11
ENDBRANCH   1  10
TORSDOF 2
ENDMDL
MODEL 5
REMARK VINA RESULT:    -4.914     10.171     11.668
REMARK INTER + INTRA:          -5.629
REMARK INTER:                  -5.534
REMARK INTRA:                  -0.095
REMARK UNBOUND:                -0.140
REMARK  Name = 1550473
REMARK  2 active torsions:
REMARK  status: ('A' for Active; 'I' for Inactive)
REMARK    1  A    between atoms: N_1  and  C_4
REMARK    2  A    between atoms: C_4  and  C_5
REMARK                            x       y       z     vdW  Elec       q    Type
REMARK                         _______ _______ _______ _____ _____    ______ ____
ROOT
ATOM      1  N   UNL     1      15.281   8.072  -3.325  0.00  0.00    -0.354 N 
ATOM      2  N   UNL     1      17.089   8.505  -1.943  0.00  0.00    -0.372 N 
ATOM      3  N   UNL     1      17.376   7.104  -3.737  0.00  0.00    -0.372 N 
ATOM      4  C   UNL     1      16.571   7.889  -3.013  0.00  0.00    +0.166 C 
ATOM      5  H   UNL     1      14.717   8.655  -2.718  0.00  0.00    +0.163 HD
ATOM      6  H   UNL     1      18.059   8.389  -1.685  0.00  0.00    +0.159 HD
ATOM      7  H   UNL     1      16.534   9.124  -1.365  0.00  0.00    +0.159 HD
ATOM      8  H   UNL     1      17.045   6.605  -4.553  0.00  0.00    +0.159 HD
ATOM      9  H   UNL     1      18.347   6.965  -3.488  0.00  0.00    +0.159 HD
ENDROOT
BRANCH   1  10
ATOM     10  C   UNL     1      14.634   7.489  -4.500  0.00  0.00    +0.151 C 
BRANCH  10  11
ATOM     11  C   UNL     1      13.389   8.272  -4.813  0.00  0.00    -0.028 A 
ATOM     12  C   UNL     1      12.234   8.115  -4.033  0.00  0.00    +0.005 A 
ATOM     13  C   UNL     1      13.360   9.176  -5.886  0.00  0.00    +0.005 A 
ATOM     14  C   UNL     1      11.087   8.864  -4.305  0.00  0.00    +0.000 A 
ATOM     15  C   UNL     1      12.212   9.922  -6.155  0.00  0.00    +0.000 A 
ATOM     16  C   UNL     1      11.077   9.767  -5.363  0.00  0.00    +0.000 A 
ENDBRANCH  10  11
ENDBRANCH   1  10
TORSDOF 2
ENDMDL
MODEL 6
REMARK VINA RESULT:    -4.908     13.309     14.104
REMARK INTER + INTRA:          -5.622
REMARK INTER:                  -5.502
REMARK INTRA:                  -0.121
REMARK UNBOUND:                -0.140
REMARK  Name = 1550473
REMARK  2 active torsions:
REMARK  status: ('A' for Active; 'I' for Inactive)
REMARK    1  A    between atoms: N_1  and  C_4
REMARK    2  A    between atoms: C_4  and  C_5
REMARK                            x       y       z     vdW  Elec       q    Type
REMARK                         _______ _______ _______ _____ _____    ______ ____
ROOT
ATOM      1  N   UNL     1      10.308  -6.330   3.433  0.00  0.00    -0.354 N 
ATOM      2  N   UNL     1      10.420  -5.075   5.376  0.00  0.00    -0.372 N 
ATOM      3  N   UNL     1      11.042  -7.282   5.445  0.00  0.00    -0.372 N 
ATOM      4  C   UNL     1      10.590  -6.240   4.740  0.00  0.00    +0.166 C 
ATOM      5  H   UNL     1       9.939  -5.512   2.963  0.00  0.00    +0.163 HD
ATOM      6  H   UNL     1      10.628  -4.975   6.361  0.00  0.00    +0.159 HD
ATOM      7  H   UNL     1      10.095  -4.246   4.893  0.00  0.00    +0.159 HD
ATOM      8  H   UNL     1      11.186  -8.191   5.025  0.00  0.00    +0.159 HD
ATOM      9  H   UNL     1      11.245  -7.205   6.434  0.00  0.00    +0.159 HD
ENDROOT
BRANCH   1  10
ATOM     10  C   UNL     1      10.509  -7.539   2.635  0.00  0.00    +0.151 C 
BRANCH  10  11
ATOM     11  C   UNL     1      10.189  -7.236   1.197  0.00  0.00    -0.028 A 
ATOM     12  C   UNL     1      10.198  -5.914   0.729  0.00  0.00    +0.005 A 
ATOM     13  C   UNL     1       9.883  -8.268   0.296  0.00  0.00    +0.005 A 
ATOM     14  C   UNL     1       9.931  -5.635  -0.614  0.00  0.00    +0.000 A 
ATOM     15  C   UNL     1       9.616  -7.985  -1.043  0.00  0.00    +0.000 A 
ATOM     16  C   UNL     1       9.642  -6.669  -1.498  0.00  0.00    +0.000 A 
ENDBRANCH  10  11
ENDBRANCH   1  10
TORSDOF 2
ENDMDL
MODEL 7
REMARK VINA RESULT:    -4.789     13.269     14.130
REMARK INTER + INTRA:          -5.489
REMARK INTER:                  -5.438
REMARK INTRA:                  -0.051
REMARK UNBOUND:                -0.140
REMARK  Name = 1550473
REMARK  2 active torsions:
REMARK  status: ('A' for Active; 'I' for Inactive)
REMARK    1  A    between atoms: N_1  and  C_4
REMARK    2  A    between atoms: C_4  and  C_5
REMARK                            x       y       z     vdW  Elec       q    Type
REMARK                         _______ _______ _______ _____ _____    ______ ____
ROOT
ATOM      1  N   UNL     1      10.894  -6.676  -0.546  0.00  0.00    -0.354 N 
ATOM      2  N   UNL     1      10.174  -4.527  -1.022  0.00  0.00    -0.372 N 
ATOM      3  N   UNL     1       8.951  -5.809   0.437  0.00  0.00    -0.372 N 
ATOM      4  C   UNL     1      10.009  -5.685  -0.372  0.00  0.00    +0.166 C 
ATOM      5  H   UNL     1      11.657  -6.531  -1.197  0.00  0.00    +0.163 HD
ATOM      6  H   UNL     1       9.524  -3.760  -0.907  0.00  0.00    +0.159 HD
ATOM      7  H   UNL     1      10.963  -4.368  -1.636  0.00  0.00    +0.159 HD
ATOM      8  H   UNL     1       8.767  -6.660   0.951  0.00  0.00    +0.159 HD
ATOM      9  H   UNL     1       8.284  -5.057   0.555  0.00  0.00    +0.159 HD
ENDROOT
BRANCH   1  10
ATOM     10  C   UNL     1      10.835  -7.958   0.155  0.00  0.00    +0.151 C 
BRANCH  10  11
ATOM     11  C   UNL     1      10.387  -9.023  -0.807  0.00  0.00    -0.028 A 
ATOM     12  C   UNL     1      10.883 -10.331  -0.703  0.00  0.00    +0.005 A 
ATOM     13  C   UNL     1       9.461  -8.733  -1.821  0.00  0.00    +0.005 A 
ATOM     14  C   UNL     1      10.444 -11.328  -1.577  0.00  0.00    +0.000 A 
ATOM     15  C   UNL     1       9.026  -9.732  -2.693  0.00  0.00    +0.000 A 
ATOM     16  C   UNL     1       9.516 -11.030  -2.569  0.00  0.00    +0.000 A 
ENDBRANCH  10  11
ENDBRANCH   1  10
TORSDOF 2
ENDMDL
MODEL 8
REMARK VINA RESULT:    -4.741     31.123     32.516
REMARK INTER + INTRA:          -5.435
REMARK INTER:                  -5.339
REMARK INTRA:                  -0.097
REMARK UNBOUND:                -0.140
REMARK  Name = 1550473
REMARK  2 active torsions:
REMARK  status: ('A' for Active; 'I' for Inactive)
REMARK    1  A    between atoms: N_1  and  C_4
REMARK    2  A    between atoms: C_4  and  C_5
REMARK                            x       y       z     vdW  Elec       q    Type
REMARK                         _______ _______ _______ _____ _____    ______ ____
ROOT
ATOM      1  N   UNL     1      17.318  11.152  25.688  0.00  0.00    -0.354 N 
ATOM      2  N   UNL     1      16.912   9.554  27.315  0.00  0.00    -0.372 N 
ATOM      3  N   UNL     1      17.636  11.634  27.959  0.00  0.00    -0.372 N 
ATOM      4  C   UNL     1      17.293  10.793  26.978  0.00  0.00    +0.166 C 
ATOM      5  H   UNL     1      17.076  10.458  24.990  0.00  0.00    +0.163 HD
ATOM      6  H   UNL     1      16.880   9.255  28.280  0.00  0.00    +0.159 HD
ATOM      7  H   UNL     1      16.626   8.877  26.618  0.00  0.00    +0.159 HD
ATOM      8  H   UNL     1      17.938  12.581  27.772  0.00  0.00    +0.159 HD
ATOM      9  H   UNL     1      17.621  11.350  28.931  0.00  0.00    +0.159 HD
ENDROOT
BRANCH   1  10
ATOM     10  C   UNL     1      17.666  12.493  25.220  0.00  0.00    +0.151 C 
BRANCH  10  11
ATOM     11  C   UNL     1      17.005  12.735  23.890  0.00  0.00    -0.028 A 
ATOM     12  C   UNL     1      15.930  13.628  23.782  0.00  0.00    +0.005 A 
ATOM     13  C   UNL     1      17.454  12.078  22.734  0.00  0.00    +0.005 A 
ATOM     14  C   UNL     1      15.335  13.876  22.542  0.00  0.00    +0.000 A 
ATOM     15  C   UNL     1      16.858  12.328  21.499  0.00  0.00    +0.000 A 
ATOM     16  C   UNL     1      15.800  13.229  21.403  0.00  0.00    +0.000 A 
ENDBRANCH  10  11
ENDBRANCH   1  10
TORSDOF 2
ENDMDL
MODEL 9
REMARK VINA RESULT:    -4.686     12.831     13.659
REMARK INTER + INTRA:          -5.374
REMARK INTER:                  -5.243
REMARK INTRA:                  -0.131
REMARK UNBOUND:                -0.140
REMARK  Name = 1550473
REMARK  2 active torsions:
REMARK  status: ('A' for Active; 'I' for Inactive)
REMARK    1  A    between atoms: N_1  and  C_4
REMARK    2  A    between atoms: C_4  and  C_5
REMARK                            x       y       z     vdW  Elec       q    Type
REMARK                         _______ _______ _______ _____ _____    ______ ____
ROOT
ATOM      1  N   UNL     1      10.371  -5.920   1.730  0.00  0.00    -0.354 N 
ATOM      2  N   UNL     1      10.749  -5.648   3.999  0.00  0.00    -0.372 N 
ATOM      3  N   UNL     1      12.187  -4.660   2.509  0.00  0.00    -0.372 N 
ATOM      4  C   UNL     1      11.102  -5.410   2.730  0.00  0.00    +0.166 C 
ATOM      5  H   UNL     1       9.578  -6.506   1.964  0.00  0.00    +0.163 HD
ATOM      6  H   UNL     1      11.279  -5.274   4.774  0.00  0.00    +0.159 HD
ATOM      7  H   UNL     1       9.929  -6.196   4.230  0.00  0.00    +0.159 HD
ATOM      8  H   UNL     1      12.510  -4.448   1.574  0.00  0.00    +0.159 HD
ATOM      9  H   UNL     1      12.737  -4.286   3.272  0.00  0.00    +0.159 HD
ENDROOT
BRANCH   1  10
ATOM     10  C   UNL     1      10.639  -5.676   0.314  0.00  0.00    +0.151 C 
BRANCH  10  11
ATOM     11  C   UNL     1      10.309  -6.916  -0.470  0.00  0.00    -0.028 A 
ATOM     12  C   UNL     1      10.550  -8.187   0.073  0.00  0.00    +0.005 A 
ATOM     13  C   UNL     1       9.749  -6.828  -1.753  0.00  0.00    +0.005 A 
ATOM     14  C   UNL     1      10.216  -9.339  -0.642  0.00  0.00    +0.000 A 
ATOM     15  C   UNL     1       9.417  -7.981  -2.465  0.00  0.00    +0.000 A 
ATOM     16  C   UNL     1       9.648  -9.236  -1.908  0.00  0.00    +0.000 A 
ENDBRANCH  10  11
ENDBRANCH   1  10
TORSDOF 2
ENDMDL
