MODEL 1
REMARK VINA RESULT:    -5.338      0.000      0.000
REMARK INTER + INTRA:          -6.069
REMARK INTER:                  -5.963
REMARK INTRA:                  -0.106
REMARK UNBOUND:                -0.106
REMARK  Name = 1550473
REMARK  2 active torsions:
REMARK  status: ('A' for Active; 'I' for Inactive)
REMARK    1  A    between atoms: N_1  and  C_4
REMARK    2  A    between atoms: C_4  and  C_5
REMARK                            x       y       z     vdW  Elec       q    Type
REMARK                         _______ _______ _______ _____ _____    ______ ____
ROOT
ATOM      1  N   UNL     1       4.997 -15.290  -5.878  0.00  0.00    -0.354 N 
ATOM      2  N   UNL     1       3.220 -14.207  -4.860  0.00  0.00    -0.372 N 
ATOM      3  N   UNL     1       3.522 -13.960  -7.121  0.00  0.00    -0.372 N 
ATOM      4  C   UNL     1       3.925 -14.492  -5.963  0.00  0.00    +0.166 C 
ATOM      5  H   UNL     1       5.268 -15.638  -4.965  0.00  0.00    +0.163 HD
ATOM      6  H   UNL     1       2.405 -13.611  -4.894  0.00  0.00    +0.159 HD
ATOM      7  H   UNL     1       3.466 -14.593  -3.957  0.00  0.00    +0.159 HD
ATOM      8  H   UNL     1       4.014 -14.131  -7.988  0.00  0.00    +0.159 HD
ATOM      9  H   UNL     1       2.715 -13.351  -7.173  0.00  0.00    +0.159 HD
ENDROOT
BRANCH   1  10
ATOM     10  C   UNL     1       5.800 -15.705  -7.026  0.00  0.00    +0.151 C 
BRANCH  10  11
ATOM     11  C   UNL     1       7.185 -15.136  -6.889  0.00  0.00    -0.028 A 
ATOM     12  C   UNL     1       7.439 -14.090  -5.989  0.00  0.00    +0.005 A 
ATOM     13  C   UNL     1       8.250 -15.642  -7.651  0.00  0.00    +0.005 A 
ATOM     14  C   UNL     1       8.731 -13.581  -5.839  0.00  0.00    +0.000 A 
ATOM     15  C   UNL     1       9.538 -15.130  -7.499  0.00  0.00    +0.000 A 
ATOM     16  C   UNL     1       9.779 -14.102  -6.591  0.00  0.00    +0.000 A 
ENDBRANCH  10  11
ENDBRANCH   1  10
TORSDOF 2
ENDMDL
MODEL 2
REMARK VINA RESULT:    -5.128      1.069      1.878
REMARK INTER + INTRA:          -5.833
REMARK INTER:                  -5.698
REMARK INTRA:                  -0.136
REMARK UNBOUND:                -0.106
REMARK  Name = 1550473
REMARK  2 active torsions:
REMARK  status: ('A' for Active; 'I' for Inactive)
REMARK    1  A    between atoms: N_1  and  C_4
REMARK    2  A    between atoms: C_4  and  C_5
REMARK                            x       y       z     vdW  Elec       q    Type
REMARK                         _______ _______ _______ _____ _____    ______ ____
ROOT
ATOM      1  N   UNL     1       5.792 -13.870  -6.750  0.00  0.00    -0.354 N 
ATOM      2  N   UNL     1       3.529 -13.998  -7.227  0.00  0.00    -0.372 N 
ATOM      3  N   UNL     1       4.283 -14.784  -5.207  0.00  0.00    -0.372 N 
ATOM      4  C   UNL     1       4.549 -14.218  -6.389  0.00  0.00    +0.166 C 
ATOM      5  H   UNL     1       5.932 -13.473  -7.672  0.00  0.00    +0.163 HD
ATOM      6  H   UNL     1       2.580 -14.247  -6.981  0.00  0.00    +0.159 HD
ATOM      7  H   UNL     1       3.665 -13.559  -8.129  0.00  0.00    +0.159 HD
ATOM      8  H   UNL     1       5.010 -14.981  -4.532  0.00  0.00    +0.159 HD
ATOM      9  H   UNL     1       3.342 -15.050  -4.947  0.00  0.00    +0.159 HD
ENDROOT
BRANCH   1  10
ATOM     10  C   UNL     1       6.965 -14.017  -5.890  0.00  0.00    +0.151 C 
BRANCH  10  11
ATOM     11  C   UNL     1       8.136 -14.452  -6.727  0.00  0.00    -0.028 A 
ATOM     12  C   UNL     1       9.447 -14.296  -6.253  0.00  0.00    +0.005 A 
ATOM     13  C   UNL     1       7.942 -15.026  -7.992  0.00  0.00    +0.005 A 
ATOM     14  C   UNL     1      10.534 -14.727  -7.017  0.00  0.00    +0.000 A 
ATOM     15  C   UNL     1       9.030 -15.455  -8.753  0.00  0.00    +0.000 A 
ATOM     16  C   UNL     1      10.325 -15.308  -8.263  0.00  0.00    +0.000 A 
ENDBRANCH  10  11
ENDBRANCH   1  10
TORSDOF 2
ENDMDL
MODEL 3
REMARK VINA RESULT:    -5.000      3.297      4.723
REMARK INTER + INTRA:          -5.691
REMARK INTER:                  -5.581
REMARK INTRA:                  -0.110
REMARK UNBOUND:                -0.106
REMARK  Name = 1550473
REMARK  2 active torsions:
REMARK  status: ('A' for Active; 'I' for Inactive)
REMARK    1  A    between atoms: N_1  and  C_4
REMARK    2  A    between atoms: C_4  and  C_5
REMARK                            x       y       z     vdW  Elec       q    Type
REMARK                         _______ _______ _______ _____ _____    ______ ____
ROOT
ATOM      1  N   UNL     1       8.906 -14.407  -3.835  0.00  0.00    -0.354 N 
ATOM      2  N   UNL     1       9.531 -14.070  -1.631  0.00  0.00    -0.372 N 
ATOM      3  N   UNL     1      10.664 -12.958  -3.287  0.00  0.00    -0.372 N 
ATOM      4  C   UNL     1       9.698 -13.812  -2.933  0.00  0.00    +0.166 C 
ATOM      5  H   UNL     1       8.212 -15.067  -3.504  0.00  0.00    +0.163 HD
ATOM      6  H   UNL     1      10.112 -13.633  -0.927  0.00  0.00    +0.159 HD
ATOM      7  H   UNL     1       8.807 -14.695  -1.300  0.00  0.00    +0.159 HD
ATOM      8  H   UNL     1      10.846 -12.726  -4.255  0.00  0.00    +0.159 HD
ATOM      9  H   UNL     1      11.263 -12.520  -2.599  0.00  0.00    +0.159 HD
ENDROOT
BRANCH   1  10
ATOM     10  C   UNL     1       8.970 -14.153  -5.273  0.00  0.00    +0.151 C 
BRANCH  10  11
ATOM     11  C   UNL     1       7.644 -14.502  -5.893  0.00  0.00    -0.028 A 
ATOM     12  C   UNL     1       6.474 -13.842  -5.489  0.00  0.00    +0.005 A 
ATOM     13  C   UNL     1       7.553 -15.486  -6.888  0.00  0.00    +0.005 A 
ATOM     14  C   UNL     1       5.248 -14.143  -6.085  0.00  0.00    +0.000 A 
ATOM     15  C   UNL     1       6.326 -15.785  -7.481  0.00  0.00    +0.000 A 
ATOM     16  C   UNL     1       5.174 -15.112  -7.081  0.00  0.00    +0.000 A 
ENDBRANCH  10  11
ENDBRANCH   1  10
TORSDOF 2
ENDMDL
MODEL 4
REMARK VINA RESULT:    -4.958     12.391     14.030
REMARK INTER + INTRA:          -5.643
REMARK INTER:                  -5.524
REMARK INTRA:                  -0.120
REMARK UNBOUND:                -0.106
REMARK  Name = 1550473
REMARK  2 active torsions:
REMARK  status: ('A' for Active; 'I' for Inactive)
REMARK    1  A    between atoms: N_1  and  C_4
REMARK    2  A    between atoms: C_4  and  C_5
REMARK                            x       y       z     vdW  Elec       q    Type
REMARK                         _______ _______ _______ _____ _____    ______ ____
ROOT
ATOM      1  N   UNL     1      -5.693 -16.572  -6.507  0.00  0.00    -0.354 N 
ATOM      2  N   UNL     1      -4.261 -18.336  -6.956  0.00  0.00    -0.372 N 
ATOM      3  N   UNL     1      -5.984 -17.909  -8.410  0.00  0.00    -0.372 N 
ATOM      4  C   UNL     1      -5.324 -17.595  -7.290  0.00  0.00    +0.166 C 
ATOM      5  H   UNL     1      -5.170 -16.404  -5.656  0.00  0.00    +0.163 HD
ATOM      6  H   UNL     1      -3.956 -19.112  -7.529  0.00  0.00    +0.159 HD
ATOM      7  H   UNL     1      -3.712 -18.137  -6.129  0.00  0.00    +0.159 HD
ATOM      8  H   UNL     1      -6.798 -17.393  -8.715  0.00  0.00    +0.159 HD
ATOM      9  H   UNL     1      -5.702 -18.689  -8.990  0.00  0.00    +0.159 HD
ENDROOT
BRANCH   1  10
ATOM     10  C   UNL     1      -6.803 -15.670  -6.810  0.00  0.00    +0.151 C 
BRANCH  10  11
ATOM     11  C   UNL     1      -7.207 -14.950  -5.553  0.00  0.00    -0.028 A 
ATOM     12  C   UNL     1      -8.504 -14.433  -5.414  0.00  0.00    +0.005 A 
ATOM     13  C   UNL     1      -6.300 -14.785  -4.496  0.00  0.00    +0.005 A 
ATOM     14  C   UNL     1      -8.888 -13.790  -4.235  0.00  0.00    +0.000 A 
ATOM     15  C   UNL     1      -6.687 -14.142  -3.320  0.00  0.00    +0.000 A 
ATOM     16  C   UNL     1      -7.982 -13.646  -3.190  0.00  0.00    +0.000 A 
ENDBRANCH  10  11
ENDBRANCH   1  10
TORSDOF 2
ENDMDL
MODEL 5
REMARK VINA RESULT:    -4.828      3.278      4.385
REMARK INTER + INTRA:          -5.499
REMARK INTER:                  -5.356
REMARK INTRA:                  -0.144
REMARK UNBOUND:                -0.106
REMARK  Name = 1550473
REMARK  2 active torsions:
REMARK  status: ('A' for Active; 'I' for Inactive)
REMARK    1  A    between atoms: N_1  and  C_4
REMARK    2  A    between atoms: C_4  and  C_5
REMARK                            x       y       z     vdW  Elec       q    Type
REMARK                         _______ _______ _______ _____ _____    ______ ____
ROOT
ATOM      1  N   UNL     1       7.660 -15.270  -9.988  0.00  0.00    -0.354 N 
ATOM      2  N   UNL     1       8.332 -13.909 -11.737  0.00  0.00    -0.372 N 
ATOM      3  N   UNL     1       6.089 -14.249 -11.395  0.00  0.00    -0.372 N 
ATOM      4  C   UNL     1       7.353 -14.485 -11.029  0.00  0.00    +0.166 C 
ATOM      5  H   UNL     1       8.639 -15.434  -9.780  0.00  0.00    +0.163 HD
ATOM      6  H   UNL     1       8.131 -13.308 -12.525  0.00  0.00    +0.159 HD
ATOM      7  H   UNL     1       9.308 -14.037 -11.499  0.00  0.00    +0.159 HD
ATOM      8  H   UNL     1       5.305 -14.658 -10.905  0.00  0.00    +0.159 HD
ATOM      9  H   UNL     1       5.868 -13.660 -12.188  0.00  0.00    +0.159 HD
ENDROOT
BRANCH   1  10
ATOM     10  C   UNL     1       6.668 -15.901  -9.119  0.00  0.00    +0.151 C 
BRANCH  10  11
ATOM     11  C   UNL     1       6.593 -15.139  -7.825  0.00  0.00    -0.028 A 
ATOM     12  C   UNL     1       7.671 -14.350  -7.399  0.00  0.00    +0.005 A 
ATOM     13  C   UNL     1       5.443 -15.198  -7.022  0.00  0.00    +0.005 A 
ATOM     14  C   UNL     1       7.590 -13.618  -6.212  0.00  0.00    +0.000 A 
ATOM     15  C   UNL     1       5.366 -14.466  -5.837  0.00  0.00    +0.000 A 
ATOM     16  C   UNL     1       6.438 -13.675  -5.434  0.00  0.00    +0.000 A 
ENDBRANCH  10  11
ENDBRANCH   1  10
TORSDOF 2
ENDMDL
MODEL 6
REMARK VINA RESULT:    -4.790     23.327     24.403
REMARK INTER + INTRA:          -5.456
REMARK INTER:                  -5.313
REMARK INTRA:                  -0.143
REMARK UNBOUND:                -0.106
REMARK  Name = 1550473
REMARK  2 active torsions:
REMARK  status: ('A' for Active; 'I' for Inactive)
REMARK    1  A    between atoms: N_1  and  C_4
REMARK    2  A    between atoms: C_4  and  C_5
REMARK                            x       y       z     vdW  Elec       q    Type
REMARK                         _______ _______ _______ _____ _____    ______ ____
ROOT
ATOM      1  N   UNL     1      -9.937  -3.822   7.836  0.00  0.00    -0.354 N 
ATOM      2  N   UNL     1      -9.318  -5.799   6.799  0.00  0.00    -0.372 N 
ATOM      3  N   UNL     1     -10.399  -4.192   5.568  0.00  0.00    -0.372 N 
ATOM      4  C   UNL     1      -9.890  -4.590   6.739  0.00  0.00    +0.166 C 
ATOM      5  H   UNL     1      -9.561  -4.195   8.700  0.00  0.00    +0.163 HD
ATOM      6  H   UNL     1      -9.265  -6.399   5.987  0.00  0.00    +0.159 HD
ATOM      7  H   UNL     1      -8.902  -6.149   7.653  0.00  0.00    +0.159 HD
ATOM      8  H   UNL     1     -10.849  -3.293   5.458  0.00  0.00    +0.159 HD
ATOM      9  H   UNL     1     -10.365  -4.783   4.747  0.00  0.00    +0.159 HD
ENDROOT
BRANCH   1  10
ATOM     10  C   UNL     1     -10.490  -2.469   7.864  0.00  0.00    +0.151 C 
BRANCH  10  11
ATOM     11  C   UNL     1      -9.397  -1.486   7.545  0.00  0.00    -0.028 A 
ATOM     12  C   UNL     1      -9.647  -0.393   6.703  0.00  0.00    +0.005 A 
ATOM     13  C   UNL     1      -8.112  -1.639   8.087  0.00  0.00    +0.005 A 
ATOM     14  C   UNL     1      -8.641   0.537   6.430  0.00  0.00    +0.000 A 
ATOM     15  C   UNL     1      -7.110  -0.709   7.812  0.00  0.00    +0.000 A 
ATOM     16  C   UNL     1      -7.375   0.381   6.986  0.00  0.00    +0.000 A 
ENDBRANCH  10  11
ENDBRANCH   1  10
TORSDOF 2
ENDMDL
MODEL 7
REMARK VINA RESULT:    -4.715      1.726      2.685
REMARK INTER + INTRA:          -5.373
REMARK INTER:                  -5.248
REMARK INTRA:                  -0.125
REMARK UNBOUND:                -0.106
REMARK  Name = 1550473
REMARK  2 active torsions:
REMARK  status: ('A' for Active; 'I' for Inactive)
REMARK    1  A    between atoms: N_1  and  C_4
REMARK    2  A    between atoms: C_4  and  C_5
REMARK                            x       y       z     vdW  Elec       q    Type
REMARK                         _______ _______ _______ _____ _____    ______ ____
ROOT
ATOM      1  N   UNL     1       5.753 -14.596  -7.477  0.00  0.00    -0.354 N 
ATOM      2  N   UNL     1       3.539 -13.987  -7.173  0.00  0.00    -0.372 N 
ATOM      3  N   UNL     1       4.535 -15.356  -5.624  0.00  0.00    -0.372 N 
ATOM      4  C   UNL     1       4.624 -14.652  -6.758  0.00  0.00    +0.166 C 
ATOM      5  H   UNL     1       5.747 -14.069  -8.343  0.00  0.00    +0.163 HD
ATOM      6  H   UNL     1       2.674 -14.008  -6.650  0.00  0.00    +0.159 HD
ATOM      7  H   UNL     1       3.549 -13.424  -8.015  0.00  0.00    +0.159 HD
ATOM      8  H   UNL     1       5.316 -15.884  -5.260  0.00  0.00    +0.159 HD
ATOM      9  H   UNL     1       3.674 -15.398  -5.093  0.00  0.00    +0.159 HD
ENDROOT
BRANCH   1  10
ATOM     10  C   UNL     1       7.005 -15.240  -7.083  0.00  0.00    +0.151 C 
BRANCH  10  11
ATOM     11  C   UNL     1       7.937 -15.264  -8.264  0.00  0.00    -0.028 A 
ATOM     12  C   UNL     1       7.463 -14.967  -9.550  0.00  0.00    +0.005 A 
ATOM     13  C   UNL     1       9.295 -15.578  -8.102  0.00  0.00    +0.005 A 
ATOM     14  C   UNL     1       8.334 -14.960 -10.643  0.00  0.00    +0.000 A 
ATOM     15  C   UNL     1      10.161 -15.571  -9.195  0.00  0.00    +0.000 A 
ATOM     16  C   UNL     1       9.681 -15.259 -10.465  0.00  0.00    +0.000 A 
ENDBRANCH  10  11
ENDBRANCH   1  10
TORSDOF 2
ENDMDL
MODEL 8
REMARK VINA RESULT:    -4.659     12.829     13.426
REMARK INTER + INTRA:          -5.310
REMARK INTER:                  -5.170
REMARK INTRA:                  -0.140
REMARK UNBOUND:                -0.106
REMARK  Name = 1550473
REMARK  2 active torsions:
REMARK  status: ('A' for Active; 'I' for Inactive)
REMARK    1  A    between atoms: N_1  and  C_4
REMARK    2  A    between atoms: C_4  and  C_5
REMARK                            x       y       z     vdW  Elec       q    Type
REMARK                         _______ _______ _______ _____ _____    ______ ____
ROOT
ATOM      1  N   UNL     1      -5.472 -18.740  -7.579  0.00  0.00    -0.354 N 
ATOM      2  N   UNL     1      -5.659 -20.950  -8.246  0.00  0.00    -0.372 N 
ATOM      3  N   UNL     1      -7.156 -19.414  -9.063  0.00  0.00    -0.372 N 
ATOM      4  C   UNL     1      -6.097 -19.686  -8.293  0.00  0.00    +0.166 C 
ATOM      5  H   UNL     1      -4.694 -19.016  -6.991  0.00  0.00    +0.163 HD
ATOM      6  H   UNL     1      -6.108 -21.685  -8.776  0.00  0.00    +0.159 HD
ATOM      7  H   UNL     1      -4.853 -21.214  -7.693  0.00  0.00    +0.159 HD
ATOM      8  H   UNL     1      -7.539 -18.482  -9.138  0.00  0.00    +0.159 HD
ATOM      9  H   UNL     1      -7.626 -20.138  -9.592  0.00  0.00    +0.159 HD
ENDROOT
BRANCH   1  10
ATOM     10  C   UNL     1      -5.836 -17.324  -7.602  0.00  0.00    +0.151 C 
BRANCH  10  11
ATOM     11  C   UNL     1      -5.872 -16.803  -6.192  0.00  0.00    -0.028 A 
ATOM     12  C   UNL     1      -5.449 -17.608  -5.125  0.00  0.00    +0.005 A 
ATOM     13  C   UNL     1      -6.324 -15.503  -5.918  0.00  0.00    +0.005 A 
ATOM     14  C   UNL     1      -5.454 -17.114  -3.818  0.00  0.00    +0.000 A 
ATOM     15  C   UNL     1      -6.329 -15.014  -4.611  0.00  0.00    +0.000 A 
ATOM     16  C   UNL     1      -5.892 -15.819  -3.562  0.00  0.00    +0.000 A 
ENDBRANCH  10  11
ENDBRANCH   1  10
TORSDOF 2
ENDMDL
MODEL 9
REMARK VINA RESULT:    -4.610      1.792      2.912
REMARK INTER + INTRA:          -5.255
REMARK INTER:                  -5.075
REMARK INTRA:                  -0.179
REMARK UNBOUND:                -0.106
REMARK  Name = 1550473
REMARK  2 active torsions:
REMARK  status: ('A' for Active; 'I' for Inactive)
REMARK    1  A    between atoms: N_1  and  C_4
REMARK    2  A    between atoms: C_4  and  C_5
REMARK                            x       y       z     vdW  Elec       q    Type
REMARK                         _______ _______ _______ _____ _____    ______ ____
ROOT
ATOM      1  N   UNL     1       6.965 -13.714  -7.088  0.00  0.00    -0.354 N 
ATOM      2  N   UNL     1       4.898 -14.749  -7.227  0.00  0.00    -0.372 N 
ATOM      3  N   UNL     1       5.582 -13.907  -5.205  0.00  0.00    -0.372 N 
ATOM      4  C   UNL     1       5.828 -14.116  -6.503  0.00  0.00    +0.166 C 
ATOM      5  H   UNL     1       7.104 -13.929  -8.068  0.00  0.00    +0.163 HD
ATOM      6  H   UNL     1       4.029 -15.061  -6.814  0.00  0.00    +0.159 HD
ATOM      7  H   UNL     1       5.020 -14.923  -8.217  0.00  0.00    +0.159 HD
ATOM      8  H   UNL     1       6.247 -13.440  -4.602  0.00  0.00    +0.159 HD
ATOM      9  H   UNL     1       4.724 -14.222  -4.771  0.00  0.00    +0.159 HD
ENDROOT
BRANCH   1  10
ATOM     10  C   UNL     1       8.018 -12.969  -6.401  0.00  0.00    +0.151 C 
BRANCH  10  11
ATOM     11  C   UNL     1       9.104 -13.923  -5.986  0.00  0.00    -0.028 A 
ATOM     12  C   UNL     1       9.873 -14.589  -6.951  0.00  0.00    +0.005 A 
ATOM     13  C   UNL     1       9.372 -14.161  -4.629  0.00  0.00    +0.005 A 
ATOM     14  C   UNL     1      10.902 -15.453  -6.566  0.00  0.00    +0.000 A 
ATOM     15  C   UNL     1      10.399 -15.024  -4.249  0.00  0.00    +0.000 A 
ATOM     16  C   UNL     1      11.165 -15.668  -5.217  0.00  0.00    +0.000 A 
ENDBRANCH  10  11
ENDBRANCH   1  10
TORSDOF 2
ENDMDL
