MODEL 1
REMARK VINA RESULT:    -5.584      0.000      0.000
REMARK INTER + INTRA:          -6.378
REMARK INTER:                  -6.236
REMARK INTRA:                  -0.142
REMARK UNBOUND:                -0.142
REMARK  Name = 1550473
REMARK  2 active torsions:
REMARK  status: ('A' for Active; 'I' for Inactive)
REMARK    1  A    between atoms: N_1  and  C_4
REMARK    2  A    between atoms: C_4  and  C_5
REMARK                            x       y       z     vdW  Elec       q    Type
REMARK                         _______ _______ _______ _____ _____    ______ ____
ROOT
ATOM      1  N   UNL     1      -3.388   2.547   3.389  0.00  0.00    -0.354 N 
ATOM      2  N   UNL     1      -3.799   1.028   1.690  0.00  0.00    -0.372 N 
ATOM      3  N   UNL     1      -5.574   2.091   2.681  0.00  0.00    -0.372 N 
ATOM      4  C   UNL     1      -4.254   1.899   2.598  0.00  0.00    +0.166 C 
ATOM      5  H   UNL     1      -2.401   2.334   3.298  0.00  0.00    +0.163 HD
ATOM      6  H   UNL     1      -4.428   0.527   1.077  0.00  0.00    +0.159 HD
ATOM      7  H   UNL     1      -2.809   0.852   1.569  0.00  0.00    +0.159 HD
ATOM      8  H   UNL     1      -5.982   2.730   3.350  0.00  0.00    +0.159 HD
ATOM      9  H   UNL     1      -6.221   1.590   2.084  0.00  0.00    +0.159 HD
ENDROOT
BRANCH   1  10
ATOM     10  C   UNL     1      -3.776   3.555   4.374  0.00  0.00    +0.151 C 
BRANCH  10  11
ATOM     11  C   UNL     1      -3.913   2.899   5.720  0.00  0.00    -0.028 A 
ATOM     12  C   UNL     1      -4.868   3.356   6.640  0.00  0.00    +0.005 A 
ATOM     13  C   UNL     1      -3.095   1.817   6.079  0.00  0.00    +0.005 A 
ATOM     14  C   UNL     1      -5.016   2.728   7.880  0.00  0.00    +0.000 A 
ATOM     15  C   UNL     1      -3.245   1.194   7.318  0.00  0.00    +0.000 A 
ATOM     16  C   UNL     1      -4.208   1.648   8.217  0.00  0.00    +0.000 A 
ENDBRANCH  10  11
ENDBRANCH   1  10
TORSDOF 2
ENDMDL
MODEL 2
REMARK VINA RESULT:    -5.051      2.027      2.701
REMARK INTER + INTRA:          -5.784
REMARK INTER:                  -5.660
REMARK INTRA:                  -0.124
REMARK UNBOUND:                -0.142
REMARK  Name = 1550473
REMARK  2 active torsions:
REMARK  status: ('A' for Active; 'I' for Inactive)
REMARK    1  A    between atoms: N_1  and  C_4
REMARK    2  A    between atoms: C_4  and  C_5
REMARK                            x       y       z     vdW  Elec       q    Type
REMARK                         _______ _______ _______ _____ _____    ______ ____
ROOT
ATOM      1  N   UNL     1      -5.251   3.530   5.610  0.00  0.00    -0.354 N 
ATOM      2  N   UNL     1      -6.732   4.707   4.273  0.00  0.00    -0.372 N 
ATOM      3  N   UNL     1      -6.139   2.576   3.661  0.00  0.00    -0.372 N 
ATOM      4  C   UNL     1      -6.031   3.594   4.522  0.00  0.00    +0.166 C 
ATOM      5  H   UNL     1      -5.189   4.347   6.206  0.00  0.00    +0.163 HD
ATOM      6  H   UNL     1      -7.331   4.784   3.462  0.00  0.00    +0.159 HD
ATOM      7  H   UNL     1      -6.704   5.505   4.896  0.00  0.00    +0.159 HD
ATOM      8  H   UNL     1      -5.631   1.711   3.789  0.00  0.00    +0.159 HD
ATOM      9  H   UNL     1      -6.724   2.639   2.838  0.00  0.00    +0.159 HD
ENDROOT
BRANCH   1  10
ATOM     10  C   UNL     1      -4.489   2.345   6.000  0.00  0.00    +0.151 C 
BRANCH  10  11
ATOM     11  C   UNL     1      -4.020   2.509   7.419  0.00  0.00    -0.028 A 
ATOM     12  C   UNL     1      -4.130   3.748   8.067  0.00  0.00    +0.005 A 
ATOM     13  C   UNL     1      -3.469   1.427   8.124  0.00  0.00    +0.005 A 
ATOM     14  C   UNL     1      -3.722   3.893   9.395  0.00  0.00    +0.000 A 
ATOM     15  C   UNL     1      -3.062   1.576   9.449  0.00  0.00    +0.000 A 
ATOM     16  C   UNL     1      -3.191   2.808  10.086  0.00  0.00    +0.000 A 
ENDBRANCH  10  11
ENDBRANCH   1  10
TORSDOF 2
ENDMDL
MODEL 3
REMARK VINA RESULT:    -5.015      2.020      2.890
REMARK INTER + INTRA:          -5.743
REMARK INTER:                  -5.565
REMARK INTRA:                  -0.178
REMARK UNBOUND:                -0.142
REMARK  Name = 1550473
REMARK  2 active torsions:
REMARK  status: ('A' for Active; 'I' for Inactive)
REMARK    1  A    between atoms: N_1  and  C_4
REMARK    2  A    between atoms: C_4  and  C_5
REMARK                            x       y       z     vdW  Elec       q    Type
REMARK                         _______ _______ _______ _____ _____    ______ ____
ROOT
ATOM      1  N   UNL     1      -2.798   3.620   1.907  0.00  0.00    -0.354 N 
ATOM      2  N   UNL     1      -3.281   2.433  -0.023  0.00  0.00    -0.372 N 
ATOM      3  N   UNL     1      -4.526   4.295   0.475  0.00  0.00    -0.372 N 
ATOM      4  C   UNL     1      -3.534   3.459   0.799  0.00  0.00    +0.166 C 
ATOM      5  H   UNL     1      -2.080   2.934   2.111  0.00  0.00    +0.163 HD
ATOM      6  H   UNL     1      -3.818   2.289  -0.868  0.00  0.00    +0.159 HD
ATOM      7  H   UNL     1      -2.533   1.776   0.160  0.00  0.00    +0.159 HD
ATOM      8  H   UNL     1      -4.772   5.086   1.057  0.00  0.00    +0.159 HD
ATOM      9  H   UNL     1      -5.082   4.160  -0.360  0.00  0.00    +0.159 HD
ENDROOT
BRANCH   1  10
ATOM     10  C   UNL     1      -2.957   4.734   2.840  0.00  0.00    +0.151 C 
BRANCH  10  11
ATOM     11  C   UNL     1      -3.808   4.288   3.996  0.00  0.00    -0.028 A 
ATOM     12  C   UNL     1      -3.323   3.347   4.916  0.00  0.00    +0.005 A 
ATOM     13  C   UNL     1      -5.098   4.808   4.182  0.00  0.00    +0.005 A 
ATOM     14  C   UNL     1      -4.102   2.955   6.008  0.00  0.00    +0.000 A 
ATOM     15  C   UNL     1      -5.873   4.413   5.272  0.00  0.00    +0.000 A 
ATOM     16  C   UNL     1      -5.374   3.489   6.186  0.00  0.00    +0.000 A 
ENDBRANCH  10  11
ENDBRANCH   1  10
TORSDOF 2
ENDMDL
MODEL 4
REMARK VINA RESULT:    -4.900      2.324      3.279
REMARK INTER + INTRA:          -5.614
REMARK INTER:                  -5.482
REMARK INTRA:                  -0.132
REMARK UNBOUND:                -0.142
REMARK  Name = 1550473
REMARK  2 active torsions:
REMARK  status: ('A' for Active; 'I' for Inactive)
REMARK    1  A    between atoms: N_1  and  C_4
REMARK    2  A    between atoms: C_4  and  C_5
REMARK                            x       y       z     vdW  Elec       q    Type
REMARK                         _______ _______ _______ _____ _____    ______ ____
ROOT
ATOM      1  N   UNL     1      -3.689   5.323   4.885  0.00  0.00    -0.354 N 
ATOM      2  N   UNL     1      -4.493   7.435   4.376  0.00  0.00    -0.372 N 
ATOM      3  N   UNL     1      -4.437   5.842   2.725  0.00  0.00    -0.372 N 
ATOM      4  C   UNL     1      -4.201   6.185   3.996  0.00  0.00    +0.166 C 
ATOM      5  H   UNL     1      -3.506   5.654   5.826  0.00  0.00    +0.163 HD
ATOM      6  H   UNL     1      -4.884   8.106   3.729  0.00  0.00    +0.159 HD
ATOM      7  H   UNL     1      -4.352   7.749   5.329  0.00  0.00    +0.159 HD
ATOM      8  H   UNL     1      -4.232   4.916   2.374  0.00  0.00    +0.159 HD
ATOM      9  H   UNL     1      -4.816   6.503   2.060  0.00  0.00    +0.159 HD
ENDROOT
BRANCH   1  10
ATOM     10  C   UNL     1      -3.386   3.925   4.587  0.00  0.00    +0.151 C 
BRANCH  10  11
ATOM     11  C   UNL     1      -3.703   3.085   5.794  0.00  0.00    -0.028 A 
ATOM     12  C   UNL     1      -2.974   1.917   6.060  0.00  0.00    +0.005 A 
ATOM     13  C   UNL     1      -4.728   3.456   6.678  0.00  0.00    +0.005 A 
ATOM     14  C   UNL     1      -3.248   1.153   7.197  0.00  0.00    +0.000 A 
ATOM     15  C   UNL     1      -4.998   2.690   7.812  0.00  0.00    +0.000 A 
ATOM     16  C   UNL     1      -4.257   1.541   8.073  0.00  0.00    +0.000 A 
ENDBRANCH  10  11
ENDBRANCH   1  10
TORSDOF 2
ENDMDL
MODEL 5
REMARK VINA RESULT:    -4.880      2.127      2.974
REMARK INTER + INTRA:          -5.592
REMARK INTER:                  -5.486
REMARK INTRA:                  -0.107
REMARK UNBOUND:                -0.142
REMARK  Name = 1550473
REMARK  2 active torsions:
REMARK  status: ('A' for Active; 'I' for Inactive)
REMARK    1  A    between atoms: N_1  and  C_4
REMARK    2  A    between atoms: C_4  and  C_5
REMARK                            x       y       z     vdW  Elec       q    Type
REMARK                         _______ _______ _______ _____ _____    ______ ____
ROOT
ATOM      1  N   UNL     1      -4.556   3.889   4.787  0.00  0.00    -0.354 N 
ATOM      2  N   UNL     1      -5.140   6.048   4.183  0.00  0.00    -0.372 N 
ATOM      3  N   UNL     1      -6.796   4.480   4.437  0.00  0.00    -0.372 N 
ATOM      4  C   UNL     1      -5.496   4.790   4.473  0.00  0.00    +0.166 C 
ATOM      5  H   UNL     1      -3.585   4.180   4.767  0.00  0.00    +0.163 HD
ATOM      6  H   UNL     1      -5.828   6.750   3.946  0.00  0.00    +0.159 HD
ATOM      7  H   UNL     1      -4.173   6.347   4.209  0.00  0.00    +0.159 HD
ATOM      8  H   UNL     1      -7.130   3.547   4.639  0.00  0.00    +0.159 HD
ATOM      9  H   UNL     1      -7.499   5.166   4.190  0.00  0.00    +0.159 HD
ENDROOT
BRANCH   1  10
ATOM     10  C   UNL     1      -4.842   2.508   5.170  0.00  0.00    +0.151 C 
BRANCH  10  11
ATOM     11  C   UNL     1      -3.924   2.109   6.292  0.00  0.00    -0.028 A 
ATOM     12  C   UNL     1      -2.576   1.818   6.040  0.00  0.00    +0.005 A 
ATOM     13  C   UNL     1      -4.395   2.027   7.612  0.00  0.00    +0.005 A 
ATOM     14  C   UNL     1      -1.716   1.476   7.087  0.00  0.00    +0.000 A 
ATOM     15  C   UNL     1      -3.534   1.685   8.654  0.00  0.00    +0.000 A 
ATOM     16  C   UNL     1      -2.193   1.412   8.391  0.00  0.00    +0.000 A 
ENDBRANCH  10  11
ENDBRANCH   1  10
TORSDOF 2
ENDMDL
MODEL 6
REMARK VINA RESULT:    -4.664     33.362     34.916
REMARK INTER + INTRA:          -5.351
REMARK INTER:                  -5.229
REMARK INTRA:                  -0.122
REMARK UNBOUND:                -0.142
REMARK  Name = 1550473
REMARK  2 active torsions:
REMARK  status: ('A' for Active; 'I' for Inactive)
REMARK    1  A    between atoms: N_1  and  C_4
REMARK    2  A    between atoms: C_4  and  C_5
REMARK                            x       y       z     vdW  Elec       q    Type
REMARK                         _______ _______ _______ _____ _____    ______ ____
ROOT
ATOM      1  N   UNL     1      -3.930   4.567  41.080  0.00  0.00    -0.354 N 
ATOM      2  N   UNL     1      -3.754   6.817  41.601  0.00  0.00    -0.372 N 
ATOM      3  N   UNL     1      -2.062   5.817  40.417  0.00  0.00    -0.372 N 
ATOM      4  C   UNL     1      -3.247   5.719  41.028  0.00  0.00    +0.166 C 
ATOM      5  H   UNL     1      -4.809   4.551  41.584  0.00  0.00    +0.163 HD
ATOM      6  H   UNL     1      -3.263   7.701  41.575  0.00  0.00    +0.159 HD
ATOM      7  H   UNL     1      -4.654   6.809  42.065  0.00  0.00    +0.159 HD
ATOM      8  H   UNL     1      -1.622   5.024  39.970  0.00  0.00    +0.159 HD
ATOM      9  H   UNL     1      -1.550   6.690  40.391  0.00  0.00    +0.159 HD
ENDROOT
BRANCH   1  10
ATOM     10  C   UNL     1      -3.492   3.327  40.442  0.00  0.00    +0.151 C 
BRANCH  10  11
ATOM     11  C   UNL     1      -4.607   2.796  39.583  0.00  0.00    -0.028 A 
ATOM     12  C   UNL     1      -4.460   2.724  38.190  0.00  0.00    +0.005 A 
ATOM     13  C   UNL     1      -5.810   2.358  40.157  0.00  0.00    +0.005 A 
ATOM     14  C   UNL     1      -5.483   2.203  37.395  0.00  0.00    +0.000 A 
ATOM     15  C   UNL     1      -6.830   1.840  39.359  0.00  0.00    +0.000 A 
ATOM     16  C   UNL     1      -6.665   1.759  37.979  0.00  0.00    +0.000 A 
ENDBRANCH  10  11
ENDBRANCH   1  10
TORSDOF 2
ENDMDL
MODEL 7
REMARK VINA RESULT:    -4.633      2.388      4.869
REMARK INTER + INTRA:          -5.316
REMARK INTER:                  -5.223
REMARK INTRA:                  -0.093
REMARK UNBOUND:                -0.142
REMARK  Name = 1550473
REMARK  2 active torsions:
REMARK  status: ('A' for Active; 'I' for Inactive)
REMARK    1  A    between atoms: N_1  and  C_4
REMARK    2  A    between atoms: C_4  and  C_5
REMARK                            x       y       z     vdW  Elec       q    Type
REMARK                         _______ _______ _______ _____ _____    ______ ____
ROOT
ATOM      1  N   UNL     1      -2.566   1.770   5.373  0.00  0.00    -0.354 N 
ATOM      2  N   UNL     1      -1.068   0.663   6.750  0.00  0.00    -0.372 N 
ATOM      3  N   UNL     1      -2.969   1.557   7.672  0.00  0.00    -0.372 N 
ATOM      4  C   UNL     1      -2.213   1.338   6.591  0.00  0.00    +0.166 C 
ATOM      5  H   UNL     1      -1.933   1.598   4.600  0.00  0.00    +0.163 HD
ATOM      6  H   UNL     1      -0.777   0.322   7.657  0.00  0.00    +0.159 HD
ATOM      7  H   UNL     1      -0.460   0.453   5.968  0.00  0.00    +0.159 HD
ATOM      8  H   UNL     1      -3.842   2.065   7.620  0.00  0.00    +0.159 HD
ATOM      9  H   UNL     1      -2.690   1.234   8.590  0.00  0.00    +0.159 HD
ENDROOT
BRANCH   1  10
ATOM     10  C   UNL     1      -3.817   2.467   5.084  0.00  0.00    +0.151 C 
BRANCH  10  11
ATOM     11  C   UNL     1      -3.917   2.702   3.602  0.00  0.00    -0.028 A 
ATOM     12  C   UNL     1      -3.622   3.961   3.059  0.00  0.00    +0.005 A 
ATOM     13  C   UNL     1      -4.301   1.668   2.734  0.00  0.00    +0.005 A 
ATOM     14  C   UNL     1      -3.686   4.172   1.680  0.00  0.00    +0.000 A 
ATOM     15  C   UNL     1      -4.365   1.882   1.358  0.00  0.00    +0.000 A 
ATOM     16  C   UNL     1      -4.055   3.134   0.830  0.00  0.00    +0.000 A 
ENDBRANCH  10  11
ENDBRANCH   1  10
TORSDOF 2
ENDMDL
MODEL 8
REMARK VINA RESULT:    -4.557      3.726      4.986
REMARK INTER + INTRA:          -5.231
REMARK INTER:                  -5.108
REMARK INTRA:                  -0.124
REMARK UNBOUND:                -0.142
REMARK  Name = 1550473
REMARK  2 active torsions:
REMARK  status: ('A' for Active; 'I' for Inactive)
REMARK    1  A    between atoms: N_1  and  C_4
REMARK    2  A    between atoms: C_4  and  C_5
REMARK                            x       y       z     vdW  Elec       q    Type
REMARK                         _______ _______ _______ _____ _____    ______ ____
ROOT
ATOM      1  N   UNL     1      -2.943   5.461   0.369  0.00  0.00    -0.354 N 
ATOM      2  N   UNL     1      -2.346   7.002  -1.253  0.00  0.00    -0.372 N 
ATOM      3  N   UNL     1      -1.893   4.782  -1.613  0.00  0.00    -0.372 N 
ATOM      4  C   UNL     1      -2.397   5.736  -0.823  0.00  0.00    +0.166 C 
ATOM      5  H   UNL     1      -3.280   6.232   0.933  0.00  0.00    +0.163 HD
ATOM      6  H   UNL     1      -1.943   7.240  -2.150  0.00  0.00    +0.159 HD
ATOM      7  H   UNL     1      -2.725   7.766  -0.707  0.00  0.00    +0.159 HD
ATOM      8  H   UNL     1      -1.896   3.807  -1.344  0.00  0.00    +0.159 HD
ATOM      9  H   UNL     1      -1.475   5.001  -2.509  0.00  0.00    +0.159 HD
ENDROOT
BRANCH   1  10
ATOM     10  C   UNL     1      -3.096   4.110   0.906  0.00  0.00    +0.151 C 
BRANCH  10  11
ATOM     11  C   UNL     1      -3.940   4.169   2.150  0.00  0.00    -0.028 A 
ATOM     12  C   UNL     1      -4.218   3.002   2.877  0.00  0.00    +0.005 A 
ATOM     13  C   UNL     1      -4.459   5.389   2.610  0.00  0.00    +0.005 A 
ATOM     14  C   UNL     1      -4.977   3.060   4.049  0.00  0.00    +0.000 A 
ATOM     15  C   UNL     1      -5.216   5.443   3.780  0.00  0.00    +0.000 A 
ATOM     16  C   UNL     1      -5.473   4.279   4.500  0.00  0.00    +0.000 A 
ENDBRANCH  10  11
ENDBRANCH   1  10
TORSDOF 2
ENDMDL
MODEL 9
REMARK VINA RESULT:    -4.436     37.111     39.100
REMARK INTER + INTRA:          -5.096
REMARK INTER:                  -4.974
REMARK INTRA:                  -0.122
REMARK UNBOUND:                -0.142
REMARK  Name = 1550473
REMARK  2 active torsions:
REMARK  status: ('A' for Active; 'I' for Inactive)
REMARK    1  A    between atoms: N_1  and  C_4
REMARK    2  A    between atoms: C_4  and  C_5
REMARK                            x       y       z     vdW  Elec       q    Type
REMARK                         _______ _______ _______ _____ _____    ______ ____
ROOT
ATOM      1  N   UNL     1      22.107  -8.115 -23.896  0.00  0.00    -0.354 N 
ATOM      2  N   UNL     1      21.847  -8.621 -26.142  0.00  0.00    -0.372 N 
ATOM      3  N   UNL     1      23.873  -7.830 -25.410  0.00  0.00    -0.372 N 
ATOM      4  C   UNL     1      22.614  -8.184 -25.135  0.00  0.00    +0.166 C 
ATOM      5  H   UNL     1      21.136  -8.370 -23.759  0.00  0.00    +0.163 HD
ATOM      6  H   UNL     1      22.203  -8.688 -27.086  0.00  0.00    +0.159 HD
ATOM      7  H   UNL     1      20.891  -8.919 -25.993  0.00  0.00    +0.159 HD
ATOM      8  H   UNL     1      24.501  -7.487 -24.696  0.00  0.00    +0.159 HD
ATOM      9  H   UNL     1      24.244  -7.878 -26.351  0.00  0.00    +0.159 HD
ENDROOT
BRANCH   1  10
ATOM     10  C   UNL     1      22.874  -7.704 -22.721  0.00  0.00    +0.151 C 
BRANCH  10  11
ATOM     11  C   UNL     1      21.929  -7.482 -21.572  0.00  0.00    -0.028 A 
ATOM     12  C   UNL     1      20.581  -7.178 -21.807  0.00  0.00    +0.005 A 
ATOM     13  C   UNL     1      22.376  -7.581 -20.245  0.00  0.00    +0.005 A 
ATOM     14  C   UNL     1      19.697  -7.001 -20.740  0.00  0.00    +0.000 A 
ATOM     15  C   UNL     1      21.491  -7.402 -19.183  0.00  0.00    +0.000 A 
ATOM     16  C   UNL     1      20.151  -7.115 -19.431  0.00  0.00    +0.000 A 
ENDBRANCH  10  11
ENDBRANCH   1  10
TORSDOF 2
ENDMDL
