MODEL 1
REMARK VINA RESULT:    -5.427      0.000      0.000
REMARK INTER + INTRA:          -6.201
REMARK INTER:                  -6.061
REMARK INTRA:                  -0.139
REMARK UNBOUND:                -0.139
REMARK  Name = 1550473
REMARK  2 active torsions:
REMARK  status: ('A' for Active; 'I' for Inactive)
REMARK    1  A    between atoms: N_1  and  C_4
REMARK    2  A    between atoms: C_4  and  C_5
REMARK                            x       y       z     vdW  Elec       q    Type
REMARK                         _______ _______ _______ _____ _____    ______ ____
ROOT
ATOM      1  N   UNL     1      -8.354   7.228  16.900  0.00  0.00    -0.354 N 
ATOM      2  N   UNL     1      -7.455   8.552  18.573  0.00  0.00    -0.372 N 
ATOM      3  N   UNL     1      -8.762   6.760  19.159  0.00  0.00    -0.372 N 
ATOM      4  C   UNL     1      -8.198   7.503  18.201  0.00  0.00    +0.166 C 
ATOM      5  H   UNL     1      -7.926   7.848  16.222  0.00  0.00    +0.163 HD
ATOM      6  H   UNL     1      -7.317   8.783  19.548  0.00  0.00    +0.159 HD
ATOM      7  H   UNL     1      -6.990   9.143  17.895  0.00  0.00    +0.159 HD
ATOM      8  H   UNL     1      -9.339   5.958  18.945  0.00  0.00    +0.159 HD
ATOM      9  H   UNL     1      -8.645   6.981  20.140  0.00  0.00    +0.159 HD
ENDROOT
BRANCH   1  10
ATOM     10  C   UNL     1      -9.099   6.077  16.391  0.00  0.00    +0.151 C 
BRANCH  10  11
ATOM     11  C   UNL     1      -9.988   6.527  15.264  0.00  0.00    -0.028 A 
ATOM     12  C   UNL     1      -9.862   7.817  14.730  0.00  0.00    +0.005 A 
ATOM     13  C   UNL     1     -10.953   5.664  14.722  0.00  0.00    +0.005 A 
ATOM     14  C   UNL     1     -10.667   8.225  13.663  0.00  0.00    +0.000 A 
ATOM     15  C   UNL     1     -11.755   6.075  13.658  0.00  0.00    +0.000 A 
ATOM     16  C   UNL     1     -11.610   7.355  13.127  0.00  0.00    +0.000 A 
ENDBRANCH  10  11
ENDBRANCH   1  10
TORSDOF 2
ENDMDL
MODEL 2
REMARK VINA RESULT:    -5.375     43.017     43.861
REMARK INTER + INTRA:          -6.143
REMARK INTER:                  -6.037
REMARK INTRA:                  -0.106
REMARK UNBOUND:                -0.139
REMARK  Name = 1550473
REMARK  2 active torsions:
REMARK  status: ('A' for Active; 'I' for Inactive)
REMARK    1  A    between atoms: N_1  and  C_4
REMARK    2  A    between atoms: C_4  and  C_5
REMARK                            x       y       z     vdW  Elec       q    Type
REMARK                         _______ _______ _______ _____ _____    ______ ____
ROOT
ATOM      1  N   UNL     1       9.237 -18.185 -14.820  0.00  0.00    -0.354 N 
ATOM      2  N   UNL     1      10.426 -16.469 -15.824  0.00  0.00    -0.372 N 
ATOM      3  N   UNL     1      10.709 -16.848 -13.579  0.00  0.00    -0.372 N 
ATOM      4  C   UNL     1      10.117 -17.178 -14.732  0.00  0.00    +0.166 C 
ATOM      5  H   UNL     1       8.801 -18.365 -15.717  0.00  0.00    +0.163 HD
ATOM      6  H   UNL     1      11.088 -15.706 -15.789  0.00  0.00    +0.159 HD
ATOM      7  H   UNL     1      10.022 -16.681 -16.729  0.00  0.00    +0.159 HD
ATOM      8  H   UNL     1      10.514 -17.340 -12.717  0.00  0.00    +0.159 HD
ATOM      9  H   UNL     1      11.366 -16.080 -13.521  0.00  0.00    +0.159 HD
ENDROOT
BRANCH   1  10
ATOM     10  C   UNL     1       8.873 -19.053 -13.701  0.00  0.00    +0.151 C 
BRANCH  10  11
ATOM     11  C   UNL     1       7.587 -19.761 -14.028  0.00  0.00    -0.028 A 
ATOM     12  C   UNL     1       7.413 -20.382 -15.273  0.00  0.00    +0.005 A 
ATOM     13  C   UNL     1       6.541 -19.818 -13.094  0.00  0.00    +0.005 A 
ATOM     14  C   UNL     1       6.230 -21.066 -15.565  0.00  0.00    +0.000 A 
ATOM     15  C   UNL     1       5.361 -20.501 -13.390  0.00  0.00    +0.000 A 
ATOM     16  C   UNL     1       5.207 -21.127 -14.624  0.00  0.00    +0.000 A 
ENDBRANCH  10  11
ENDBRANCH   1  10
TORSDOF 2
ENDMDL
MODEL 3
REMARK VINA RESULT:    -5.302     24.068     25.486
REMARK INTER + INTRA:          -6.062
REMARK INTER:                  -5.938
REMARK INTRA:                  -0.124
REMARK UNBOUND:                -0.139
REMARK  Name = 1550473
REMARK  2 active torsions:
REMARK  status: ('A' for Active; 'I' for Inactive)
REMARK    1  A    between atoms: N_1  and  C_4
REMARK    2  A    between atoms: C_4  and  C_5
REMARK                            x       y       z     vdW  Elec       q    Type
REMARK                         _______ _______ _______ _____ _____    ______ ____
ROOT
ATOM      1  N   UNL     1      -1.916   7.990  -9.457  0.00  0.00    -0.354 N 
ATOM      2  N   UNL     1      -2.359   5.837 -10.186  0.00  0.00    -0.372 N 
ATOM      3  N   UNL     1      -4.035   7.402 -10.266  0.00  0.00    -0.372 N 
ATOM      4  C   UNL     1      -2.769   7.091  -9.965  0.00  0.00    +0.166 C 
ATOM      5  H   UNL     1      -0.978   7.684  -9.222  0.00  0.00    +0.163 HD
ATOM      6  H   UNL     1      -2.979   5.138 -10.572  0.00  0.00    +0.159 HD
ATOM      7  H   UNL     1      -1.408   5.546  -9.993  0.00  0.00    +0.159 HD
ATOM      8  H   UNL     1      -4.408   8.330 -10.118  0.00  0.00    +0.159 HD
ATOM      9  H   UNL     1      -4.674   6.713 -10.643  0.00  0.00    +0.159 HD
ENDROOT
BRANCH   1  10
ATOM     10  C   UNL     1      -2.248   9.395  -9.229  0.00  0.00    +0.151 C 
BRANCH  10  11
ATOM     11  C   UNL     1      -2.070   9.711  -7.769  0.00  0.00    -0.028 A 
ATOM     12  C   UNL     1      -2.009   8.681  -6.820  0.00  0.00    +0.005 A 
ATOM     13  C   UNL     1      -1.956  11.039  -7.330  0.00  0.00    +0.005 A 
ATOM     14  C   UNL     1      -1.814   8.972  -5.468  0.00  0.00    +0.000 A 
ATOM     15  C   UNL     1      -1.761  11.326  -5.979  0.00  0.00    +0.000 A 
ATOM     16  C   UNL     1      -1.688  10.293  -5.049  0.00  0.00    +0.000 A 
ENDBRANCH  10  11
ENDBRANCH   1  10
TORSDOF 2
ENDMDL
MODEL 4
REMARK VINA RESULT:    -5.299      4.915      6.391
REMARK INTER + INTRA:          -6.058
REMARK INTER:                  -5.908
REMARK INTRA:                  -0.151
REMARK UNBOUND:                -0.139
REMARK  Name = 1550473
REMARK  2 active torsions:
REMARK  status: ('A' for Active; 'I' for Inactive)
REMARK    1  A    between atoms: N_1  and  C_4
REMARK    2  A    between atoms: C_4  and  C_5
REMARK                            x       y       z     vdW  Elec       q    Type
REMARK                         _______ _______ _______ _____ _____    ______ ____
ROOT
ATOM      1  N   UNL     1     -13.488  10.553  12.068  0.00  0.00    -0.354 N 
ATOM      2  N   UNL     1     -13.942  12.813  12.301  0.00  0.00    -0.372 N 
ATOM      3  N   UNL     1     -12.536  12.131  10.621  0.00  0.00    -0.372 N 
ATOM      4  C   UNL     1     -13.317  11.818  11.660  0.00  0.00    +0.166 C 
ATOM      5  H   UNL     1     -14.070  10.385  12.881  0.00  0.00    +0.163 HD
ATOM      6  H   UNL     1     -13.835  13.776  12.014  0.00  0.00    +0.159 HD
ATOM      7  H   UNL     1     -14.559  12.637  13.085  0.00  0.00    +0.159 HD
ATOM      8  H   UNL     1     -12.032  11.428  10.098  0.00  0.00    +0.159 HD
ATOM      9  H   UNL     1     -12.406  13.091  10.326  0.00  0.00    +0.159 HD
ENDROOT
BRANCH   1  10
ATOM     10  C   UNL     1     -12.896   9.393  11.405  0.00  0.00    +0.151 C 
BRANCH  10  11
ATOM     11  C   UNL     1     -12.062   8.633  12.399  0.00  0.00    -0.028 A 
ATOM     12  C   UNL     1     -11.006   9.264  13.073  0.00  0.00    +0.005 A 
ATOM     13  C   UNL     1     -12.325   7.282  12.675  0.00  0.00    +0.005 A 
ATOM     14  C   UNL     1     -10.250   8.566  14.018  0.00  0.00    +0.000 A 
ATOM     15  C   UNL     1     -11.567   6.589  13.619  0.00  0.00    +0.000 A 
ATOM     16  C   UNL     1     -10.531   7.232  14.292  0.00  0.00    +0.000 A 
ENDBRANCH  10  11
ENDBRANCH   1  10
TORSDOF 2
ENDMDL
MODEL 5
REMARK VINA RESULT:    -5.238      1.761      2.456
REMARK INTER + INTRA:          -5.990
REMARK INTER:                  -5.850
REMARK INTRA:                  -0.140
REMARK UNBOUND:                -0.139
REMARK  Name = 1550473
REMARK  2 active torsions:
REMARK  status: ('A' for Active; 'I' for Inactive)
REMARK    1  A    between atoms: N_1  and  C_4
REMARK    2  A    between atoms: C_4  and  C_5
REMARK                            x       y       z     vdW  Elec       q    Type
REMARK                         _______ _______ _______ _____ _____    ______ ____
ROOT
ATOM      1  N   UNL     1      -9.834   6.735  15.838  0.00  0.00    -0.354 N 
ATOM      2  N   UNL     1      -8.820   5.209  17.256  0.00  0.00    -0.372 N 
ATOM      3  N   UNL     1      -7.546   6.261  15.664  0.00  0.00    -0.372 N 
ATOM      4  C   UNL     1      -8.738   6.079  16.241  0.00  0.00    +0.166 C 
ATOM      5  H   UNL     1     -10.714   6.529  16.297  0.00  0.00    +0.163 HD
ATOM      6  H   UNL     1      -8.010   4.702  17.584  0.00  0.00    +0.159 HD
ATOM      7  H   UNL     1      -9.692   5.040  17.743  0.00  0.00    +0.159 HD
ATOM      8  H   UNL     1      -7.418   6.899  14.890  0.00  0.00    +0.159 HD
ATOM      9  H   UNL     1      -6.725   5.754  15.971  0.00  0.00    +0.159 HD
ENDROOT
BRANCH   1  10
ATOM     10  C   UNL     1      -9.841   7.742  14.779  0.00  0.00    +0.151 C 
BRANCH  10  11
ATOM     11  C   UNL     1     -10.933   7.416  13.797  0.00  0.00    -0.028 A 
ATOM     12  C   UNL     1     -11.394   8.387  12.897  0.00  0.00    +0.005 A 
ATOM     13  C   UNL     1     -11.506   6.135  13.759  0.00  0.00    +0.005 A 
ATOM     14  C   UNL     1     -12.387   8.075  11.965  0.00  0.00    +0.000 A 
ATOM     15  C   UNL     1     -12.498   5.828  12.828  0.00  0.00    +0.000 A 
ATOM     16  C   UNL     1     -12.936   6.798  11.929  0.00  0.00    +0.000 A 
ENDBRANCH  10  11
ENDBRANCH   1  10
TORSDOF 2
ENDMDL
MODEL 6
REMARK VINA RESULT:    -5.107     13.981     15.217
REMARK INTER + INTRA:          -5.843
REMARK INTER:                  -5.718
REMARK INTRA:                  -0.125
REMARK UNBOUND:                -0.139
REMARK  Name = 1550473
REMARK  2 active torsions:
REMARK  status: ('A' for Active; 'I' for Inactive)
REMARK    1  A    between atoms: N_1  and  C_4
REMARK    2  A    between atoms: C_4  and  C_5
REMARK                            x       y       z     vdW  Elec       q    Type
REMARK                         _______ _______ _______ _____ _____    ______ ____
ROOT
ATOM      1  N   UNL     1       0.222  -3.101  12.241  0.00  0.00    -0.354 N 
ATOM      2  N   UNL     1      -0.221  -3.730  10.056  0.00  0.00    -0.372 N 
ATOM      3  N   UNL     1      -1.608  -2.213  11.077  0.00  0.00    -0.372 N 
ATOM      4  C   UNL     1      -0.535  -3.009  11.139  0.00  0.00    +0.166 C 
ATOM      5  H   UNL     1       1.005  -3.746  12.234  0.00  0.00    +0.163 HD
ATOM      6  H   UNL     1      -0.772  -3.679   9.210  0.00  0.00    +0.159 HD
ATOM      7  H   UNL     1       0.588  -4.339  10.037  0.00  0.00    +0.159 HD
ATOM      8  H   UNL     1      -1.901  -1.648  11.862  0.00  0.00    +0.159 HD
ATOM      9  H   UNL     1      -2.178  -2.157  10.242  0.00  0.00    +0.159 HD
ENDROOT
BRANCH   1  10
ATOM     10  C   UNL     1      -0.002  -2.319  13.455  0.00  0.00    +0.151 C 
BRANCH  10  11
ATOM     11  C   UNL     1       1.311  -1.759  13.928  0.00  0.00    -0.028 A 
ATOM     12  C   UNL     1       1.873  -0.637  13.302  0.00  0.00    +0.005 A 
ATOM     13  C   UNL     1       1.995  -2.343  15.005  0.00  0.00    +0.005 A 
ATOM     14  C   UNL     1       3.078  -0.098  13.760  0.00  0.00    +0.000 A 
ATOM     15  C   UNL     1       3.198  -1.802  15.459  0.00  0.00    +0.000 A 
ATOM     16  C   UNL     1       3.738  -0.679  14.838  0.00  0.00    +0.000 A 
ENDBRANCH  10  11
ENDBRANCH   1  10
TORSDOF 2
ENDMDL
MODEL 7
REMARK VINA RESULT:    -5.054     40.200     40.866
REMARK INTER + INTRA:          -5.784
REMARK INTER:                  -5.646
REMARK INTRA:                  -0.138
REMARK UNBOUND:                -0.139
REMARK  Name = 1550473
REMARK  2 active torsions:
REMARK  status: ('A' for Active; 'I' for Inactive)
REMARK    1  A    between atoms: N_1  and  C_4
REMARK    2  A    between atoms: C_4  and  C_5
REMARK                            x       y       z     vdW  Elec       q    Type
REMARK                         _______ _______ _______ _____ _____    ______ ____
ROOT
ATOM      1  N   UNL     1      10.572 -13.957 -10.957  0.00  0.00    -0.354 N 
ATOM      2  N   UNL     1      11.319 -11.862 -10.311  0.00  0.00    -0.372 N 
ATOM      3  N   UNL     1       9.074 -12.321 -10.199  0.00  0.00    -0.372 N 
ATOM      4  C   UNL     1      10.314 -12.727 -10.493  0.00  0.00    +0.166 C 
ATOM      5  H   UNL     1      11.530 -14.192 -11.190  0.00  0.00    +0.163 HD
ATOM      6  H   UNL     1      11.156 -10.928  -9.959  0.00  0.00    +0.159 HD
ATOM      7  H   UNL     1      12.281 -12.116 -10.501  0.00  0.00    +0.159 HD
ATOM      8  H   UNL     1       8.271 -12.924 -10.320  0.00  0.00    +0.159 HD
ATOM      9  H   UNL     1       8.889 -11.387  -9.857  0.00  0.00    +0.159 HD
ENDROOT
BRANCH   1  10
ATOM     10  C   UNL     1       9.555 -14.991 -11.140  0.00  0.00    +0.151 C 
BRANCH  10  11
ATOM     11  C   UNL     1       9.769 -15.661 -12.469  0.00  0.00    -0.028 A 
ATOM     12  C   UNL     1      10.037 -14.899 -13.616  0.00  0.00    +0.005 A 
ATOM     13  C   UNL     1       9.712 -17.058 -12.588  0.00  0.00    +0.005 A 
ATOM     14  C   UNL     1      10.266 -15.522 -14.845  0.00  0.00    +0.000 A 
ATOM     15  C   UNL     1       9.940 -17.677 -13.817  0.00  0.00    +0.000 A 
ATOM     16  C   UNL     1      10.220 -16.909 -14.944  0.00  0.00    +0.000 A 
ENDBRANCH  10  11
ENDBRANCH   1  10
TORSDOF 2
ENDMDL
MODEL 8
REMARK VINA RESULT:    -5.044     37.541     38.241
REMARK INTER + INTRA:          -5.774
REMARK INTER:                  -5.680
REMARK INTRA:                  -0.093
REMARK UNBOUND:                -0.139
REMARK  Name = 1550473
REMARK  2 active torsions:
REMARK  status: ('A' for Active; 'I' for Inactive)
REMARK    1  A    between atoms: N_1  and  C_4
REMARK    2  A    between atoms: C_4  and  C_5
REMARK                            x       y       z     vdW  Elec       q    Type
REMARK                         _______ _______ _______ _____ _____    ______ ____
ROOT
ATOM      1  N   UNL     1      11.203 -11.971 -10.647  0.00  0.00    -0.354 N 
ATOM      2  N   UNL     1      11.394  -9.742 -11.248  0.00  0.00    -0.372 N 
ATOM      3  N   UNL     1      10.538 -11.231 -12.769  0.00  0.00    -0.372 N 
ATOM      4  C   UNL     1      11.043 -10.997 -11.553  0.00  0.00    +0.166 C 
ATOM      5  H   UNL     1      11.620 -11.734  -9.754  0.00  0.00    +0.163 HD
ATOM      6  H   UNL     1      11.282  -8.986 -11.910  0.00  0.00    +0.159 HD
ATOM      7  H   UNL     1      11.768  -9.500 -10.338  0.00  0.00    +0.159 HD
ATOM      8  H   UNL     1      10.259 -12.157 -13.064  0.00  0.00    +0.159 HD
ATOM      9  H   UNL     1      10.429 -10.490 -13.450  0.00  0.00    +0.159 HD
ENDROOT
BRANCH   1  10
ATOM     10  C   UNL     1      10.802 -13.360 -10.861  0.00  0.00    +0.151 C 
BRANCH  10  11
ATOM     11  C   UNL     1       9.660 -13.689  -9.941  0.00  0.00    -0.028 A 
ATOM     12  C   UNL     1       9.571 -14.953  -9.338  0.00  0.00    +0.005 A 
ATOM     13  C   UNL     1       8.665 -12.739  -9.662  0.00  0.00    +0.005 A 
ATOM     14  C   UNL     1       8.526 -15.249  -8.460  0.00  0.00    +0.000 A 
ATOM     15  C   UNL     1       7.622 -13.039  -8.785  0.00  0.00    +0.000 A 
ATOM     16  C   UNL     1       7.555 -14.293  -8.183  0.00  0.00    +0.000 A 
ENDBRANCH  10  11
ENDBRANCH   1  10
TORSDOF 2
ENDMDL
MODEL 9
REMARK VINA RESULT:    -4.961     31.233     31.930
REMARK INTER + INTRA:          -5.681
REMARK INTER:                  -5.576
REMARK INTRA:                  -0.105
REMARK UNBOUND:                -0.139
REMARK  Name = 1550473
REMARK  2 active torsions:
REMARK  status: ('A' for Active; 'I' for Inactive)
REMARK    1  A    between atoms: N_1  and  C_4
REMARK    2  A    between atoms: C_4  and  C_5
REMARK                            x       y       z     vdW  Elec       q    Type
REMARK                         _______ _______ _______ _____ _____    ______ ____
ROOT
ATOM      1  N   UNL     1       9.699  -0.857  -8.617  0.00  0.00    -0.354 N 
ATOM      2  N   UNL     1       9.505  -3.160  -8.460  0.00  0.00    -0.372 N 
ATOM      3  N   UNL     1      10.589  -2.259 -10.271  0.00  0.00    -0.372 N 
ATOM      4  C   UNL     1       9.933  -2.077  -9.120  0.00  0.00    +0.166 C 
ATOM      5  H   UNL     1       9.171  -0.785  -7.755  0.00  0.00    +0.163 HD
ATOM      6  H   UNL     1       9.670  -4.093  -8.813  0.00  0.00    +0.159 HD
ATOM      7  H   UNL     1       9.017  -3.087  -7.576  0.00  0.00    +0.159 HD
ATOM      8  H   UNL     1      10.933  -1.483 -10.820  0.00  0.00    +0.159 HD
ATOM      9  H   UNL     1      10.753  -3.185 -10.647  0.00  0.00    +0.159 HD
ENDROOT
BRANCH   1  10
ATOM     10  C   UNL     1      10.170   0.384  -9.229  0.00  0.00    +0.151 C 
BRANCH  10  11
ATOM     11  C   UNL     1       9.158   1.469  -8.982  0.00  0.00    -0.028 A 
ATOM     12  C   UNL     1       8.819   1.841  -7.673  0.00  0.00    +0.005 A 
ATOM     13  C   UNL     1       8.539   2.132 -10.052  0.00  0.00    +0.005 A 
ATOM     14  C   UNL     1       7.902   2.869  -7.443  0.00  0.00    +0.000 A 
ATOM     15  C   UNL     1       7.623   3.157  -9.818  0.00  0.00    +0.000 A 
ATOM     16  C   UNL     1       7.307   3.527  -8.513  0.00  0.00    +0.000 A 
ENDBRANCH  10  11
ENDBRANCH   1  10
TORSDOF 2
ENDMDL
