MODEL 1
REMARK VINA RESULT:    -5.100      0.000      0.000
REMARK INTER + INTRA:          -5.827
REMARK INTER:                  -5.697
REMARK INTRA:                  -0.130
REMARK UNBOUND:                -0.130
REMARK  Name = 1550473
REMARK  2 active torsions:
REMARK  status: ('A' for Active; 'I' for Inactive)
REMARK    1  A    between atoms: N_1  and  C_4
REMARK    2  A    between atoms: C_4  and  C_5
REMARK                            x       y       z     vdW  Elec       q    Type
REMARK                         _______ _______ _______ _____ _____    ______ ____
ROOT
ATOM      1  N   UNL     1       4.708 -12.464   3.022  0.00  0.00    -0.354 N 
ATOM      2  N   UNL     1       4.533 -10.344   3.939  0.00  0.00    -0.372 N 
ATOM      3  N   UNL     1       5.639 -11.974   5.116  0.00  0.00    -0.372 N 
ATOM      4  C   UNL     1       4.963 -11.609   4.022  0.00  0.00    +0.166 C 
ATOM      5  H   UNL     1       4.164 -12.134   2.233  0.00  0.00    +0.163 HD
ATOM      6  H   UNL     1       4.713  -9.676   4.676  0.00  0.00    +0.159 HD
ATOM      7  H   UNL     1       4.029 -10.005   3.129  0.00  0.00    +0.159 HD
ATOM      8  H   UNL     1       5.986 -12.916   5.243  0.00  0.00    +0.159 HD
ATOM      9  H   UNL     1       5.819 -11.323   5.870  0.00  0.00    +0.159 HD
ENDROOT
BRANCH   1  10
ATOM     10  C   UNL     1       5.178 -13.848   2.990  0.00  0.00    +0.151 C 
BRANCH  10  11
ATOM     11  C   UNL     1       5.297 -14.294   1.559  0.00  0.00    -0.028 A 
ATOM     12  C   UNL     1       5.150 -13.372   0.512  0.00  0.00    +0.005 A 
ATOM     13  C   UNL     1       5.561 -15.635   1.243  0.00  0.00    +0.005 A 
ATOM     14  C   UNL     1       5.290 -13.779  -0.817  0.00  0.00    +0.000 A 
ATOM     15  C   UNL     1       5.699 -16.038  -0.085  0.00  0.00    +0.000 A 
ATOM     16  C   UNL     1       5.566 -15.110  -1.115  0.00  0.00    +0.000 A 
ENDBRANCH  10  11
ENDBRANCH   1  10
TORSDOF 2
ENDMDL
MODEL 2
REMARK VINA RESULT:    -4.523      2.567      2.962
REMARK INTER + INTRA:          -5.181
REMARK INTER:                  -5.056
REMARK INTRA:                  -0.125
REMARK UNBOUND:                -0.130
REMARK  Name = 1550473
REMARK  2 active torsions:
REMARK  status: ('A' for Active; 'I' for Inactive)
REMARK    1  A    between atoms: N_1  and  C_4
REMARK    2  A    between atoms: C_4  and  C_5
REMARK                            x       y       z     vdW  Elec       q    Type
REMARK                         _______ _______ _______ _____ _____    ______ ____
ROOT
ATOM      1  N   UNL     1       8.224 -12.722   2.799  0.00  0.00    -0.354 N 
ATOM      2  N   UNL     1      10.043 -12.114   4.097  0.00  0.00    -0.372 N 
ATOM      3  N   UNL     1       7.928 -11.716   4.895  0.00  0.00    -0.372 N 
ATOM      4  C   UNL     1       8.718 -12.187   3.923  0.00  0.00    +0.166 C 
ATOM      5  H   UNL     1       8.875 -13.033   2.087  0.00  0.00    +0.163 HD
ATOM      6  H   UNL     1      10.444 -11.718   4.936  0.00  0.00    +0.159 HD
ATOM      7  H   UNL     1      10.691 -12.468   3.404  0.00  0.00    +0.159 HD
ATOM      8  H   UNL     1       6.920 -11.737   4.822  0.00  0.00    +0.159 HD
ATOM      9  H   UNL     1       8.312 -11.306   5.737  0.00  0.00    +0.159 HD
ENDROOT
BRANCH   1  10
ATOM     10  C   UNL     1       6.797 -12.897   2.535  0.00  0.00    +0.151 C 
BRANCH  10  11
ATOM     11  C   UNL     1       6.595 -13.135   1.064  0.00  0.00    -0.028 A 
ATOM     12  C   UNL     1       7.587 -12.772   0.141  0.00  0.00    +0.005 A 
ATOM     13  C   UNL     1       5.416 -13.728   0.586  0.00  0.00    +0.005 A 
ATOM     14  C   UNL     1       7.412 -13.019  -1.223  0.00  0.00    +0.000 A 
ATOM     15  C   UNL     1       5.245 -13.973  -0.776  0.00  0.00    +0.000 A 
ATOM     16  C   UNL     1       6.245 -13.621  -1.680  0.00  0.00    +0.000 A 
ENDBRANCH  10  11
ENDBRANCH   1  10
TORSDOF 2
ENDMDL
MODEL 3
REMARK VINA RESULT:    -4.519     38.391     39.881
REMARK INTER + INTRA:          -5.178
REMARK INTER:                  -5.038
REMARK INTRA:                  -0.140
REMARK UNBOUND:                -0.130
REMARK  Name = 1550473
REMARK  2 active torsions:
REMARK  status: ('A' for Active; 'I' for Inactive)
REMARK    1  A    between atoms: N_1  and  C_4
REMARK    2  A    between atoms: C_4  and  C_5
REMARK                            x       y       z     vdW  Elec       q    Type
REMARK                         _______ _______ _______ _____ _____    ______ ____
ROOT
ATOM      1  N   UNL     1      16.486  -5.936  37.849  0.00  0.00    -0.354 N 
ATOM      2  N   UNL     1      18.782  -6.161  37.648  0.00  0.00    -0.372 N 
ATOM      3  N   UNL     1      17.549  -7.964  38.352  0.00  0.00    -0.372 N 
ATOM      4  C   UNL     1      17.590  -6.688  37.952  0.00  0.00    +0.166 C 
ATOM      5  H   UNL     1      16.588  -4.968  37.570  0.00  0.00    +0.163 HD
ATOM      6  H   UNL     1      19.632  -6.705  37.713  0.00  0.00    +0.159 HD
ATOM      7  H   UNL     1      18.876  -5.206  37.325  0.00  0.00    +0.159 HD
ATOM      8  H   UNL     1      16.681  -8.419  38.601  0.00  0.00    +0.159 HD
ATOM      9  H   UNL     1      18.390  -8.521  38.434  0.00  0.00    +0.159 HD
ENDROOT
BRANCH   1  10
ATOM     10  C   UNL     1      15.134  -6.430  38.105  0.00  0.00    +0.151 C 
BRANCH  10  11
ATOM     11  C   UNL     1      14.593  -5.765  39.340  0.00  0.00    -0.028 A 
ATOM     12  C   UNL     1      13.436  -4.975  39.276  0.00  0.00    +0.005 A 
ATOM     13  C   UNL     1      15.231  -5.924  40.580  0.00  0.00    +0.005 A 
ATOM     14  C   UNL     1      12.916  -4.382  40.428  0.00  0.00    +0.000 A 
ATOM     15  C   UNL     1      14.710  -5.329  41.729  0.00  0.00    +0.000 A 
ATOM     16  C   UNL     1      13.551  -4.560  41.653  0.00  0.00    +0.000 A 
ENDBRANCH  10  11
ENDBRANCH   1  10
TORSDOF 2
ENDMDL
MODEL 4
REMARK VINA RESULT:    -4.501     47.922     49.668
REMARK INTER + INTRA:          -5.158
REMARK INTER:                  -5.006
REMARK INTRA:                  -0.151
REMARK UNBOUND:                -0.130
REMARK  Name = 1550473
REMARK  2 active torsions:
REMARK  status: ('A' for Active; 'I' for Inactive)
REMARK    1  A    between atoms: N_1  and  C_4
REMARK    2  A    between atoms: C_4  and  C_5
REMARK                            x       y       z     vdW  Elec       q    Type
REMARK                         _______ _______ _______ _____ _____    ______ ____
ROOT
ATOM      1  N   UNL     1      24.767  -0.148  47.437  0.00  0.00    -0.354 N 
ATOM      2  N   UNL     1      26.645  -0.162  48.793  0.00  0.00    -0.372 N 
ATOM      3  N   UNL     1      26.454   1.459  47.181  0.00  0.00    -0.372 N 
ATOM      4  C   UNL     1      25.944   0.385  47.793  0.00  0.00    +0.166 C 
ATOM      5  H   UNL     1      24.450  -0.980  47.920  0.00  0.00    +0.163 HD
ATOM      6  H   UNL     1      27.534   0.220  49.086  0.00  0.00    +0.159 HD
ATOM      7  H   UNL     1      26.304  -0.967  49.305  0.00  0.00    +0.159 HD
ATOM      8  H   UNL     1      25.977   1.916  46.415  0.00  0.00    +0.159 HD
ATOM      9  H   UNL     1      27.348   1.850  47.452  0.00  0.00    +0.159 HD
ENDROOT
BRANCH   1  10
ATOM     10  C   UNL     1      23.901   0.404  46.397  0.00  0.00    +0.151 C 
BRANCH  10  11
ATOM     11  C   UNL     1      23.703  -0.630  45.323  0.00  0.00    -0.028 A 
ATOM     12  C   UNL     1      24.803  -1.161  44.635  0.00  0.00    +0.005 A 
ATOM     13  C   UNL     1      22.417  -1.086  44.993  0.00  0.00    +0.005 A 
ATOM     14  C   UNL     1      24.622  -2.144  43.658  0.00  0.00    +0.000 A 
ATOM     15  C   UNL     1      22.241  -2.066  44.016  0.00  0.00    +0.000 A 
ATOM     16  C   UNL     1      23.343  -2.596  43.351  0.00  0.00    +0.000 A 
ENDBRANCH  10  11
ENDBRANCH   1  10
TORSDOF 2
ENDMDL
MODEL 5
REMARK VINA RESULT:    -4.469     22.302     23.748
REMARK INTER + INTRA:          -5.121
REMARK INTER:                  -5.012
REMARK INTRA:                  -0.109
REMARK UNBOUND:                -0.130
REMARK  Name = 1550473
REMARK  2 active torsions:
REMARK  status: ('A' for Active; 'I' for Inactive)
REMARK    1  A    between atoms: N_1  and  C_4
REMARK    2  A    between atoms: C_4  and  C_5
REMARK                            x       y       z     vdW  Elec       q    Type
REMARK                         _______ _______ _______ _____ _____    ______ ____
ROOT
ATOM      1  N   UNL     1      -4.229  -5.897 -17.906  0.00  0.00    -0.354 N 
ATOM      2  N   UNL     1      -2.090  -5.008 -17.910  0.00  0.00    -0.372 N 
ATOM      3  N   UNL     1      -2.435  -7.063 -16.950  0.00  0.00    -0.372 N 
ATOM      4  C   UNL     1      -2.932  -5.997 -17.587  0.00  0.00    +0.166 C 
ATOM      5  H   UNL     1      -4.548  -5.049 -18.361  0.00  0.00    +0.163 HD
ATOM      6  H   UNL     1      -1.105  -5.057 -17.685  0.00  0.00    +0.159 HD
ATOM      7  H   UNL     1      -2.403  -4.183 -18.406  0.00  0.00    +0.159 HD
ATOM      8  H   UNL     1      -3.019  -7.842 -16.674  0.00  0.00    +0.159 HD
ATOM      9  H   UNL     1      -1.455  -7.126 -16.707  0.00  0.00    +0.159 HD
ENDROOT
BRANCH   1  10
ATOM     10  C   UNL     1      -5.218  -6.941 -17.647  0.00  0.00    +0.151 C 
BRANCH  10  11
ATOM     11  C   UNL     1      -6.557  -6.301 -17.403  0.00  0.00    -0.028 A 
ATOM     12  C   UNL     1      -7.052  -5.329 -18.285  0.00  0.00    +0.005 A 
ATOM     13  C   UNL     1      -7.337  -6.666 -16.295  0.00  0.00    +0.005 A 
ATOM     14  C   UNL     1      -8.309  -4.756 -18.075  0.00  0.00    +0.000 A 
ATOM     15  C   UNL     1      -8.591  -6.090 -16.089  0.00  0.00    +0.000 A 
ATOM     16  C   UNL     1      -9.077  -5.137 -16.981  0.00  0.00    +0.000 A 
ENDBRANCH  10  11
ENDBRANCH   1  10
TORSDOF 2
ENDMDL
MODEL 6
REMARK VINA RESULT:    -4.450     24.072     25.159
REMARK INTER + INTRA:          -5.100
REMARK INTER:                  -4.977
REMARK INTRA:                  -0.123
REMARK UNBOUND:                -0.130
REMARK  Name = 1550473
REMARK  2 active torsions:
REMARK  status: ('A' for Active; 'I' for Inactive)
REMARK    1  A    between atoms: N_1  and  C_4
REMARK    2  A    between atoms: C_4  and  C_5
REMARK                            x       y       z     vdW  Elec       q    Type
REMARK                         _______ _______ _______ _____ _____    ______ ____
ROOT
ATOM      1  N   UNL     1      11.593   8.966  -9.120  0.00  0.00    -0.354 N 
ATOM      2  N   UNL     1      10.098  10.647  -9.673  0.00  0.00    -0.372 N 
ATOM      3  N   UNL     1      10.348   8.870 -11.103  0.00  0.00    -0.372 N 
ATOM      4  C   UNL     1      10.689   9.482  -9.964  0.00  0.00    +0.166 C 
ATOM      5  H   UNL     1      11.830   9.494  -8.288  0.00  0.00    +0.163 HD
ATOM      6  H   UNL     1       9.410  11.059 -10.289  0.00  0.00    +0.159 HD
ATOM      7  H   UNL     1      10.304  11.150  -8.818  0.00  0.00    +0.159 HD
ATOM      8  H   UNL     1      10.762   7.991 -11.384  0.00  0.00    +0.159 HD
ATOM      9  H   UNL     1       9.670   9.272 -11.738  0.00  0.00    +0.159 HD
ENDROOT
BRANCH   1  10
ATOM     10  C   UNL     1      12.254   7.678  -9.317  0.00  0.00    +0.151 C 
BRANCH  10  11
ATOM     11  C   UNL     1      13.077   7.356  -8.100  0.00  0.00    -0.028 A 
ATOM     12  C   UNL     1      13.285   8.323  -7.106  0.00  0.00    +0.005 A 
ATOM     13  C   UNL     1      13.647   6.085  -7.933  0.00  0.00    +0.005 A 
ATOM     14  C   UNL     1      14.024   8.016  -5.961  0.00  0.00    +0.000 A 
ATOM     15  C   UNL     1      14.385   5.782  -6.789  0.00  0.00    +0.000 A 
ATOM     16  C   UNL     1      14.572   6.747  -5.802  0.00  0.00    +0.000 A 
ENDBRANCH  10  11
ENDBRANCH   1  10
TORSDOF 2
ENDMDL
MODEL 7
REMARK VINA RESULT:    -4.449     24.552     26.026
REMARK INTER + INTRA:          -5.099
REMARK INTER:                  -4.931
REMARK INTRA:                  -0.167
REMARK UNBOUND:                -0.130
REMARK  Name = 1550473
REMARK  2 active torsions:
REMARK  status: ('A' for Active; 'I' for Inactive)
REMARK    1  A    between atoms: N_1  and  C_4
REMARK    2  A    between atoms: C_4  and  C_5
REMARK                            x       y       z     vdW  Elec       q    Type
REMARK                         _______ _______ _______ _____ _____    ______ ____
ROOT
ATOM      1  N   UNL     1      -6.120   7.905  12.059  0.00  0.00    -0.354 N 
ATOM      2  N   UNL     1      -8.341   8.071  12.694  0.00  0.00    -0.372 N 
ATOM      3  N   UNL     1      -7.076   9.982  12.574  0.00  0.00    -0.372 N 
ATOM      4  C   UNL     1      -7.164   8.654  12.438  0.00  0.00    +0.166 C 
ATOM      5  H   UNL     1      -6.243   6.901  12.004  0.00  0.00    +0.163 HD
ATOM      6  H   UNL     1      -9.147   8.611  12.978  0.00  0.00    +0.159 HD
ATOM      7  H   UNL     1      -8.474   7.072  12.593  0.00  0.00    +0.159 HD
ATOM      8  H   UNL     1      -6.214  10.482  12.402  0.00  0.00    +0.159 HD
ATOM      9  H   UNL     1      -7.869  10.538  12.869  0.00  0.00    +0.159 HD
ENDROOT
BRANCH   1  10
ATOM     10  C   UNL     1      -4.809   8.448  11.706  0.00  0.00    +0.151 C 
BRANCH  10  11
ATOM     11  C   UNL     1      -4.648   8.410  10.211  0.00  0.00    -0.028 A 
ATOM     12  C   UNL     1      -4.899   7.228   9.498  0.00  0.00    +0.005 A 
ATOM     13  C   UNL     1      -4.251   9.554   9.501  0.00  0.00    +0.005 A 
ATOM     14  C   UNL     1      -4.779   7.200   8.107  0.00  0.00    +0.000 A 
ATOM     15  C   UNL     1      -4.132   9.521   8.112  0.00  0.00    +0.000 A 
ATOM     16  C   UNL     1      -4.398   8.345   7.415  0.00  0.00    +0.000 A 
ENDBRANCH  10  11
ENDBRANCH   1  10
TORSDOF 2
ENDMDL
MODEL 8
REMARK VINA RESULT:    -4.270     15.986     16.440
REMARK INTER + INTRA:          -4.899
REMARK INTER:                  -4.785
REMARK INTRA:                  -0.115
REMARK UNBOUND:                -0.130
REMARK  Name = 1550473
REMARK  2 active torsions:
REMARK  status: ('A' for Active; 'I' for Inactive)
REMARK    1  A    between atoms: N_1  and  C_4
REMARK    2  A    between atoms: C_4  and  C_5
REMARK                            x       y       z     vdW  Elec       q    Type
REMARK                         _______ _______ _______ _____ _____    ______ ____
ROOT
ATOM      1  N   UNL     1      -9.682 -14.976  -0.832  0.00  0.00    -0.354 N 
ATOM      2  N   UNL     1      -8.737 -16.111   0.952  0.00  0.00    -0.372 N 
ATOM      3  N   UNL     1      -7.676 -14.247   0.136  0.00  0.00    -0.372 N 
ATOM      4  C   UNL     1      -8.702 -15.102   0.073  0.00  0.00    +0.166 C 
ATOM      5  H   UNL     1     -10.416 -15.674  -0.847  0.00  0.00    +0.163 HD
ATOM      6  H   UNL     1      -8.013 -16.230   1.648  0.00  0.00    +0.159 HD
ATOM      7  H   UNL     1      -9.496 -16.782   0.964  0.00  0.00    +0.159 HD
ATOM      8  H   UNL     1      -7.588 -13.468  -0.502  0.00  0.00    +0.159 HD
ATOM      9  H   UNL     1      -6.936 -14.356   0.819  0.00  0.00    +0.159 HD
ENDROOT
BRANCH   1  10
ATOM     10  C   UNL     1      -9.767 -13.882  -1.798  0.00  0.00    +0.151 C 
BRANCH  10  11
ATOM     11  C   UNL     1     -10.752 -14.251  -2.873  0.00  0.00    -0.028 A 
ATOM     12  C   UNL     1     -11.668 -13.305  -3.354  0.00  0.00    +0.005 A 
ATOM     13  C   UNL     1     -10.769 -15.544  -3.418  0.00  0.00    +0.005 A 
ATOM     14  C   UNL     1     -12.563 -13.638  -4.373  0.00  0.00    +0.000 A 
ATOM     15  C   UNL     1     -11.665 -15.873  -4.436  0.00  0.00    +0.000 A 
ATOM     16  C   UNL     1     -12.560 -14.919  -4.914  0.00  0.00    +0.000 A 
ENDBRANCH  10  11
ENDBRANCH   1  10
TORSDOF 2
ENDMDL
MODEL 9
REMARK VINA RESULT:    -4.198      9.360     12.669
REMARK INTER + INTRA:          -4.819
REMARK INTER:                  -4.695
REMARK INTRA:                  -0.123
REMARK UNBOUND:                -0.130
REMARK  Name = 1550473
REMARK  2 active torsions:
REMARK  status: ('A' for Active; 'I' for Inactive)
REMARK    1  A    between atoms: N_1  and  C_4
REMARK    2  A    between atoms: C_4  and  C_5
REMARK                            x       y       z     vdW  Elec       q    Type
REMARK                         _______ _______ _______ _____ _____    ______ ____
ROOT
ATOM      1  N   UNL     1       0.526  -6.436   7.275  0.00  0.00    -0.354 N 
ATOM      2  N   UNL     1       0.932  -8.208   5.839  0.00  0.00    -0.372 N 
ATOM      3  N   UNL     1       2.638  -6.746   6.307  0.00  0.00    -0.372 N 
ATOM      4  C   UNL     1       1.365  -7.117   6.483  0.00  0.00    +0.166 C 
ATOM      5  H   UNL     1      -0.435  -6.752   7.342  0.00  0.00    +0.163 HD
ATOM      6  H   UNL     1       1.543  -8.744   5.237  0.00  0.00    +0.159 HD
ATOM      7  H   UNL     1      -0.017  -8.547   5.944  0.00  0.00    +0.159 HD
ATOM      8  H   UNL     1       3.025  -5.929   6.760  0.00  0.00    +0.159 HD
ATOM      9  H   UNL     1       3.261  -7.263   5.700  0.00  0.00    +0.159 HD
ENDROOT
BRANCH   1  10
ATOM     10  C   UNL     1       0.912  -5.267   8.062  0.00  0.00    +0.151 C 
BRANCH  10  11
ATOM     11  C   UNL     1      -0.327  -4.597   8.587  0.00  0.00    -0.028 A 
ATOM     12  C   UNL     1      -0.242  -3.645   9.613  0.00  0.00    +0.005 A 
ATOM     13  C   UNL     1      -1.590  -4.904   8.057  0.00  0.00    +0.005 A 
ATOM     14  C   UNL     1      -1.389  -2.999  10.080  0.00  0.00    +0.000 A 
ATOM     15  C   UNL     1      -2.734  -4.259   8.527  0.00  0.00    +0.000 A 
ATOM     16  C   UNL     1      -2.633  -3.305   9.536  0.00  0.00    +0.000 A 
ENDBRANCH  10  11
ENDBRANCH   1  10
TORSDOF 2
ENDMDL
