MODEL 1
REMARK VINA RESULT:    -4.970      0.000      0.000
REMARK INTER + INTRA:          -5.715
REMARK INTER:                  -5.551
REMARK INTRA:                  -0.164
REMARK UNBOUND:                -0.164
REMARK  Name = 1550473
REMARK  2 active torsions:
REMARK  status: ('A' for Active; 'I' for Inactive)
REMARK    1  A    between atoms: N_1  and  C_4
REMARK    2  A    between atoms: C_4  and  C_5
REMARK                            x       y       z     vdW  Elec       q    Type
REMARK                         _______ _______ _______ _____ _____    ______ ____
ROOT
ATOM      1  N   UNL     1     -17.211 -18.916 -10.771  0.00  0.00    -0.354 N 
ATOM      2  N   UNL     1     -15.391 -20.093 -11.587  0.00  0.00    -0.372 N 
ATOM      3  N   UNL     1     -17.070 -19.503 -13.036  0.00  0.00    -0.372 N 
ATOM      4  C   UNL     1     -16.571 -19.496 -11.795  0.00  0.00    +0.166 C 
ATOM      5  H   UNL     1     -16.794 -18.972  -9.849  0.00  0.00    +0.163 HD
ATOM      6  H   UNL     1     -14.883 -20.536 -12.341  0.00  0.00    +0.159 HD
ATOM      7  H   UNL     1     -14.955 -20.107 -10.673  0.00  0.00    +0.159 HD
ATOM      8  H   UNL     1     -17.959 -19.075 -13.258  0.00  0.00    +0.159 HD
ATOM      9  H   UNL     1     -16.582 -19.951 -13.801  0.00  0.00    +0.159 HD
ENDROOT
BRANCH   1  10
ATOM     10  C   UNL     1     -18.475 -18.193 -10.902  0.00  0.00    +0.151 C 
BRANCH  10  11
ATOM     11  C   UNL     1     -19.595 -19.069 -10.410  0.00  0.00    -0.028 A 
ATOM     12  C   UNL     1     -19.395 -19.941  -9.330  0.00  0.00    +0.005 A 
ATOM     13  C   UNL     1     -20.859 -19.027 -11.017  0.00  0.00    +0.005 A 
ATOM     14  C   UNL     1     -20.443 -20.732  -8.853  0.00  0.00    +0.000 A 
ATOM     15  C   UNL     1     -21.903 -19.820 -10.539  0.00  0.00    +0.000 A 
ATOM     16  C   UNL     1     -21.695 -20.670  -9.456  0.00  0.00    +0.000 A 
ENDBRANCH  10  11
ENDBRANCH   1  10
TORSDOF 2
ENDMDL
MODEL 2
REMARK VINA RESULT:    -4.762     27.411     28.592
REMARK INTER + INTRA:          -5.483
REMARK INTER:                  -5.384
REMARK INTRA:                  -0.099
REMARK UNBOUND:                -0.164
REMARK  Name = 1550473
REMARK  2 active torsions:
REMARK  status: ('A' for Active; 'I' for Inactive)
REMARK    1  A    between atoms: N_1  and  C_4
REMARK    2  A    between atoms: C_4  and  C_5
REMARK                            x       y       z     vdW  Elec       q    Type
REMARK                         _______ _______ _______ _____ _____    ______ ____
ROOT
ATOM      1  N   UNL     1      10.049 -17.661 -12.349  0.00  0.00    -0.354 N 
ATOM      2  N   UNL     1       9.916 -16.849 -14.513  0.00  0.00    -0.372 N 
ATOM      3  N   UNL     1      11.557 -16.045 -13.126  0.00  0.00    -0.372 N 
ATOM      4  C   UNL     1      10.510 -16.855 -13.314  0.00  0.00    +0.166 C 
ATOM      5  H   UNL     1       9.233 -18.230 -12.545  0.00  0.00    +0.163 HD
ATOM      6  H   UNL     1      10.244 -16.254 -15.262  0.00  0.00    +0.159 HD
ATOM      7  H   UNL     1       9.129 -17.452 -14.721  0.00  0.00    +0.159 HD
ATOM      8  H   UNL     1      12.045 -15.998 -12.242  0.00  0.00    +0.159 HD
ATOM      9  H   UNL     1      11.892 -15.433 -13.859  0.00  0.00    +0.159 HD
ENDROOT
BRANCH   1  10
ATOM     10  C   UNL     1      10.657 -17.783 -11.025  0.00  0.00    +0.151 C 
BRANCH  10  11
ATOM     11  C   UNL     1       9.591 -18.134 -10.024  0.00  0.00    -0.028 A 
ATOM     12  C   UNL     1       9.013 -19.412 -10.018  0.00  0.00    +0.005 A 
ATOM     13  C   UNL     1       9.157 -17.194  -9.077  0.00  0.00    +0.005 A 
ATOM     14  C   UNL     1       8.044 -19.748  -9.069  0.00  0.00    +0.000 A 
ATOM     15  C   UNL     1       8.189 -17.533  -8.132  0.00  0.00    +0.000 A 
ATOM     16  C   UNL     1       7.634 -18.810  -8.127  0.00  0.00    +0.000 A 
ENDBRANCH  10  11
ENDBRANCH   1  10
TORSDOF 2
ENDMDL
MODEL 3
REMARK VINA RESULT:    -4.736     26.491     28.480
REMARK INTER + INTRA:          -5.454
REMARK INTER:                  -5.342
REMARK INTRA:                  -0.112
REMARK UNBOUND:                -0.164
REMARK  Name = 1550473
REMARK  2 active torsions:
REMARK  status: ('A' for Active; 'I' for Inactive)
REMARK    1  A    between atoms: N_1  and  C_4
REMARK    2  A    between atoms: C_4  and  C_5
REMARK                            x       y       z     vdW  Elec       q    Type
REMARK                         _______ _______ _______ _____ _____    ______ ____
ROOT
ATOM      1  N   UNL     1       3.711 -15.308   3.063  0.00  0.00    -0.354 N 
ATOM      2  N   UNL     1       1.892 -15.301   4.497  0.00  0.00    -0.372 N 
ATOM      3  N   UNL     1       1.836 -13.973   2.626  0.00  0.00    -0.372 N 
ATOM      4  C   UNL     1       2.491 -14.859   3.384  0.00  0.00    +0.166 C 
ATOM      5  H   UNL     1       4.167 -15.956   3.695  0.00  0.00    +0.163 HD
ATOM      6  H   UNL     1       0.970 -14.982   4.763  0.00  0.00    +0.159 HD
ATOM      7  H   UNL     1       2.331 -15.983   5.103  0.00  0.00    +0.159 HD
ATOM      8  H   UNL     1       2.235 -13.596   1.777  0.00  0.00    +0.159 HD
ATOM      9  H   UNL     1       0.917 -13.633   2.882  0.00  0.00    +0.159 HD
ENDROOT
BRANCH   1  10
ATOM     10  C   UNL     1       4.428 -14.931   1.846  0.00  0.00    +0.151 C 
BRANCH  10  11
ATOM     11  C   UNL     1       5.907 -15.041   2.093  0.00  0.00    -0.028 A 
ATOM     12  C   UNL     1       6.691 -15.922   1.334  0.00  0.00    +0.005 A 
ATOM     13  C   UNL     1       6.531 -14.264   3.080  0.00  0.00    +0.005 A 
ATOM     14  C   UNL     1       8.070 -16.003   1.542  0.00  0.00    +0.000 A 
ATOM     15  C   UNL     1       7.908 -14.348   3.286  0.00  0.00    +0.000 A 
ATOM     16  C   UNL     1       8.678 -15.216   2.515  0.00  0.00    +0.000 A 
ENDBRANCH  10  11
ENDBRANCH   1  10
TORSDOF 2
ENDMDL
MODEL 4
REMARK VINA RESULT:    -4.626      1.686      2.483
REMARK INTER + INTRA:          -5.331
REMARK INTER:                  -5.219
REMARK INTRA:                  -0.111
REMARK UNBOUND:                -0.164
REMARK  Name = 1550473
REMARK  2 active torsions:
REMARK  status: ('A' for Active; 'I' for Inactive)
REMARK    1  A    between atoms: N_1  and  C_4
REMARK    2  A    between atoms: C_4  and  C_5
REMARK                            x       y       z     vdW  Elec       q    Type
REMARK                         _______ _______ _______ _____ _____    ______ ____
ROOT
ATOM      1  N   UNL     1     -19.285 -18.964 -11.288  0.00  0.00    -0.354 N 
ATOM      2  N   UNL     1     -17.145 -18.712 -10.439  0.00  0.00    -0.372 N 
ATOM      3  N   UNL     1     -17.402 -19.295 -12.643  0.00  0.00    -0.372 N 
ATOM      4  C   UNL     1     -17.957 -18.993 -11.465  0.00  0.00    +0.166 C 
ATOM      5  H   UNL     1     -19.643 -18.758 -10.362  0.00  0.00    +0.163 HD
ATOM      6  H   UNL     1     -16.139 -18.722 -10.543  0.00  0.00    +0.159 HD
ATOM      7  H   UNL     1     -17.506 -18.461  -9.526  0.00  0.00    +0.159 HD
ATOM      8  H   UNL     1     -17.960 -19.522 -13.455  0.00  0.00    +0.159 HD
ATOM      9  H   UNL     1     -16.397 -19.322 -12.764  0.00  0.00    +0.159 HD
ENDROOT
BRANCH   1  10
ATOM     10  C   UNL     1     -20.257 -19.202 -12.353  0.00  0.00    +0.151 C 
BRANCH  10  11
ATOM     11  C   UNL     1     -21.643 -19.156 -11.773  0.00  0.00    -0.028 A 
ATOM     12  C   UNL     1     -21.923 -19.779 -10.548  0.00  0.00    +0.005 A 
ATOM     13  C   UNL     1     -22.681 -18.486 -12.440  0.00  0.00    +0.005 A 
ATOM     14  C   UNL     1     -23.203 -19.711  -9.993  0.00  0.00    +0.000 A 
ATOM     15  C   UNL     1     -23.958 -18.421 -11.883  0.00  0.00    +0.000 A 
ATOM     16  C   UNL     1     -24.218 -19.032 -10.659  0.00  0.00    +0.000 A 
ENDBRANCH  10  11
ENDBRANCH   1  10
TORSDOF 2
ENDMDL
MODEL 5
REMARK VINA RESULT:    -4.311      1.373      2.439
REMARK INTER + INTRA:          -4.980
REMARK INTER:                  -4.858
REMARK INTRA:                  -0.121
REMARK UNBOUND:                -0.164
REMARK  Name = 1550473
REMARK  2 active torsions:
REMARK  status: ('A' for Active; 'I' for Inactive)
REMARK    1  A    between atoms: N_1  and  C_4
REMARK    2  A    between atoms: C_4  and  C_5
REMARK                            x       y       z     vdW  Elec       q    Type
REMARK                         _______ _______ _______ _____ _____    ______ ____
ROOT
ATOM      1  N   UNL     1     -18.813 -19.294 -10.185  0.00  0.00    -0.354 N 
ATOM      2  N   UNL     1     -16.638 -18.546 -10.459  0.00  0.00    -0.372 N 
ATOM      3  N   UNL     1     -17.853 -19.129 -12.317  0.00  0.00    -0.372 N 
ATOM      4  C   UNL     1     -17.783 -18.995 -10.988  0.00  0.00    +0.166 C 
ATOM      5  H   UNL     1     -18.686 -19.199  -9.184  0.00  0.00    +0.163 HD
ATOM      6  H   UNL     1     -15.845 -18.309 -11.040  0.00  0.00    +0.159 HD
ATOM      7  H   UNL     1     -16.530 -18.408  -9.462  0.00  0.00    +0.159 HD
ATOM      8  H   UNL     1     -18.686 -19.469 -12.778  0.00  0.00    +0.159 HD
ATOM      9  H   UNL     1     -17.066 -18.908 -12.914  0.00  0.00    +0.159 HD
ENDROOT
BRANCH   1  10
ATOM     10  C   UNL     1     -20.120 -19.740 -10.664  0.00  0.00    +0.151 C 
BRANCH  10  11
ATOM     11  C   UNL     1     -20.973 -20.118  -9.485  0.00  0.00    -0.028 A 
ATOM     12  C   UNL     1     -22.361 -20.256  -9.625  0.00  0.00    +0.005 A 
ATOM     13  C   UNL     1     -20.397 -20.345  -8.225  0.00  0.00    +0.005 A 
ATOM     14  C   UNL     1     -23.150 -20.637  -8.536  0.00  0.00    +0.000 A 
ATOM     15  C   UNL     1     -21.188 -20.724  -7.141  0.00  0.00    +0.000 A 
ATOM     16  C   UNL     1     -22.564 -20.872  -7.297  0.00  0.00    +0.000 A 
ENDBRANCH  10  11
ENDBRANCH   1  10
TORSDOF 2
ENDMDL
MODEL 6
REMARK VINA RESULT:    -4.297     23.569     24.592
REMARK INTER + INTRA:          -4.963
REMARK INTER:                  -4.868
REMARK INTRA:                  -0.096
REMARK UNBOUND:                -0.164
REMARK  Name = 1550473
REMARK  2 active torsions:
REMARK  status: ('A' for Active; 'I' for Inactive)
REMARK    1  A    between atoms: N_1  and  C_4
REMARK    2  A    between atoms: C_4  and  C_5
REMARK                            x       y       z     vdW  Elec       q    Type
REMARK                         _______ _______ _______ _____ _____    ______ ____
ROOT
ATOM      1  N   UNL     1     -14.803   3.628 -11.926  0.00  0.00    -0.354 N 
ATOM      2  N   UNL     1     -15.063   2.743 -14.050  0.00  0.00    -0.372 N 
ATOM      3  N   UNL     1     -16.087   4.733 -13.545  0.00  0.00    -0.372 N 
ATOM      4  C   UNL     1     -15.318   3.709 -13.160  0.00  0.00    +0.166 C 
ATOM      5  H   UNL     1     -14.252   2.812 -11.687  0.00  0.00    +0.163 HD
ATOM      6  H   UNL     1     -15.434   2.779 -14.990  0.00  0.00    +0.159 HD
ATOM      7  H   UNL     1     -14.474   1.951 -13.823  0.00  0.00    +0.159 HD
ATOM      8  H   UNL     1     -16.322   5.491 -12.919  0.00  0.00    +0.159 HD
ATOM      9  H   UNL     1     -16.479   4.780 -14.477  0.00  0.00    +0.159 HD
ENDROOT
BRANCH   1  10
ATOM     10  C   UNL     1     -14.976   4.654 -10.899  0.00  0.00    +0.151 C 
BRANCH  10  11
ATOM     11  C   UNL     1     -13.853   4.547  -9.904  0.00  0.00    -0.028 A 
ATOM     12  C   UNL     1     -13.851   3.529  -8.939  0.00  0.00    +0.005 A 
ATOM     13  C   UNL     1     -12.785   5.457  -9.925  0.00  0.00    +0.005 A 
ATOM     14  C   UNL     1     -12.794   3.411  -8.034  0.00  0.00    +0.000 A 
ATOM     15  C   UNL     1     -11.731   5.336  -9.019  0.00  0.00    +0.000 A 
ATOM     16  C   UNL     1     -11.735   4.312  -8.075  0.00  0.00    +0.000 A 
ENDBRANCH  10  11
ENDBRANCH   1  10
TORSDOF 2
ENDMDL
MODEL 7
REMARK VINA RESULT:    -4.252     27.813     29.160
REMARK INTER + INTRA:          -4.913
REMARK INTER:                  -4.795
REMARK INTRA:                  -0.118
REMARK UNBOUND:                -0.164
REMARK  Name = 1550473
REMARK  2 active torsions:
REMARK  status: ('A' for Active; 'I' for Inactive)
REMARK    1  A    between atoms: N_1  and  C_4
REMARK    2  A    between atoms: C_4  and  C_5
REMARK                            x       y       z     vdW  Elec       q    Type
REMARK                         _______ _______ _______ _____ _____    ______ ____
ROOT
ATOM      1  N   UNL     1      -7.372   1.013   3.408  0.00  0.00    -0.354 N 
ATOM      2  N   UNL     1      -7.010  -1.252   3.092  0.00  0.00    -0.372 N 
ATOM      3  N   UNL     1      -9.124  -0.414   2.789  0.00  0.00    -0.372 N 
ATOM      4  C   UNL     1      -7.840  -0.203   3.098  0.00  0.00    +0.166 C 
ATOM      5  H   UNL     1      -6.395   1.102   3.662  0.00  0.00    +0.163 HD
ATOM      6  H   UNL     1      -7.334  -2.181   2.859  0.00  0.00    +0.159 HD
ATOM      7  H   UNL     1      -6.024  -1.153   3.302  0.00  0.00    +0.159 HD
ATOM      8  H   UNL     1      -9.803   0.335   2.782  0.00  0.00    +0.159 HD
ATOM      9  H   UNL     1      -9.470  -1.339   2.565  0.00  0.00    +0.159 HD
ENDROOT
BRANCH   1  10
ATOM     10  C   UNL     1      -8.182   2.230   3.391  0.00  0.00    +0.151 C 
BRANCH  10  11
ATOM     11  C   UNL     1      -7.276   3.425   3.512  0.00  0.00    -0.028 A 
ATOM     12  C   UNL     1      -7.685   4.679   3.036  0.00  0.00    +0.005 A 
ATOM     13  C   UNL     1      -6.010   3.310   4.106  0.00  0.00    +0.005 A 
ATOM     14  C   UNL     1      -6.856   5.795   3.175  0.00  0.00    +0.000 A 
ATOM     15  C   UNL     1      -5.185   4.426   4.242  0.00  0.00    +0.000 A 
ATOM     16  C   UNL     1      -5.610   5.669   3.778  0.00  0.00    +0.000 A 
ENDBRANCH  10  11
ENDBRANCH   1  10
TORSDOF 2
ENDMDL
MODEL 8
REMARK VINA RESULT:    -4.252     28.047     29.330
REMARK INTER + INTRA:          -4.913
REMARK INTER:                  -4.774
REMARK INTRA:                  -0.139
REMARK UNBOUND:                -0.164
REMARK  Name = 1550473
REMARK  2 active torsions:
REMARK  status: ('A' for Active; 'I' for Inactive)
REMARK    1  A    between atoms: N_1  and  C_4
REMARK    2  A    between atoms: C_4  and  C_5
REMARK                            x       y       z     vdW  Elec       q    Type
REMARK                         _______ _______ _______ _____ _____    ______ ____
ROOT
ATOM      1  N   UNL     1      -8.864   1.520   3.683  0.00  0.00    -0.354 N 
ATOM      2  N   UNL     1      -8.791  -0.456   2.477  0.00  0.00    -0.372 N 
ATOM      3  N   UNL     1      -9.522   1.454   1.435  0.00  0.00    -0.372 N 
ATOM      4  C   UNL     1      -9.061   0.854   2.537  0.00  0.00    +0.166 C 
ATOM      5  H   UNL     1      -8.541   1.001   4.492  0.00  0.00    +0.163 HD
ATOM      6  H   UNL     1      -8.927  -0.984   1.625  0.00  0.00    +0.159 HD
ATOM      7  H   UNL     1      -8.425  -0.962   3.274  0.00  0.00    +0.159 HD
ATOM      8  H   UNL     1      -9.749   2.439   1.416  0.00  0.00    +0.159 HD
ATOM      9  H   UNL     1      -9.675   0.940   0.576  0.00  0.00    +0.159 HD
ENDROOT
BRANCH   1  10
ATOM     10  C   UNL     1      -9.075   2.958   3.839  0.00  0.00    +0.151 C 
BRANCH  10  11
ATOM     11  C   UNL     1      -7.845   3.571   4.450  0.00  0.00    -0.028 A 
ATOM     12  C   UNL     1      -6.568   3.202   4.001  0.00  0.00    +0.005 A 
ATOM     13  C   UNL     1      -7.949   4.526   5.472  0.00  0.00    +0.005 A 
ATOM     14  C   UNL     1      -5.426   3.794   4.547  0.00  0.00    +0.000 A 
ATOM     15  C   UNL     1      -6.807   5.114   6.015  0.00  0.00    +0.000 A 
ATOM     16  C   UNL     1      -5.546   4.750   5.551  0.00  0.00    +0.000 A 
ENDBRANCH  10  11
ENDBRANCH   1  10
TORSDOF 2
ENDMDL
MODEL 9
REMARK VINA RESULT:    -4.132     21.136     22.225
REMARK INTER + INTRA:          -4.779
REMARK INTER:                  -4.640
REMARK INTRA:                  -0.139
REMARK UNBOUND:                -0.164
REMARK  Name = 1550473
REMARK  2 active torsions:
REMARK  status: ('A' for Active; 'I' for Inactive)
REMARK    1  A    between atoms: N_1  and  C_4
REMARK    2  A    between atoms: C_4  and  C_5
REMARK                            x       y       z     vdW  Elec       q    Type
REMARK                         _______ _______ _______ _____ _____    ______ ____
ROOT
ATOM      1  N   UNL     1      -6.489 -21.034   8.165  0.00  0.00    -0.354 N 
ATOM      2  N   UNL     1      -8.142 -20.713   9.754  0.00  0.00    -0.372 N 
ATOM      3  N   UNL     1      -6.517 -22.284  10.147  0.00  0.00    -0.372 N 
ATOM      4  C   UNL     1      -7.037 -21.348   9.346  0.00  0.00    +0.166 C 
ATOM      5  H   UNL     1      -6.948 -20.337   7.591  0.00  0.00    +0.163 HD
ATOM      6  H   UNL     1      -8.576 -20.926  10.642  0.00  0.00    +0.159 HD
ATOM      7  H   UNL     1      -8.573 -19.983   9.199  0.00  0.00    +0.159 HD
ATOM      8  H   UNL     1      -5.687 -22.804   9.894  0.00  0.00    +0.159 HD
ATOM      9  H   UNL     1      -6.943 -22.520  11.034  0.00  0.00    +0.159 HD
ENDROOT
BRANCH   1  10
ATOM     10  C   UNL     1      -5.255 -21.629   7.652  0.00  0.00    +0.151 C 
BRANCH  10  11
ATOM     11  C   UNL     1      -5.426 -21.927   6.188  0.00  0.00    -0.028 A 
ATOM     12  C   UNL     1      -4.316 -22.250   5.393  0.00  0.00    +0.005 A 
ATOM     13  C   UNL     1      -6.695 -21.894   5.590  0.00  0.00    +0.005 A 
ATOM     14  C   UNL     1      -4.478 -22.556   4.039  0.00  0.00    +0.000 A 
ATOM     15  C   UNL     1      -6.852 -22.199   4.238  0.00  0.00    +0.000 A 
ATOM     16  C   UNL     1      -5.744 -22.533   3.464  0.00  0.00    +0.000 A 
ENDBRANCH  10  11
ENDBRANCH   1  10
TORSDOF 2
ENDMDL
