MODEL 1
REMARK VINA RESULT:    -5.168      0.000      0.000
REMARK INTER + INTRA:          -5.843
REMARK INTER:                  -5.773
REMARK INTRA:                  -0.070
REMARK UNBOUND:                -0.070
REMARK  Name = 1550473
REMARK  2 active torsions:
REMARK  status: ('A' for Active; 'I' for Inactive)
REMARK    1  A    between atoms: N_1  and  C_4
REMARK    2  A    between atoms: C_4  and  C_5
REMARK                            x       y       z     vdW  Elec       q    Type
REMARK                         _______ _______ _______ _____ _____    ______ ____
ROOT
ATOM      1  N   UNL     1      13.289   6.541  12.625  0.00  0.00    -0.354 N 
ATOM      2  N   UNL     1      15.309   7.209  11.709  0.00  0.00    -0.372 N 
ATOM      3  N   UNL     1      15.018   5.001  12.261  0.00  0.00    -0.372 N 
ATOM      4  C   UNL     1      14.526   6.244  12.205  0.00  0.00    +0.166 C 
ATOM      5  H   UNL     1      12.987   7.508  12.583  0.00  0.00    +0.163 HD
ATOM      6  H   UNL     1      16.246   7.014  11.381  0.00  0.00    +0.159 HD
ATOM      7  H   UNL     1      14.988   8.166  11.626  0.00  0.00    +0.159 HD
ATOM      8  H   UNL     1      14.480   4.229  12.630  0.00  0.00    +0.159 HD
ATOM      9  H   UNL     1      15.957   4.788  11.949  0.00  0.00    +0.159 HD
ENDROOT
BRANCH   1  10
ATOM     10  C   UNL     1      12.338   5.554  13.131  0.00  0.00    +0.151 C 
BRANCH  10  11
ATOM     11  C   UNL     1      11.270   5.326  12.097  0.00  0.00    -0.028 A 
ATOM     12  C   UNL     1      10.124   4.579  12.410  0.00  0.00    +0.005 A 
ATOM     13  C   UNL     1      11.394   5.859  10.805  0.00  0.00    +0.005 A 
ATOM     14  C   UNL     1       9.118   4.392  11.459  0.00  0.00    +0.000 A 
ATOM     15  C   UNL     1      10.388   5.669   9.859  0.00  0.00    +0.000 A 
ATOM     16  C   UNL     1       9.249   4.938  10.187  0.00  0.00    +0.000 A 
ENDBRANCH  10  11
ENDBRANCH   1  10
TORSDOF 2
ENDMDL
MODEL 2
REMARK VINA RESULT:    -5.095     26.073     27.706
REMARK INTER + INTRA:          -5.761
REMARK INTER:                  -5.593
REMARK INTRA:                  -0.168
REMARK UNBOUND:                -0.070
REMARK  Name = 1550473
REMARK  2 active torsions:
REMARK  status: ('A' for Active; 'I' for Inactive)
REMARK    1  A    between atoms: N_1  and  C_4
REMARK    2  A    between atoms: C_4  and  C_5
REMARK                            x       y       z     vdW  Elec       q    Type
REMARK                         _______ _______ _______ _____ _____    ______ ____
ROOT
ATOM      1  N   UNL     1      -4.354  -2.341 -10.038  0.00  0.00    -0.354 N 
ATOM      2  N   UNL     1      -5.778  -2.636 -11.840  0.00  0.00    -0.372 N 
ATOM      3  N   UNL     1      -4.734  -4.470 -10.939  0.00  0.00    -0.372 N 
ATOM      4  C   UNL     1      -4.945  -3.150 -10.927  0.00  0.00    +0.166 C 
ATOM      5  H   UNL     1      -4.531  -1.345 -10.101  0.00  0.00    +0.163 HD
ATOM      6  H   UNL     1      -6.241  -3.222 -12.522  0.00  0.00    +0.159 HD
ATOM      7  H   UNL     1      -5.990  -1.646 -11.871  0.00  0.00    +0.159 HD
ATOM      8  H   UNL     1      -4.112  -4.919 -10.280  0.00  0.00    +0.159 HD
ATOM      9  H   UNL     1      -5.179  -5.072 -11.621  0.00  0.00    +0.159 HD
ENDROOT
BRANCH   1  10
ATOM     10  C   UNL     1      -3.472  -2.806  -8.969  0.00  0.00    +0.151 C 
BRANCH  10  11
ATOM     11  C   UNL     1      -2.066  -2.357  -9.261  0.00  0.00    -0.028 A 
ATOM     12  C   UNL     1      -1.511  -1.265  -8.578  0.00  0.00    +0.005 A 
ATOM     13  C   UNL     1      -1.283  -3.023 -10.216  0.00  0.00    +0.005 A 
ATOM     14  C   UNL     1      -0.196  -0.867  -8.827  0.00  0.00    +0.000 A 
ATOM     15  C   UNL     1       0.030  -2.622 -10.463  0.00  0.00    +0.000 A 
ATOM     16  C   UNL     1       0.574  -1.545  -9.767  0.00  0.00    +0.000 A 
ENDBRANCH  10  11
ENDBRANCH   1  10
TORSDOF 2
ENDMDL
MODEL 3
REMARK VINA RESULT:    -4.978      9.581     11.095
REMARK INTER + INTRA:          -5.630
REMARK INTER:                  -5.463
REMARK INTRA:                  -0.167
REMARK UNBOUND:                -0.070
REMARK  Name = 1550473
REMARK  2 active torsions:
REMARK  status: ('A' for Active; 'I' for Inactive)
REMARK    1  A    between atoms: N_1  and  C_4
REMARK    2  A    between atoms: C_4  and  C_5
REMARK                            x       y       z     vdW  Elec       q    Type
REMARK                         _______ _______ _______ _____ _____    ______ ____
ROOT
ATOM      1  N   UNL     1       5.899   1.418   4.894  0.00  0.00    -0.354 N 
ATOM      2  N   UNL     1       5.058   3.522   5.374  0.00  0.00    -0.372 N 
ATOM      3  N   UNL     1       7.294   3.120   5.698  0.00  0.00    -0.372 N 
ATOM      4  C   UNL     1       6.092   2.673   5.320  0.00  0.00    +0.166 C 
ATOM      5  H   UNL     1       4.958   1.131   4.650  0.00  0.00    +0.163 HD
ATOM      6  H   UNL     1       5.174   4.476   5.688  0.00  0.00    +0.159 HD
ATOM      7  H   UNL     1       4.127   3.246   5.086  0.00  0.00    +0.159 HD
ATOM      8  H   UNL     1       8.114   2.528   5.686  0.00  0.00    +0.159 HD
ATOM      9  H   UNL     1       7.428   4.069   6.026  0.00  0.00    +0.159 HD
ENDROOT
BRANCH   1  10
ATOM     10  C   UNL     1       6.968   0.431   4.747  0.00  0.00    +0.151 C 
BRANCH  10  11
ATOM     11  C   UNL     1       7.441   0.429   3.319  0.00  0.00    -0.028 A 
ATOM     12  C   UNL     1       8.809   0.344   3.022  0.00  0.00    +0.005 A 
ATOM     13  C   UNL     1       6.525   0.506   2.258  0.00  0.00    +0.005 A 
ATOM     14  C   UNL     1       9.247   0.312   1.696  0.00  0.00    +0.000 A 
ATOM     15  C   UNL     1       6.966   0.474   0.935  0.00  0.00    +0.000 A 
ATOM     16  C   UNL     1       8.327   0.374   0.655  0.00  0.00    +0.000 A 
ENDBRANCH  10  11
ENDBRANCH   1  10
TORSDOF 2
ENDMDL
MODEL 4
REMARK VINA RESULT:    -4.900      0.888      2.046
REMARK INTER + INTRA:          -5.543
REMARK INTER:                  -5.395
REMARK INTRA:                  -0.148
REMARK UNBOUND:                -0.070
REMARK  Name = 1550473
REMARK  2 active torsions:
REMARK  status: ('A' for Active; 'I' for Inactive)
REMARK    1  A    between atoms: N_1  and  C_4
REMARK    2  A    between atoms: C_4  and  C_5
REMARK                            x       y       z     vdW  Elec       q    Type
REMARK                         _______ _______ _______ _____ _____    ______ ____
ROOT
ATOM      1  N   UNL     1      13.710   5.352  10.839  0.00  0.00    -0.354 N 
ATOM      2  N   UNL     1      15.634   4.653  11.921  0.00  0.00    -0.372 N 
ATOM      3  N   UNL     1      14.786   6.731  12.399  0.00  0.00    -0.372 N 
ATOM      4  C   UNL     1      14.697   5.586  11.714  0.00  0.00    +0.166 C 
ATOM      5  H   UNL     1      13.716   4.476  10.329  0.00  0.00    +0.163 HD
ATOM      6  H   UNL     1      16.389   4.799  12.578  0.00  0.00    +0.159 HD
ATOM      7  H   UNL     1      15.612   3.760  11.444  0.00  0.00    +0.159 HD
ATOM      8  H   UNL     1      14.113   7.477  12.284  0.00  0.00    +0.159 HD
ATOM      9  H   UNL     1      15.541   6.901  13.052  0.00  0.00    +0.159 HD
ENDROOT
BRANCH   1  10
ATOM     10  C   UNL     1      12.610   6.280  10.580  0.00  0.00    +0.151 C 
BRANCH  10  11
ATOM     11  C   UNL     1      11.305   5.577  10.828  0.00  0.00    -0.028 A 
ATOM     12  C   UNL     1      10.438   5.288   9.763  0.00  0.00    +0.005 A 
ATOM     13  C   UNL     1      10.931   5.190  12.124  0.00  0.00    +0.005 A 
ATOM     14  C   UNL     1       9.239   4.608   9.989  0.00  0.00    +0.000 A 
ATOM     15  C   UNL     1       9.732   4.512  12.345  0.00  0.00    +0.000 A 
ATOM     16  C   UNL     1       8.888   4.219  11.278  0.00  0.00    +0.000 A 
ENDBRANCH  10  11
ENDBRANCH   1  10
TORSDOF 2
ENDMDL
MODEL 5
REMARK VINA RESULT:    -4.842      9.842     11.426
REMARK INTER + INTRA:          -5.478
REMARK INTER:                  -5.322
REMARK INTRA:                  -0.156
REMARK UNBOUND:                -0.070
REMARK  Name = 1550473
REMARK  2 active torsions:
REMARK  status: ('A' for Active; 'I' for Inactive)
REMARK    1  A    between atoms: N_1  and  C_4
REMARK    2  A    between atoms: C_4  and  C_5
REMARK                            x       y       z     vdW  Elec       q    Type
REMARK                         _______ _______ _______ _____ _____    ______ ____
ROOT
ATOM      1  N   UNL     1       6.469   1.732   4.380  0.00  0.00    -0.354 N 
ATOM      2  N   UNL     1       7.274   3.064   6.095  0.00  0.00    -0.372 N 
ATOM      3  N   UNL     1       5.125   3.384   5.358  0.00  0.00    -0.372 N 
ATOM      4  C   UNL     1       6.281   2.719   5.266  0.00  0.00    +0.166 C 
ATOM      5  H   UNL     1       7.379   1.287   4.341  0.00  0.00    +0.163 HD
ATOM      6  H   UNL     1       7.161   3.803   6.776  0.00  0.00    +0.159 HD
ATOM      7  H   UNL     1       8.167   2.587   6.084  0.00  0.00    +0.159 HD
ATOM      8  H   UNL     1       4.339   3.176   4.757  0.00  0.00    +0.159 HD
ATOM      9  H   UNL     1       4.996   4.135   6.025  0.00  0.00    +0.159 HD
ENDROOT
BRANCH   1  10
ATOM     10  C   UNL     1       5.435   1.243   3.469  0.00  0.00    +0.151 C 
BRANCH  10  11
ATOM     11  C   UNL     1       5.055  -0.157   3.864  0.00  0.00    -0.028 A 
ATOM     12  C   UNL     1       4.329  -0.393   5.041  0.00  0.00    +0.005 A 
ATOM     13  C   UNL     1       5.411  -1.252   3.062  0.00  0.00    +0.005 A 
ATOM     14  C   UNL     1       3.950  -1.691   5.392  0.00  0.00    +0.000 A 
ATOM     15  C   UNL     1       5.031  -2.546   3.416  0.00  0.00    +0.000 A 
ATOM     16  C   UNL     1       4.298  -2.765   4.580  0.00  0.00    +0.000 A 
ENDBRANCH  10  11
ENDBRANCH   1  10
TORSDOF 2
ENDMDL
MODEL 6
REMARK VINA RESULT:    -4.792     28.299     29.957
REMARK INTER + INTRA:          -5.422
REMARK INTER:                  -5.284
REMARK INTRA:                  -0.139
REMARK UNBOUND:                -0.070
REMARK  Name = 1550473
REMARK  2 active torsions:
REMARK  status: ('A' for Active; 'I' for Inactive)
REMARK    1  A    between atoms: N_1  and  C_4
REMARK    2  A    between atoms: C_4  and  C_5
REMARK                            x       y       z     vdW  Elec       q    Type
REMARK                         _______ _______ _______ _____ _____    ______ ____
ROOT
ATOM      1  N   UNL     1      -5.881  -3.412 -11.999  0.00  0.00    -0.354 N 
ATOM      2  N   UNL     1      -7.106  -4.228 -13.787  0.00  0.00    -0.372 N 
ATOM      3  N   UNL     1      -7.549  -5.027 -11.682  0.00  0.00    -0.372 N 
ATOM      4  C   UNL     1      -6.838  -4.219 -12.476  0.00  0.00    +0.166 C 
ATOM      5  H   UNL     1      -5.357  -2.846 -12.657  0.00  0.00    +0.163 HD
ATOM      6  H   UNL     1      -7.825  -4.823 -14.175  0.00  0.00    +0.159 HD
ATOM      7  H   UNL     1      -6.613  -3.627 -14.436  0.00  0.00    +0.159 HD
ATOM      8  H   UNL     1      -7.392  -5.072 -10.684  0.00  0.00    +0.159 HD
ATOM      9  H   UNL     1      -8.265  -5.639 -12.053  0.00  0.00    +0.159 HD
ENDROOT
BRANCH   1  10
ATOM     10  C   UNL     1      -5.548  -3.287 -10.581  0.00  0.00    +0.151 C 
BRANCH  10  11
ATOM     11  C   UNL     1      -4.052  -3.247 -10.429  0.00  0.00    -0.028 A 
ATOM     12  C   UNL     1      -3.469  -2.744  -9.257  0.00  0.00    +0.005 A 
ATOM     13  C   UNL     1      -3.213  -3.715 -11.452  0.00  0.00    +0.005 A 
ATOM     14  C   UNL     1      -2.081  -2.735  -9.103  0.00  0.00    +0.000 A 
ATOM     15  C   UNL     1      -1.827  -3.702 -11.295  0.00  0.00    +0.000 A 
ATOM     16  C   UNL     1      -1.262  -3.215 -10.119  0.00  0.00    +0.000 A 
ENDBRANCH  10  11
ENDBRANCH   1  10
TORSDOF 2
ENDMDL
MODEL 7
REMARK VINA RESULT:    -4.757     23.913     25.404
REMARK INTER + INTRA:          -5.383
REMARK INTER:                  -5.244
REMARK INTRA:                  -0.139
REMARK UNBOUND:                -0.070
REMARK  Name = 1550473
REMARK  2 active torsions:
REMARK  status: ('A' for Active; 'I' for Inactive)
REMARK    1  A    between atoms: N_1  and  C_4
REMARK    2  A    between atoms: C_4  and  C_5
REMARK                            x       y       z     vdW  Elec       q    Type
REMARK                         _______ _______ _______ _____ _____    ______ ____
ROOT
ATOM      1  N   UNL     1       1.620  -1.549  -8.713  0.00  0.00    -0.354 N 
ATOM      2  N   UNL     1       2.774   0.262  -7.848  0.00  0.00    -0.372 N 
ATOM      3  N   UNL     1       2.851  -0.124 -10.108  0.00  0.00    -0.372 N 
ATOM      4  C   UNL     1       2.408  -0.482  -8.898  0.00  0.00    +0.166 C 
ATOM      5  H   UNL     1       1.343  -1.785  -7.767  0.00  0.00    +0.163 HD
ATOM      6  H   UNL     1       3.365   1.075  -7.956  0.00  0.00    +0.159 HD
ATOM      7  H   UNL     1       2.458   0.051  -6.909  0.00  0.00    +0.159 HD
ATOM      8  H   UNL     1       2.616  -0.648 -10.941  0.00  0.00    +0.159 HD
ATOM      9  H   UNL     1       3.454   0.679 -10.236  0.00  0.00    +0.159 HD
ENDROOT
BRANCH   1  10
ATOM     10  C   UNL     1       1.121  -2.394  -9.797  0.00  0.00    +0.151 C 
BRANCH  10  11
ATOM     11  C   UNL     1      -0.380  -2.459  -9.718  0.00  0.00    -0.028 A 
ATOM     12  C   UNL     1      -1.101  -3.313 -10.565  0.00  0.00    +0.005 A 
ATOM     13  C   UNL     1      -1.085  -1.674  -8.793  0.00  0.00    +0.005 A 
ATOM     14  C   UNL     1      -2.492  -3.395 -10.472  0.00  0.00    +0.000 A 
ATOM     15  C   UNL     1      -2.475  -1.758  -8.704  0.00  0.00    +0.000 A 
ATOM     16  C   UNL     1      -3.178  -2.621  -9.541  0.00  0.00    +0.000 A 
ENDBRANCH  10  11
ENDBRANCH   1  10
TORSDOF 2
ENDMDL
MODEL 8
REMARK VINA RESULT:    -4.750     10.190     11.435
REMARK INTER + INTRA:          -5.376
REMARK INTER:                  -5.236
REMARK INTRA:                  -0.140
REMARK UNBOUND:                -0.070
REMARK  Name = 1550473
REMARK  2 active torsions:
REMARK  status: ('A' for Active; 'I' for Inactive)
REMARK    1  A    between atoms: N_1  and  C_4
REMARK    2  A    between atoms: C_4  and  C_5
REMARK                            x       y       z     vdW  Elec       q    Type
REMARK                         _______ _______ _______ _____ _____    ______ ____
ROOT
ATOM      1  N   UNL     1       2.105  10.841  13.228  0.00  0.00    -0.354 N 
ATOM      2  N   UNL     1       0.137   9.698  12.796  0.00  0.00    -0.372 N 
ATOM      3  N   UNL     1       0.092  11.991  12.882  0.00  0.00    -0.372 N 
ATOM      4  C   UNL     1       0.790  10.854  12.972  0.00  0.00    +0.166 C 
ATOM      5  H   UNL     1       2.570   9.944  13.313  0.00  0.00    +0.163 HD
ATOM      6  H   UNL     1      -0.855   9.677  12.599  0.00  0.00    +0.159 HD
ATOM      7  H   UNL     1       0.613   8.806  12.837  0.00  0.00    +0.159 HD
ATOM      8  H   UNL     1       0.525  12.896  13.010  0.00  0.00    +0.159 HD
ATOM      9  H   UNL     1      -0.903  11.989  12.697  0.00  0.00    +0.159 HD
ENDROOT
BRANCH   1  10
ATOM     10  C   UNL     1       2.919  12.045  13.382  0.00  0.00    +0.151 C 
BRANCH  10  11
ATOM     11  C   UNL     1       4.154  11.914  12.533  0.00  0.00    -0.028 A 
ATOM     12  C   UNL     1       5.241  12.780  12.720  0.00  0.00    +0.005 A 
ATOM     13  C   UNL     1       4.245  10.922  11.545  0.00  0.00    +0.005 A 
ATOM     14  C   UNL     1       6.400  12.640  11.952  0.00  0.00    +0.000 A 
ATOM     15  C   UNL     1       5.404  10.786  10.780  0.00  0.00    +0.000 A 
ATOM     16  C   UNL     1       6.482  11.644  10.986  0.00  0.00    +0.000 A 
ENDBRANCH  10  11
ENDBRANCH   1  10
TORSDOF 2
ENDMDL
MODEL 9
REMARK VINA RESULT:    -4.712     10.312     11.921
REMARK INTER + INTRA:          -5.334
REMARK INTER:                  -5.200
REMARK INTRA:                  -0.134
REMARK UNBOUND:                -0.070
REMARK  Name = 1550473
REMARK  2 active torsions:
REMARK  status: ('A' for Active; 'I' for Inactive)
REMARK    1  A    between atoms: N_1  and  C_4
REMARK    2  A    between atoms: C_4  and  C_5
REMARK                            x       y       z     vdW  Elec       q    Type
REMARK                         _______ _______ _______ _____ _____    ______ ____
ROOT
ATOM      1  N   UNL     1       6.089   1.252   4.948  0.00  0.00    -0.354 N 
ATOM      2  N   UNL     1       7.400   3.050   5.588  0.00  0.00    -0.372 N 
ATOM      3  N   UNL     1       5.142   3.362   5.327  0.00  0.00    -0.372 N 
ATOM      4  C   UNL     1       6.199   2.544   5.283  0.00  0.00    +0.166 C 
ATOM      5  H   UNL     1       6.932   0.692   4.904  0.00  0.00    +0.163 HD
ATOM      6  H   UNL     1       7.514   4.021   5.849  0.00  0.00    +0.159 HD
ATOM      7  H   UNL     1       8.235   2.477   5.589  0.00  0.00    +0.159 HD
ATOM      8  H   UNL     1       4.209   3.044   5.102  0.00  0.00    +0.159 HD
ATOM      9  H   UNL     1       5.238   4.339   5.573  0.00  0.00    +0.159 HD
ENDROOT
BRANCH   1  10
ATOM     10  C   UNL     1       4.820   0.590   4.650  0.00  0.00    +0.151 C 
BRANCH  10  11
ATOM     11  C   UNL     1       5.039  -0.428   3.566  0.00  0.00    -0.028 A 
ATOM     12  C   UNL     1       6.089  -0.276   2.649  0.00  0.00    +0.005 A 
ATOM     13  C   UNL     1       4.204  -1.551   3.454  0.00  0.00    +0.005 A 
ATOM     14  C   UNL     1       6.312  -1.238   1.660  0.00  0.00    +0.000 A 
ATOM     15  C   UNL     1       4.430  -2.508   2.465  0.00  0.00    +0.000 A 
ATOM     16  C   UNL     1       5.485  -2.352   1.570  0.00  0.00    +0.000 A 
ENDBRANCH  10  11
ENDBRANCH   1  10
TORSDOF 2
ENDMDL
