MODEL 1
REMARK VINA RESULT:    -4.526      0.000      0.000
REMARK INTER + INTRA:          -5.188
REMARK INTER:                  -5.056
REMARK INTRA:                  -0.133
REMARK UNBOUND:                -0.133
REMARK  Name = 1550473
REMARK  2 active torsions:
REMARK  status: ('A' for Active; 'I' for Inactive)
REMARK    1  A    between atoms: N_1  and  C_4
REMARK    2  A    between atoms: C_4  and  C_5
REMARK                            x       y       z     vdW  Elec       q    Type
REMARK                         _______ _______ _______ _____ _____    ______ ____
ROOT
ATOM      1  N   UNL     1     -16.863 -20.347 -55.015  0.00  0.00    -0.354 N 
ATOM      2  N   UNL     1     -14.728 -20.740 -55.822  0.00  0.00    -0.372 N 
ATOM      3  N   UNL     1     -15.026 -20.459 -53.564  0.00  0.00    -0.372 N 
ATOM      4  C   UNL     1     -15.552 -20.512 -54.793  0.00  0.00    +0.166 C 
ATOM      5  H   UNL     1     -17.195 -20.369 -55.973  0.00  0.00    +0.163 HD
ATOM      6  H   UNL     1     -13.735 -20.871 -55.684  0.00  0.00    +0.159 HD
ATOM      7  H   UNL     1     -15.069 -20.807 -56.773  0.00  0.00    +0.159 HD
ATOM      8  H   UNL     1     -15.594 -20.284 -52.746  0.00  0.00    +0.159 HD
ATOM      9  H   UNL     1     -14.033 -20.577 -53.408  0.00  0.00    +0.159 HD
ENDROOT
BRANCH   1  10
ATOM     10  C   UNL     1     -17.853 -20.148 -53.959  0.00  0.00    +0.151 C 
BRANCH  10  11
ATOM     11  C   UNL     1     -19.088 -20.941 -54.287  0.00  0.00    -0.028 A 
ATOM     12  C   UNL     1     -19.318 -21.391 -55.595  0.00  0.00    +0.005 A 
ATOM     13  C   UNL     1     -20.029 -21.250 -53.293  0.00  0.00    +0.005 A 
ATOM     14  C   UNL     1     -20.450 -22.154 -55.894  0.00  0.00    +0.000 A 
ATOM     15  C   UNL     1     -21.158 -22.011 -53.596  0.00  0.00    +0.000 A 
ATOM     16  C   UNL     1     -21.367 -22.464 -54.896  0.00  0.00    +0.000 A 
ENDBRANCH  10  11
ENDBRANCH   1  10
TORSDOF 2
ENDMDL
MODEL 2
REMARK VINA RESULT:    -3.765    125.744    127.132
REMARK INTER + INTRA:          -4.338
REMARK INTER:                  -4.228
REMARK INTRA:                  -0.111
REMARK UNBOUND:                -0.133
REMARK  Name = 1550473
REMARK  2 active torsions:
REMARK  status: ('A' for Active; 'I' for Inactive)
REMARK    1  A    between atoms: N_1  and  C_4
REMARK    2  A    between atoms: C_4  and  C_5
REMARK                            x       y       z     vdW  Elec       q    Type
REMARK                         _______ _______ _______ _____ _____    ______ ____
ROOT
ATOM      1  N   UNL     1      18.179  28.486  57.557  0.00  0.00    -0.354 N 
ATOM      2  N   UNL     1      17.211  30.588  57.468  0.00  0.00    -0.372 N 
ATOM      3  N   UNL     1      16.180  28.943  58.692  0.00  0.00    -0.372 N 
ATOM      4  C   UNL     1      17.194  29.324  57.908  0.00  0.00    +0.166 C 
ATOM      5  H   UNL     1      18.903  28.828  56.935  0.00  0.00    +0.163 HD
ATOM      6  H   UNL     1      16.484  31.244  57.719  0.00  0.00    +0.159 HD
ATOM      7  H   UNL     1      17.960  30.940  56.885  0.00  0.00    +0.159 HD
ATOM      8  H   UNL     1      16.106  28.001  59.052  0.00  0.00    +0.159 HD
ATOM      9  H   UNL     1      15.437  29.582  58.945  0.00  0.00    +0.159 HD
ENDROOT
BRANCH   1  10
ATOM     10  C   UNL     1      18.283  27.105  58.025  0.00  0.00    +0.151 C 
BRANCH  10  11
ATOM     11  C   UNL     1      19.112  26.317  57.049  0.00  0.00    -0.028 A 
ATOM     12  C   UNL     1      20.287  25.676  57.469  0.00  0.00    +0.005 A 
ATOM     13  C   UNL     1      18.725  26.202  55.705  0.00  0.00    +0.005 A 
ATOM     14  C   UNL     1      21.042  24.919  56.569  0.00  0.00    +0.000 A 
ATOM     15  C   UNL     1      19.482  25.446  54.811  0.00  0.00    +0.000 A 
ATOM     16  C   UNL     1      20.639  24.802  55.243  0.00  0.00    +0.000 A 
ENDBRANCH  10  11
ENDBRANCH   1  10
TORSDOF 2
ENDMDL
MODEL 3
REMARK VINA RESULT:    -3.765     69.418     70.629
REMARK INTER + INTRA:          -4.338
REMARK INTER:                  -4.232
REMARK INTRA:                  -0.106
REMARK UNBOUND:                -0.133
REMARK  Name = 1550473
REMARK  2 active torsions:
REMARK  status: ('A' for Active; 'I' for Inactive)
REMARK    1  A    between atoms: N_1  and  C_4
REMARK    2  A    between atoms: C_4  and  C_5
REMARK                            x       y       z     vdW  Elec       q    Type
REMARK                         _______ _______ _______ _____ _____    ______ ____
ROOT
ATOM      1  N   UNL     1      -5.656  -3.161  12.603  0.00  0.00    -0.354 N 
ATOM      2  N   UNL     1      -6.270  -0.928  12.615  0.00  0.00    -0.372 N 
ATOM      3  N   UNL     1      -6.028  -2.022  14.617  0.00  0.00    -0.372 N 
ATOM      4  C   UNL     1      -5.981  -2.052  13.281  0.00  0.00    +0.166 C 
ATOM      5  H   UNL     1      -5.668  -3.126  11.590  0.00  0.00    +0.163 HD
ATOM      6  H   UNL     1      -6.515  -0.075  13.100  0.00  0.00    +0.159 HD
ATOM      7  H   UNL     1      -6.236  -0.883  11.604  0.00  0.00    +0.159 HD
ATOM      8  H   UNL     1      -5.826  -2.839  15.179  0.00  0.00    +0.159 HD
ATOM      9  H   UNL     1      -6.282  -1.181  15.120  0.00  0.00    +0.159 HD
ENDROOT
BRANCH   1  10
ATOM     10  C   UNL     1      -5.273  -4.422  13.234  0.00  0.00    +0.151 C 
BRANCH  10  11
ATOM     11  C   UNL     1      -4.167  -5.055  12.435  0.00  0.00    -0.028 A 
ATOM     12  C   UNL     1      -4.410  -5.539  11.141  0.00  0.00    +0.005 A 
ATOM     13  C   UNL     1      -2.872  -5.168  12.963  0.00  0.00    +0.005 A 
ATOM     14  C   UNL     1      -3.377  -6.100  10.387  0.00  0.00    +0.000 A 
ATOM     15  C   UNL     1      -1.842  -5.729  12.207  0.00  0.00    +0.000 A 
ATOM     16  C   UNL     1      -2.095  -6.192  10.918  0.00  0.00    +0.000 A 
ENDBRANCH  10  11
ENDBRANCH   1  10
TORSDOF 2
ENDMDL
MODEL 4
REMARK VINA RESULT:    -3.723    121.977    123.113
REMARK INTER + INTRA:          -4.291
REMARK INTER:                  -4.230
REMARK INTRA:                  -0.061
REMARK UNBOUND:                -0.133
REMARK  Name = 1550473
REMARK  2 active torsions:
REMARK  status: ('A' for Active; 'I' for Inactive)
REMARK    1  A    between atoms: N_1  and  C_4
REMARK    2  A    between atoms: C_4  and  C_5
REMARK                            x       y       z     vdW  Elec       q    Type
REMARK                         _______ _______ _______ _____ _____    ______ ____
ROOT
ATOM      1  N   UNL     1      23.991  25.810  49.392  0.00  0.00    -0.354 N 
ATOM      2  N   UNL     1      25.407  27.070  48.061  0.00  0.00    -0.372 N 
ATOM      3  N   UNL     1      24.335  28.089  49.816  0.00  0.00    -0.372 N 
ATOM      4  C   UNL     1      24.568  26.983  49.100  0.00  0.00    +0.166 C 
ATOM      5  H   UNL     1      24.185  25.016  48.793  0.00  0.00    +0.163 HD
ATOM      6  H   UNL     1      25.859  27.941  47.819  0.00  0.00    +0.159 HD
ATOM      7  H   UNL     1      25.635  26.264  47.491  0.00  0.00    +0.159 HD
ATOM      8  H   UNL     1      23.708  28.091  50.609  0.00  0.00    +0.159 HD
ATOM      9  H   UNL     1      24.769  28.973  49.582  0.00  0.00    +0.159 HD
ENDROOT
BRANCH   1  10
ATOM     10  C   UNL     1      23.104  25.596  50.534  0.00  0.00    +0.151 C 
BRANCH  10  11
ATOM     11  C   UNL     1      23.821  24.769  51.565  0.00  0.00    -0.028 A 
ATOM     12  C   UNL     1      23.099  24.021  52.506  0.00  0.00    +0.005 A 
ATOM     13  C   UNL     1      25.224  24.725  51.603  0.00  0.00    +0.005 A 
ATOM     14  C   UNL     1      23.764  23.229  53.445  0.00  0.00    +0.000 A 
ATOM     15  C   UNL     1      25.884  23.934  52.543  0.00  0.00    +0.000 A 
ATOM     16  C   UNL     1      25.154  23.184  53.462  0.00  0.00    +0.000 A 
ENDBRANCH  10  11
ENDBRANCH   1  10
TORSDOF 2
ENDMDL
MODEL 5
REMARK VINA RESULT:    -3.719     61.601     62.550
REMARK INTER + INTRA:          -4.287
REMARK INTER:                  -4.148
REMARK INTRA:                  -0.139
REMARK UNBOUND:                -0.133
REMARK  Name = 1550473
REMARK  2 active torsions:
REMARK  status: ('A' for Active; 'I' for Inactive)
REMARK    1  A    between atoms: N_1  and  C_4
REMARK    2  A    between atoms: C_4  and  C_5
REMARK                            x       y       z     vdW  Elec       q    Type
REMARK                         _______ _______ _______ _____ _____    ______ ____
ROOT
ATOM      1  N   UNL     1      -6.989  -9.643   5.094  0.00  0.00    -0.354 N 
ATOM      2  N   UNL     1      -7.676  -7.480   4.633  0.00  0.00    -0.372 N 
ATOM      3  N   UNL     1      -7.014  -8.002   6.767  0.00  0.00    -0.372 N 
ATOM      4  C   UNL     1      -7.222  -8.389   5.504  0.00  0.00    +0.166 C 
ATOM      5  H   UNL     1      -7.195  -9.881   4.131  0.00  0.00    +0.163 HD
ATOM      6  H   UNL     1      -7.858  -6.526   4.912  0.00  0.00    +0.159 HD
ATOM      7  H   UNL     1      -7.838  -7.709   3.660  0.00  0.00    +0.159 HD
ATOM      8  H   UNL     1      -6.677  -8.641   7.475  0.00  0.00    +0.159 HD
ATOM      9  H   UNL     1      -7.201  -7.054   7.068  0.00  0.00    +0.159 HD
ENDROOT
BRANCH   1  10
ATOM     10  C   UNL     1      -6.442 -10.695   5.950  0.00  0.00    +0.151 C 
BRANCH  10  11
ATOM     11  C   UNL     1      -5.006 -10.937   5.574  0.00  0.00    -0.028 A 
ATOM     12  C   UNL     1      -4.513 -10.508   4.334  0.00  0.00    +0.005 A 
ATOM     13  C   UNL     1      -4.133 -11.591   6.457  0.00  0.00    +0.005 A 
ATOM     14  C   UNL     1      -3.172 -10.706   3.997  0.00  0.00    +0.000 A 
ATOM     15  C   UNL     1      -2.795 -11.787   6.116  0.00  0.00    +0.000 A 
ATOM     16  C   UNL     1      -2.314 -11.343   4.887  0.00  0.00    +0.000 A 
ENDBRANCH  10  11
ENDBRANCH   1  10
TORSDOF 2
ENDMDL
MODEL 6
REMARK VINA RESULT:    -3.711     22.753     24.031
REMARK INTER + INTRA:          -4.278
REMARK INTER:                  -4.152
REMARK INTRA:                  -0.126
REMARK UNBOUND:                -0.133
REMARK  Name = 1550473
REMARK  2 active torsions:
REMARK  status: ('A' for Active; 'I' for Inactive)
REMARK    1  A    between atoms: N_1  and  C_4
REMARK    2  A    between atoms: C_4  and  C_5
REMARK                            x       y       z     vdW  Elec       q    Type
REMARK                         _______ _______ _______ _____ _____    ______ ____
ROOT
ATOM      1  N   UNL     1      -7.073 -22.922 -31.879  0.00  0.00    -0.354 N 
ATOM      2  N   UNL     1      -6.634 -23.452 -29.668  0.00  0.00    -0.372 N 
ATOM      3  N   UNL     1      -4.968 -22.511 -30.935  0.00  0.00    -0.372 N 
ATOM      4  C   UNL     1      -6.226 -22.957 -30.843  0.00  0.00    +0.166 C 
ATOM      5  H   UNL     1      -8.004 -23.303 -31.754  0.00  0.00    +0.163 HD
ATOM      6  H   UNL     1      -6.018 -23.489 -28.867  0.00  0.00    +0.159 HD
ATOM      7  H   UNL     1      -7.579 -23.790 -29.532  0.00  0.00    +0.159 HD
ATOM      8  H   UNL     1      -4.597 -22.131 -31.795  0.00  0.00    +0.159 HD
ATOM      9  H   UNL     1      -4.333 -22.550 -30.148  0.00  0.00    +0.159 HD
ENDROOT
BRANCH   1  10
ATOM     10  C   UNL     1      -6.744 -22.354 -33.186  0.00  0.00    +0.151 C 
BRANCH  10  11
ATOM     11  C   UNL     1      -7.625 -22.982 -34.230  0.00  0.00    -0.028 A 
ATOM     12  C   UNL     1      -7.339 -22.820 -35.594  0.00  0.00    +0.005 A 
ATOM     13  C   UNL     1      -8.743 -23.747 -33.863  0.00  0.00    +0.005 A 
ATOM     14  C   UNL     1      -8.139 -23.428 -36.564  0.00  0.00    +0.000 A 
ATOM     15  C   UNL     1      -9.540 -24.352 -34.835  0.00  0.00    +0.000 A 
ATOM     16  C   UNL     1      -9.236 -24.194 -36.185  0.00  0.00    +0.000 A 
ENDBRANCH  10  11
ENDBRANCH   1  10
TORSDOF 2
ENDMDL
MODEL 7
REMARK VINA RESULT:    -3.546    112.598    114.069
REMARK INTER + INTRA:          -4.094
REMARK INTER:                  -3.998
REMARK INTRA:                  -0.095
REMARK UNBOUND:                -0.133
REMARK  Name = 1550473
REMARK  2 active torsions:
REMARK  status: ('A' for Active; 'I' for Inactive)
REMARK    1  A    between atoms: N_1  and  C_4
REMARK    2  A    between atoms: C_4  and  C_5
REMARK                            x       y       z     vdW  Elec       q    Type
REMARK                         _______ _______ _______ _____ _____    ______ ____
ROOT
ATOM      1  N   UNL     1      16.386  28.088  41.085  0.00  0.00    -0.354 N 
ATOM      2  N   UNL     1      14.129  28.598  40.978  0.00  0.00    -0.372 N 
ATOM      3  N   UNL     1      15.243  28.086  39.038  0.00  0.00    -0.372 N 
ATOM      4  C   UNL     1      15.268  28.253  40.365  0.00  0.00    +0.166 C 
ATOM      5  H   UNL     1      16.346  28.259  42.083  0.00  0.00    +0.163 HD
ATOM      6  H   UNL     1      13.269  28.726  40.462  0.00  0.00    +0.159 HD
ATOM      7  H   UNL     1      14.081  28.723  41.982  0.00  0.00    +0.159 HD
ATOM      8  H   UNL     1      16.071  27.832  38.515  0.00  0.00    +0.159 HD
ATOM      9  H   UNL     1      14.395  28.222  38.503  0.00  0.00    +0.159 HD
ENDROOT
BRANCH   1  10
ATOM     10  C   UNL     1      17.666  27.661  40.521  0.00  0.00    +0.151 C 
BRANCH  10  11
ATOM     11  C   UNL     1      18.773  28.073  41.451  0.00  0.00    -0.028 A 
ATOM     12  C   UNL     1      19.194  27.218  42.480  0.00  0.00    +0.005 A 
ATOM     13  C   UNL     1      19.411  29.315  41.304  0.00  0.00    +0.005 A 
ATOM     14  C   UNL     1      20.243  27.588  43.325  0.00  0.00    +0.000 A 
ATOM     15  C   UNL     1      20.457  29.680  42.150  0.00  0.00    +0.000 A 
ATOM     16  C   UNL     1      20.875  28.816  43.159  0.00  0.00    +0.000 A 
ENDBRANCH  10  11
ENDBRANCH   1  10
TORSDOF 2
ENDMDL
MODEL 8
REMARK VINA RESULT:    -3.521     17.302     18.754
REMARK INTER + INTRA:          -4.065
REMARK INTER:                  -3.923
REMARK INTRA:                  -0.143
REMARK UNBOUND:                -0.133
REMARK  Name = 1550473
REMARK  2 active torsions:
REMARK  status: ('A' for Active; 'I' for Inactive)
REMARK    1  A    between atoms: N_1  and  C_4
REMARK    2  A    between atoms: C_4  and  C_5
REMARK                            x       y       z     vdW  Elec       q    Type
REMARK                         _______ _______ _______ _____ _____    ______ ____
ROOT
ATOM      1  N   UNL     1      -9.041 -23.467 -37.064  0.00  0.00    -0.354 N 
ATOM      2  N   UNL     1     -10.276 -24.623 -35.483  0.00  0.00    -0.372 N 
ATOM      3  N   UNL     1      -9.371 -25.780 -37.246  0.00  0.00    -0.372 N 
ATOM      4  C   UNL     1      -9.555 -24.618 -36.610  0.00  0.00    +0.166 C 
ATOM      5  H   UNL     1      -9.242 -22.615 -36.553  0.00  0.00    +0.163 HD
ATOM      6  H   UNL     1     -10.673 -25.477 -35.113  0.00  0.00    +0.159 HD
ATOM      7  H   UNL     1     -10.436 -23.778 -34.948  0.00  0.00    +0.159 HD
ATOM      8  H   UNL     1      -8.841 -25.842 -38.105  0.00  0.00    +0.159 HD
ATOM      9  H   UNL     1      -9.771 -26.643 -36.898  0.00  0.00    +0.159 HD
ENDROOT
BRANCH   1  10
ATOM     10  C   UNL     1      -8.196 -23.361 -38.253  0.00  0.00    +0.151 C 
BRANCH  10  11
ATOM     11  C   UNL     1      -8.827 -22.398 -39.220  0.00  0.00    -0.028 A 
ATOM     12  C   UNL     1      -8.661 -22.566 -40.602  0.00  0.00    +0.005 A 
ATOM     13  C   UNL     1      -9.597 -21.318 -38.761  0.00  0.00    +0.005 A 
ATOM     14  C   UNL     1      -9.271 -21.689 -41.502  0.00  0.00    +0.000 A 
ATOM     15  C   UNL     1     -10.204 -20.445 -39.662  0.00  0.00    +0.000 A 
ATOM     16  C   UNL     1     -10.043 -20.632 -41.033  0.00  0.00    +0.000 A 
ENDBRANCH  10  11
ENDBRANCH   1  10
TORSDOF 2
ENDMDL
MODEL 9
REMARK VINA RESULT:    -3.486     23.882     25.200
REMARK INTER + INTRA:          -4.026
REMARK INTER:                  -3.913
REMARK INTRA:                  -0.113
REMARK UNBOUND:                -0.133
REMARK  Name = 1550473
REMARK  2 active torsions:
REMARK  status: ('A' for Active; 'I' for Inactive)
REMARK    1  A    between atoms: N_1  and  C_4
REMARK    2  A    between atoms: C_4  and  C_5
REMARK                            x       y       z     vdW  Elec       q    Type
REMARK                         _______ _______ _______ _____ _____    ______ ____
ROOT
ATOM      1  N   UNL     1     -17.823 -18.030 -31.158  0.00  0.00    -0.354 N 
ATOM      2  N   UNL     1     -18.140 -19.192 -33.136  0.00  0.00    -0.372 N 
ATOM      3  N   UNL     1     -19.690 -19.413 -31.460  0.00  0.00    -0.372 N 
ATOM      4  C   UNL     1     -18.551 -18.871 -31.904  0.00  0.00    +0.166 C 
ATOM      5  H   UNL     1     -16.953 -17.677 -31.541  0.00  0.00    +0.163 HD
ATOM      6  H   UNL     1     -18.670 -19.821 -33.723  0.00  0.00    +0.159 HD
ATOM      7  H   UNL     1     -17.294 -18.802 -33.534  0.00  0.00    +0.159 HD
ATOM      8  H   UNL     1     -20.052 -19.216 -30.536  0.00  0.00    +0.159 HD
ATOM      9  H   UNL     1     -20.229 -20.055 -32.028  0.00  0.00    +0.159 HD
ENDROOT
BRANCH   1  10
ATOM     10  C   UNL     1     -18.210 -17.575 -29.824  0.00  0.00    +0.151 C 
BRANCH  10  11
ATOM     11  C   UNL     1     -17.479 -16.299 -29.509  0.00  0.00    -0.028 A 
ATOM     12  C   UNL     1     -18.099 -15.290 -28.757  0.00  0.00    +0.005 A 
ATOM     13  C   UNL     1     -16.164 -16.094 -29.955  0.00  0.00    +0.005 A 
ATOM     14  C   UNL     1     -17.411 -14.118 -28.438  0.00  0.00    +0.000 A 
ATOM     15  C   UNL     1     -15.480 -14.921 -29.635  0.00  0.00    +0.000 A 
ATOM     16  C   UNL     1     -16.103 -13.934 -28.875  0.00  0.00    +0.000 A 
ENDBRANCH  10  11
ENDBRANCH   1  10
TORSDOF 2
ENDMDL
