MODEL 1
REMARK VINA RESULT:    -5.194      0.000      0.000
REMARK INTER + INTRA:          -5.921
REMARK INTER:                  -5.801
REMARK INTRA:                  -0.120
REMARK UNBOUND:                -0.120
REMARK  Name = 1550473
REMARK  2 active torsions:
REMARK  status: ('A' for Active; 'I' for Inactive)
REMARK    1  A    between atoms: N_1  and  C_4
REMARK    2  A    between atoms: C_4  and  C_5
REMARK                            x       y       z     vdW  Elec       q    Type
REMARK                         _______ _______ _______ _____ _____    ______ ____
ROOT
ATOM      1  N   UNL     1      -3.874  -4.735 -30.930  0.00  0.00    -0.354 N 
ATOM      2  N   UNL     1      -5.573  -5.406 -32.354  0.00  0.00    -0.372 N 
ATOM      3  N   UNL     1      -4.210  -3.675 -32.993  0.00  0.00    -0.372 N 
ATOM      4  C   UNL     1      -4.540  -4.599 -32.085  0.00  0.00    +0.166 C 
ATOM      5  H   UNL     1      -4.194  -5.435 -30.270  0.00  0.00    +0.163 HD
ATOM      6  H   UNL     1      -6.092  -5.329 -33.219  0.00  0.00    +0.159 HD
ATOM      7  H   UNL     1      -5.861  -6.135 -31.713  0.00  0.00    +0.159 HD
ATOM      8  H   UNL     1      -3.444  -3.031 -32.847  0.00  0.00    +0.159 HD
ATOM      9  H   UNL     1      -4.724  -3.574 -33.859  0.00  0.00    +0.159 HD
ENDROOT
BRANCH   1  10
ATOM     10  C   UNL     1      -2.702  -3.942 -30.564  0.00  0.00    +0.151 C 
BRANCH  10  11
ATOM     11  C   UNL     1      -2.011  -4.597 -29.399  0.00  0.00    -0.028 A 
ATOM     12  C   UNL     1      -2.056  -5.989 -29.235  0.00  0.00    +0.005 A 
ATOM     13  C   UNL     1      -1.304  -3.831 -28.460  0.00  0.00    +0.005 A 
ATOM     14  C   UNL     1      -1.389  -6.600 -28.171  0.00  0.00    +0.000 A 
ATOM     15  C   UNL     1      -0.640  -4.445 -27.398  0.00  0.00    +0.000 A 
ATOM     16  C   UNL     1      -0.681  -5.830 -27.255  0.00  0.00    +0.000 A 
ENDBRANCH  10  11
ENDBRANCH   1  10
TORSDOF 2
ENDMDL
MODEL 2
REMARK VINA RESULT:    -4.971     24.263     25.870
REMARK INTER + INTRA:          -5.673
REMARK INTER:                  -5.556
REMARK INTRA:                  -0.116
REMARK UNBOUND:                -0.120
REMARK  Name = 1550473
REMARK  2 active torsions:
REMARK  status: ('A' for Active; 'I' for Inactive)
REMARK    1  A    between atoms: N_1  and  C_4
REMARK    2  A    between atoms: C_4  and  C_5
REMARK                            x       y       z     vdW  Elec       q    Type
REMARK                         _______ _______ _______ _____ _____    ______ ____
ROOT
ATOM      1  N   UNL     1       8.454  -9.935  -6.221  0.00  0.00    -0.354 N 
ATOM      2  N   UNL     1       8.508 -10.434  -3.960  0.00  0.00    -0.372 N 
ATOM      3  N   UNL     1       9.951 -11.525  -5.371  0.00  0.00    -0.372 N 
ATOM      4  C   UNL     1       8.972 -10.630  -5.199  0.00  0.00    +0.166 C 
ATOM      5  H   UNL     1       7.693  -9.294  -6.029  0.00  0.00    +0.163 HD
ATOM      6  H   UNL     1       8.882 -10.941  -3.169  0.00  0.00    +0.159 HD
ATOM      7  H   UNL     1       7.779  -9.759  -3.764  0.00  0.00    +0.159 HD
ATOM      8  H   UNL     1      10.341 -11.724  -6.282  0.00  0.00    +0.159 HD
ATOM      9  H   UNL     1      10.330 -12.051  -4.593  0.00  0.00    +0.159 HD
ENDROOT
BRANCH   1  10
ATOM     10  C   UNL     1       8.926 -10.035  -7.601  0.00  0.00    +0.151 C 
BRANCH  10  11
ATOM     11  C   UNL     1       8.652  -8.737  -8.308  0.00  0.00    -0.028 A 
ATOM     12  C   UNL     1       9.522  -8.272  -9.306  0.00  0.00    +0.005 A 
ATOM     13  C   UNL     1       7.522  -7.968  -7.990  0.00  0.00    +0.005 A 
ATOM     14  C   UNL     1       9.253  -7.081  -9.984  0.00  0.00    +0.000 A 
ATOM     15  C   UNL     1       7.257  -6.779  -8.669  0.00  0.00    +0.000 A 
ATOM     16  C   UNL     1       8.121  -6.338  -9.668  0.00  0.00    +0.000 A 
ENDBRANCH  10  11
ENDBRANCH   1  10
TORSDOF 2
ENDMDL
MODEL 3
REMARK VINA RESULT:    -4.771     39.227     40.229
REMARK INTER + INTRA:          -5.449
REMARK INTER:                  -5.308
REMARK INTRA:                  -0.141
REMARK UNBOUND:                -0.120
REMARK  Name = 1550473
REMARK  2 active torsions:
REMARK  status: ('A' for Active; 'I' for Inactive)
REMARK    1  A    between atoms: N_1  and  C_4
REMARK    2  A    between atoms: C_4  and  C_5
REMARK                            x       y       z     vdW  Elec       q    Type
REMARK                         _______ _______ _______ _____ _____    ______ ____
ROOT
ATOM      1  N   UNL     1      -5.305   4.799   9.609  0.00  0.00    -0.354 N 
ATOM      2  N   UNL     1      -3.894   5.797  11.151  0.00  0.00    -0.372 N 
ATOM      3  N   UNL     1      -3.025   5.088   9.149  0.00  0.00    -0.372 N 
ATOM      4  C   UNL     1      -4.082   5.221   9.958  0.00  0.00    +0.166 C 
ATOM      5  H   UNL     1      -6.058   4.902  10.279  0.00  0.00    +0.163 HD
ATOM      6  H   UNL     1      -2.983   6.128  11.440  0.00  0.00    +0.159 HD
ATOM      7  H   UNL     1      -4.658   5.939  11.800  0.00  0.00    +0.159 HD
ATOM      8  H   UNL     1      -3.099   4.656   8.238  0.00  0.00    +0.159 HD
ATOM      9  H   UNL     1      -2.103   5.402   9.426  0.00  0.00    +0.159 HD
ENDROOT
BRANCH   1  10
ATOM     10  C   UNL     1      -5.627   4.208   8.311  0.00  0.00    +0.151 C 
BRANCH  10  11
ATOM     11  C   UNL     1      -6.406   2.940   8.529  0.00  0.00    -0.028 A 
ATOM     12  C   UNL     1      -7.443   2.583   7.655  0.00  0.00    +0.005 A 
ATOM     13  C   UNL     1      -6.108   2.089   9.605  0.00  0.00    +0.005 A 
ATOM     14  C   UNL     1      -8.147   1.390   7.839  0.00  0.00    +0.000 A 
ATOM     15  C   UNL     1      -6.814   0.900   9.786  0.00  0.00    +0.000 A 
ATOM     16  C   UNL     1      -7.832   0.550   8.902  0.00  0.00    +0.000 A 
ENDBRANCH  10  11
ENDBRANCH   1  10
TORSDOF 2
ENDMDL
MODEL 4
REMARK VINA RESULT:    -4.684     35.910     37.225
REMARK INTER + INTRA:          -5.352
REMARK INTER:                  -5.230
REMARK INTRA:                  -0.122
REMARK UNBOUND:                -0.120
REMARK  Name = 1550473
REMARK  2 active torsions:
REMARK  status: ('A' for Active; 'I' for Inactive)
REMARK    1  A    between atoms: N_1  and  C_4
REMARK    2  A    between atoms: C_4  and  C_5
REMARK                            x       y       z     vdW  Elec       q    Type
REMARK                         _______ _______ _______ _____ _____    ______ ____
ROOT
ATOM      1  N   UNL     1     -10.548   2.707   4.787  0.00  0.00    -0.354 N 
ATOM      2  N   UNL     1     -11.955   3.331   3.057  0.00  0.00    -0.372 N 
ATOM      3  N   UNL     1     -11.425   1.113   3.311  0.00  0.00    -0.372 N 
ATOM      4  C   UNL     1     -11.300   2.377   3.729  0.00  0.00    +0.166 C 
ATOM      5  H   UNL     1     -10.469   3.687   5.036  0.00  0.00    +0.163 HD
ATOM      6  H   UNL     1     -12.532   3.112   2.257  0.00  0.00    +0.159 HD
ATOM      7  H   UNL     1     -11.911   4.304   3.335  0.00  0.00    +0.159 HD
ATOM      8  H   UNL     1     -10.952   0.347   3.771  0.00  0.00    +0.159 HD
ATOM      9  H   UNL     1     -11.989   0.875   2.504  0.00  0.00    +0.159 HD
ENDROOT
BRANCH   1  10
ATOM     10  C   UNL     1      -9.837   1.738   5.620  0.00  0.00    +0.151 C 
BRANCH  10  11
ATOM     11  C   UNL     1      -8.858   2.468   6.497  0.00  0.00    -0.028 A 
ATOM     12  C   UNL     1      -8.951   3.858   6.664  0.00  0.00    +0.005 A 
ATOM     13  C   UNL     1      -7.840   1.776   7.170  0.00  0.00    +0.005 A 
ATOM     14  C   UNL     1      -8.060   4.533   7.503  0.00  0.00    +0.000 A 
ATOM     15  C   UNL     1      -6.952   2.453   8.006  0.00  0.00    +0.000 A 
ATOM     16  C   UNL     1      -7.064   3.831   8.174  0.00  0.00    +0.000 A 
ENDBRANCH  10  11
ENDBRANCH   1  10
TORSDOF 2
ENDMDL
MODEL 5
REMARK VINA RESULT:    -4.628      3.247      4.808
REMARK INTER + INTRA:          -5.289
REMARK INTER:                  -5.176
REMARK INTRA:                  -0.114
REMARK UNBOUND:                -0.120
REMARK  Name = 1550473
REMARK  2 active torsions:
REMARK  status: ('A' for Active; 'I' for Inactive)
REMARK    1  A    between atoms: N_1  and  C_4
REMARK    2  A    between atoms: C_4  and  C_5
REMARK                            x       y       z     vdW  Elec       q    Type
REMARK                         _______ _______ _______ _____ _____    ______ ____
ROOT
ATOM      1  N   UNL     1      -1.698  -7.867 -28.672  0.00  0.00    -0.354 N 
ATOM      2  N   UNL     1      -2.052 -10.156 -28.625  0.00  0.00    -0.372 N 
ATOM      3  N   UNL     1      -0.640  -9.220 -27.077  0.00  0.00    -0.372 N 
ATOM      4  C   UNL     1      -1.459  -9.066 -28.123  0.00  0.00    +0.166 C 
ATOM      5  H   UNL     1      -2.305  -7.821 -29.482  0.00  0.00    +0.163 HD
ATOM      6  H   UNL     1      -1.894 -11.073 -28.230  0.00  0.00    +0.159 HD
ATOM      7  H   UNL     1      -2.695 -10.100 -29.406  0.00  0.00    +0.159 HD
ATOM      8  H   UNL     1      -0.157  -8.438 -26.656  0.00  0.00    +0.159 HD
ATOM      9  H   UNL     1      -0.460 -10.132 -26.675  0.00  0.00    +0.159 HD
ENDROOT
BRANCH   1  10
ATOM     10  C   UNL     1      -1.144  -6.612 -28.167  0.00  0.00    +0.151 C 
BRANCH  10  11
ATOM     11  C   UNL     1      -1.576  -5.488 -29.068  0.00  0.00    -0.028 A 
ATOM     12  C   UNL     1      -2.836  -5.511 -29.682  0.00  0.00    +0.005 A 
ATOM     13  C   UNL     1      -0.730  -4.394 -29.307  0.00  0.00    +0.005 A 
ATOM     14  C   UNL     1      -3.249  -4.452 -30.495  0.00  0.00    +0.000 A 
ATOM     15  C   UNL     1      -1.145  -3.339 -30.120  0.00  0.00    +0.000 A 
ATOM     16  C   UNL     1      -2.406  -3.368 -30.712  0.00  0.00    +0.000 A 
ENDBRANCH  10  11
ENDBRANCH   1  10
TORSDOF 2
ENDMDL
MODEL 6
REMARK VINA RESULT:    -4.597     34.302     35.653
REMARK INTER + INTRA:          -5.255
REMARK INTER:                  -5.119
REMARK INTRA:                  -0.136
REMARK UNBOUND:                -0.120
REMARK  Name = 1550473
REMARK  2 active torsions:
REMARK  status: ('A' for Active; 'I' for Inactive)
REMARK    1  A    between atoms: N_1  and  C_4
REMARK    2  A    between atoms: C_4  and  C_5
REMARK                            x       y       z     vdW  Elec       q    Type
REMARK                         _______ _______ _______ _____ _____    ______ ____
ROOT
ATOM      1  N   UNL     1      10.057 -11.749   4.124  0.00  0.00    -0.354 N 
ATOM      2  N   UNL     1      10.299  -9.551   4.813  0.00  0.00    -0.372 N 
ATOM      3  N   UNL     1      11.727 -10.378   3.218  0.00  0.00    -0.372 N 
ATOM      4  C   UNL     1      10.695 -10.574   4.046  0.00  0.00    +0.166 C 
ATOM      5  H   UNL     1       9.301 -11.843   4.793  0.00  0.00    +0.163 HD
ATOM      6  H   UNL     1      10.760  -8.652   4.773  0.00  0.00    +0.159 HD
ATOM      7  H   UNL     1       9.514  -9.634   5.447  0.00  0.00    +0.159 HD
ATOM      8  H   UNL     1      12.078 -11.112   2.617  0.00  0.00    +0.159 HD
ATOM      9  H   UNL     1      12.208  -9.489   3.172  0.00  0.00    +0.159 HD
ENDROOT
BRANCH   1  10
ATOM     10  C   UNL     1      10.374 -12.910   3.294  0.00  0.00    +0.151 C 
BRANCH  10  11
ATOM     11  C   UNL     1       9.249 -13.142   2.323  0.00  0.00    -0.028 A 
ATOM     12  C   UNL     1       9.405 -14.034   1.252  0.00  0.00    +0.005 A 
ATOM     13  C   UNL     1       8.022 -12.477   2.472  0.00  0.00    +0.005 A 
ATOM     14  C   UNL     1       8.351 -14.272   0.368  0.00  0.00    +0.000 A 
ATOM     15  C   UNL     1       6.972 -12.717   1.587  0.00  0.00    +0.000 A 
ATOM     16  C   UNL     1       7.136 -13.617   0.536  0.00  0.00    +0.000 A 
ENDBRANCH  10  11
ENDBRANCH   1  10
TORSDOF 2
ENDMDL
MODEL 7
REMARK VINA RESULT:    -4.553     43.163     44.845
REMARK INTER + INTRA:          -5.205
REMARK INTER:                  -5.049
REMARK INTRA:                  -0.157
REMARK UNBOUND:                -0.120
REMARK  Name = 1550473
REMARK  2 active torsions:
REMARK  status: ('A' for Active; 'I' for Inactive)
REMARK    1  A    between atoms: N_1  and  C_4
REMARK    2  A    between atoms: C_4  and  C_5
REMARK                            x       y       z     vdW  Elec       q    Type
REMARK                         _______ _______ _______ _____ _____    ______ ____
ROOT
ATOM      1  N   UNL     1      17.734  -5.228   8.299  0.00  0.00    -0.354 N 
ATOM      2  N   UNL     1      18.422  -3.173   7.484  0.00  0.00    -0.372 N 
ATOM      3  N   UNL     1      19.751  -5.010   7.127  0.00  0.00    -0.372 N 
ATOM      4  C   UNL     1      18.633  -4.485   7.641  0.00  0.00    +0.166 C 
ATOM      5  H   UNL     1      16.922  -4.766   8.692  0.00  0.00    +0.163 HD
ATOM      6  H   UNL     1      19.082  -2.588   6.989  0.00  0.00    +0.159 HD
ATOM      7  H   UNL     1      17.588  -2.721   7.837  0.00  0.00    +0.159 HD
ATOM      8  H   UNL     1      19.972  -5.992   7.217  0.00  0.00    +0.159 HD
ATOM      9  H   UNL     1      20.429  -4.438   6.638  0.00  0.00    +0.159 HD
ENDROOT
BRANCH   1  10
ATOM     10  C   UNL     1      17.842  -6.675   8.479  0.00  0.00    +0.151 C 
BRANCH  10  11
ATOM     11  C   UNL     1      17.852  -6.988   9.950  0.00  0.00    -0.028 A 
ATOM     12  C   UNL     1      18.957  -6.646  10.744  0.00  0.00    +0.005 A 
ATOM     13  C   UNL     1      16.756  -7.620  10.558  0.00  0.00    +0.005 A 
ATOM     14  C   UNL     1      18.954  -6.909  12.116  0.00  0.00    +0.000 A 
ATOM     15  C   UNL     1      16.758  -7.881  11.928  0.00  0.00    +0.000 A 
ATOM     16  C   UNL     1      17.855  -7.524  12.707  0.00  0.00    +0.000 A 
ENDBRANCH  10  11
ENDBRANCH   1  10
TORSDOF 2
ENDMDL
MODEL 8
REMARK VINA RESULT:    -4.511     36.493     37.809
REMARK INTER + INTRA:          -5.159
REMARK INTER:                  -5.009
REMARK INTRA:                  -0.150
REMARK UNBOUND:                -0.120
REMARK  Name = 1550473
REMARK  2 active torsions:
REMARK  status: ('A' for Active; 'I' for Inactive)
REMARK    1  A    between atoms: N_1  and  C_4
REMARK    2  A    between atoms: C_4  and  C_5
REMARK                            x       y       z     vdW  Elec       q    Type
REMARK                         _______ _______ _______ _____ _____    ______ ____
ROOT
ATOM      1  N   UNL     1      -9.926   3.002   5.168  0.00  0.00    -0.354 N 
ATOM      2  N   UNL     1     -10.690   1.604   3.487  0.00  0.00    -0.372 N 
ATOM      3  N   UNL     1     -11.733   1.554   5.531  0.00  0.00    -0.372 N 
ATOM      4  C   UNL     1     -10.779   2.062   4.742  0.00  0.00    +0.166 C 
ATOM      5  H   UNL     1      -9.206   3.324   4.531  0.00  0.00    +0.163 HD
ATOM      6  H   UNL     1     -11.323   0.898   3.136  0.00  0.00    +0.159 HD
ATOM      7  H   UNL     1     -10.000   1.961   2.838  0.00  0.00    +0.159 HD
ATOM      8  H   UNL     1     -11.849   1.853   6.490  0.00  0.00    +0.159 HD
ATOM      9  H   UNL     1     -12.368   0.838   5.201  0.00  0.00    +0.159 HD
ENDROOT
BRANCH   1  10
ATOM     10  C   UNL     1      -9.972   3.606   6.499  0.00  0.00    +0.151 C 
BRANCH  10  11
ATOM     11  C   UNL     1      -8.646   3.400   7.178  0.00  0.00    -0.028 A 
ATOM     12  C   UNL     1      -8.118   2.110   7.333  0.00  0.00    +0.005 A 
ATOM     13  C   UNL     1      -7.910   4.491   7.663  0.00  0.00    +0.005 A 
ATOM     14  C   UNL     1      -6.873   1.920   7.937  0.00  0.00    +0.000 A 
ATOM     15  C   UNL     1      -6.667   4.298   8.267  0.00  0.00    +0.000 A 
ATOM     16  C   UNL     1      -6.148   3.013   8.401  0.00  0.00    +0.000 A 
ENDBRANCH  10  11
ENDBRANCH   1  10
TORSDOF 2
ENDMDL
MODEL 9
REMARK VINA RESULT:    -4.468     35.059     36.810
REMARK INTER + INTRA:          -5.111
REMARK INTER:                  -4.963
REMARK INTRA:                  -0.148
REMARK UNBOUND:                -0.120
REMARK  Name = 1550473
REMARK  2 active torsions:
REMARK  status: ('A' for Active; 'I' for Inactive)
REMARK    1  A    between atoms: N_1  and  C_4
REMARK    2  A    between atoms: C_4  and  C_5
REMARK                            x       y       z     vdW  Elec       q    Type
REMARK                         _______ _______ _______ _____ _____    ______ ____
ROOT
ATOM      1  N   UNL     1      15.518   5.417   0.087  0.00  0.00    -0.354 N 
ATOM      2  N   UNL     1      16.050   5.417  -2.167  0.00  0.00    -0.372 N 
ATOM      3  N   UNL     1      13.925   4.832  -1.529  0.00  0.00    -0.372 N 
ATOM      4  C   UNL     1      15.159   5.221  -1.189  0.00  0.00    +0.166 C 
ATOM      5  H   UNL     1      16.477   5.683   0.281  0.00  0.00    +0.163 HD
ATOM      6  H   UNL     1      15.807   5.280  -3.139  0.00  0.00    +0.159 HD
ATOM      7  H   UNL     1      16.995   5.727  -1.973  0.00  0.00    +0.159 HD
ATOM      8  H   UNL     1      13.208   4.661  -0.838  0.00  0.00    +0.159 HD
ATOM      9  H   UNL     1      13.666   4.679  -2.496  0.00  0.00    +0.159 HD
ENDROOT
BRANCH   1  10
ATOM     10  C   UNL     1      14.608   5.283   1.223  0.00  0.00    +0.151 C 
BRANCH  10  11
ATOM     11  C   UNL     1      13.930   6.603   1.467  0.00  0.00    -0.028 A 
ATOM     12  C   UNL     1      12.546   6.663   1.684  0.00  0.00    +0.005 A 
ATOM     13  C   UNL     1      14.667   7.797   1.489  0.00  0.00    +0.005 A 
ATOM     14  C   UNL     1      11.920   7.885   1.941  0.00  0.00    +0.000 A 
ATOM     15  C   UNL     1      14.038   9.015   1.745  0.00  0.00    +0.000 A 
ATOM     16  C   UNL     1      12.665   9.059   1.973  0.00  0.00    +0.000 A 
ENDBRANCH  10  11
ENDBRANCH   1  10
TORSDOF 2
ENDMDL
