MODEL 1
REMARK VINA RESULT:    -4.589      0.000      0.000
REMARK INTER + INTRA:          -5.274
REMARK INTER:                  -5.126
REMARK INTRA:                  -0.148
REMARK UNBOUND:                -0.148
REMARK  Name = 1550473
REMARK  2 active torsions:
REMARK  status: ('A' for Active; 'I' for Inactive)
REMARK    1  A    between atoms: N_1  and  C_4
REMARK    2  A    between atoms: C_4  and  C_5
REMARK                            x       y       z     vdW  Elec       q    Type
REMARK                         _______ _______ _______ _____ _____    ______ ____
ROOT
ATOM      1  N   UNL     1       7.470  -8.307  -3.774  0.00  0.00    -0.354 N 
ATOM      2  N   UNL     1       7.182  -7.393  -5.883  0.00  0.00    -0.372 N 
ATOM      3  N   UNL     1       7.091  -6.011  -4.053  0.00  0.00    -0.372 N 
ATOM      4  C   UNL     1       7.249  -7.240  -4.555  0.00  0.00    +0.166 C 
ATOM      5  H   UNL     1       7.551  -9.216  -4.214  0.00  0.00    +0.163 HD
ATOM      6  H   UNL     1       7.020  -6.606  -6.498  0.00  0.00    +0.159 HD
ATOM      7  H   UNL     1       7.310  -8.296  -6.323  0.00  0.00    +0.159 HD
ATOM      8  H   UNL     1       7.125  -5.830  -3.059  0.00  0.00    +0.159 HD
ATOM      9  H   UNL     1       6.916  -5.213  -4.651  0.00  0.00    +0.159 HD
ENDROOT
BRANCH   1  10
ATOM     10  C   UNL     1       7.614  -8.240  -2.321  0.00  0.00    +0.151 C 
BRANCH  10  11
ATOM     11  C   UNL     1       6.514  -9.041  -1.682  0.00  0.00    -0.028 A 
ATOM     12  C   UNL     1       5.436  -8.398  -1.056  0.00  0.00    +0.005 A 
ATOM     13  C   UNL     1       6.540 -10.444  -1.703  0.00  0.00    +0.005 A 
ATOM     14  C   UNL     1       4.398  -9.141  -0.488  0.00  0.00    +0.000 A 
ATOM     15  C   UNL     1       5.502 -11.183  -1.134  0.00  0.00    +0.000 A 
ATOM     16  C   UNL     1       4.431 -10.531  -0.529  0.00  0.00    +0.000 A 
ENDBRANCH  10  11
ENDBRANCH   1  10
TORSDOF 2
ENDMDL
MODEL 2
REMARK VINA RESULT:    -4.581     28.345     29.255
REMARK INTER + INTRA:          -5.265
REMARK INTER:                  -5.141
REMARK INTRA:                  -0.123
REMARK UNBOUND:                -0.148
REMARK  Name = 1550473
REMARK  2 active torsions:
REMARK  status: ('A' for Active; 'I' for Inactive)
REMARK    1  A    between atoms: N_1  and  C_4
REMARK    2  A    between atoms: C_4  and  C_5
REMARK                            x       y       z     vdW  Elec       q    Type
REMARK                         _______ _______ _______ _____ _____    ______ ____
ROOT
ATOM      1  N   UNL     1     -15.822  -4.826 -19.316  0.00  0.00    -0.354 N 
ATOM      2  N   UNL     1     -15.736  -4.155 -17.102  0.00  0.00    -0.372 N 
ATOM      3  N   UNL     1     -15.739  -2.555 -18.746  0.00  0.00    -0.372 N 
ATOM      4  C   UNL     1     -15.766  -3.847 -18.404  0.00  0.00    +0.166 C 
ATOM      5  H   UNL     1     -15.810  -5.787 -18.993  0.00  0.00    +0.163 HD
ATOM      6  H   UNL     1     -15.696  -3.438 -16.390  0.00  0.00    +0.159 HD
ATOM      7  H   UNL     1     -15.770  -5.115 -16.780  0.00  0.00    +0.159 HD
ATOM      8  H   UNL     1     -15.753  -2.256 -19.712  0.00  0.00    +0.159 HD
ATOM      9  H   UNL     1     -15.687  -1.823 -18.048  0.00  0.00    +0.159 HD
ENDROOT
BRANCH   1  10
ATOM     10  C   UNL     1     -15.913  -4.597 -20.757  0.00  0.00    +0.151 C 
BRANCH  10  11
ATOM     11  C   UNL     1     -16.159  -5.909 -21.449  0.00  0.00    -0.028 A 
ATOM     12  C   UNL     1     -16.326  -5.960 -22.841  0.00  0.00    +0.005 A 
ATOM     13  C   UNL     1     -16.220  -7.106 -20.720  0.00  0.00    +0.005 A 
ATOM     14  C   UNL     1     -16.524  -7.182 -23.488  0.00  0.00    +0.000 A 
ATOM     15  C   UNL     1     -16.419  -8.324 -21.369  0.00  0.00    +0.000 A 
ATOM     16  C   UNL     1     -16.569  -8.362 -22.753  0.00  0.00    +0.000 A 
ENDBRANCH  10  11
ENDBRANCH   1  10
TORSDOF 2
ENDMDL
MODEL 3
REMARK VINA RESULT:    -4.543     28.371     29.175
REMARK INTER + INTRA:          -5.223
REMARK INTER:                  -5.081
REMARK INTRA:                  -0.142
REMARK UNBOUND:                -0.148
REMARK  Name = 1550473
REMARK  2 active torsions:
REMARK  status: ('A' for Active; 'I' for Inactive)
REMARK    1  A    between atoms: N_1  and  C_4
REMARK    2  A    between atoms: C_4  and  C_5
REMARK                            x       y       z     vdW  Elec       q    Type
REMARK                         _______ _______ _______ _____ _____    ______ ____
ROOT
ATOM      1  N   UNL     1     -16.916  -3.802 -19.615  0.00  0.00    -0.354 N 
ATOM      2  N   UNL     1     -16.111  -1.646 -19.875  0.00  0.00    -0.372 N 
ATOM      3  N   UNL     1     -15.344  -2.913 -18.122  0.00  0.00    -0.372 N 
ATOM      4  C   UNL     1     -16.128  -2.802 -19.200  0.00  0.00    +0.166 C 
ATOM      5  H   UNL     1     -17.509  -3.645 -20.422  0.00  0.00    +0.163 HD
ATOM      6  H   UNL     1     -15.524  -0.875 -19.587  0.00  0.00    +0.159 HD
ATOM      7  H   UNL     1     -16.671  -1.507 -20.708  0.00  0.00    +0.159 HD
ATOM      8  H   UNL     1     -15.315  -3.757 -17.566  0.00  0.00    +0.159 HD
ATOM      9  H   UNL     1     -14.758  -2.148 -17.812  0.00  0.00    +0.159 HD
ENDROOT
BRANCH   1  10
ATOM     10  C   UNL     1     -16.967  -5.119 -18.983  0.00  0.00    +0.151 C 
BRANCH  10  11
ATOM     11  C   UNL     1     -16.716  -6.175 -20.024  0.00  0.00    -0.028 A 
ATOM     12  C   UNL     1     -16.780  -7.535 -19.689  0.00  0.00    +0.005 A 
ATOM     13  C   UNL     1     -16.420  -5.821 -21.350  0.00  0.00    +0.005 A 
ATOM     14  C   UNL     1     -16.577  -8.516 -20.663  0.00  0.00    +0.000 A 
ATOM     15  C   UNL     1     -16.216  -6.803 -22.319  0.00  0.00    +0.000 A 
ATOM     16  C   UNL     1     -16.298  -8.150 -21.976  0.00  0.00    +0.000 A 
ENDBRANCH  10  11
ENDBRANCH   1  10
TORSDOF 2
ENDMDL
MODEL 4
REMARK VINA RESULT:    -4.384      2.868      5.327
REMARK INTER + INTRA:          -5.044
REMARK INTER:                  -4.924
REMARK INTRA:                  -0.120
REMARK UNBOUND:                -0.148
REMARK  Name = 1550473
REMARK  2 active torsions:
REMARK  status: ('A' for Active; 'I' for Inactive)
REMARK    1  A    between atoms: N_1  and  C_4
REMARK    2  A    between atoms: C_4  and  C_5
REMARK                            x       y       z     vdW  Elec       q    Type
REMARK                         _______ _______ _______ _____ _____    ______ ____
ROOT
ATOM      1  N   UNL     1       5.494  -7.832  -0.990  0.00  0.00    -0.354 N 
ATOM      2  N   UNL     1       3.925  -8.072   0.696  0.00  0.00    -0.372 N 
ATOM      3  N   UNL     1       4.357  -9.857  -0.680  0.00  0.00    -0.372 N 
ATOM      4  C   UNL     1       4.602  -8.588  -0.337  0.00  0.00    +0.166 C 
ATOM      5  H   UNL     1       5.612  -6.868  -0.700  0.00  0.00    +0.163 HD
ATOM      6  H   UNL     1       3.248  -8.620   1.211  0.00  0.00    +0.159 HD
ATOM      7  H   UNL     1       4.079  -7.123   1.013  0.00  0.00    +0.159 HD
ATOM      8  H   UNL     1       4.830 -10.304  -1.454  0.00  0.00    +0.159 HD
ATOM      9  H   UNL     1       3.674 -10.418  -0.185  0.00  0.00    +0.159 HD
ENDROOT
BRANCH   1  10
ATOM     10  C   UNL     1       6.323  -8.314  -2.094  0.00  0.00    +0.151 C 
BRANCH  10  11
ATOM     11  C   UNL     1       6.698  -7.152  -2.971  0.00  0.00    -0.028 A 
ATOM     12  C   UNL     1       6.975  -7.347  -4.332  0.00  0.00    +0.005 A 
ATOM     13  C   UNL     1       6.774  -5.852  -2.448  0.00  0.00    +0.005 A 
ATOM     14  C   UNL     1       7.294  -6.263  -5.153  0.00  0.00    +0.000 A 
ATOM     15  C   UNL     1       7.094  -4.772  -3.271  0.00  0.00    +0.000 A 
ATOM     16  C   UNL     1       7.352  -4.978  -4.624  0.00  0.00    +0.000 A 
ENDBRANCH  10  11
ENDBRANCH   1  10
TORSDOF 2
ENDMDL
MODEL 5
REMARK VINA RESULT:    -4.369     27.777     29.110
REMARK INTER + INTRA:          -5.028
REMARK INTER:                  -4.906
REMARK INTRA:                  -0.123
REMARK UNBOUND:                -0.148
REMARK  Name = 1550473
REMARK  2 active torsions:
REMARK  status: ('A' for Active; 'I' for Inactive)
REMARK    1  A    between atoms: N_1  and  C_4
REMARK    2  A    between atoms: C_4  and  C_5
REMARK                            x       y       z     vdW  Elec       q    Type
REMARK                         _______ _______ _______ _____ _____    ______ ____
ROOT
ATOM      1  N   UNL     1     -13.748  -6.747 -25.108  0.00  0.00    -0.354 N 
ATOM      2  N   UNL     1     -15.297  -5.938 -26.628  0.00  0.00    -0.372 N 
ATOM      3  N   UNL     1     -15.508  -5.363 -24.417  0.00  0.00    -0.372 N 
ATOM      4  C   UNL     1     -14.842  -6.020 -25.372  0.00  0.00    +0.166 C 
ATOM      5  H   UNL     1     -13.306  -7.247 -25.872  0.00  0.00    +0.163 HD
ATOM      6  H   UNL     1     -16.117  -5.394 -26.858  0.00  0.00    +0.159 HD
ATOM      7  H   UNL     1     -14.826  -6.400 -27.397  0.00  0.00    +0.159 HD
ATOM      8  H   UNL     1     -15.219  -5.389 -23.448  0.00  0.00    +0.159 HD
ATOM      9  H   UNL     1     -16.338  -4.822 -24.625  0.00  0.00    +0.159 HD
ENDROOT
BRANCH   1  10
ATOM     10  C   UNL     1     -13.140  -6.859 -23.784  0.00  0.00    +0.151 C 
BRANCH  10  11
ATOM     11  C   UNL     1     -11.724  -7.344 -23.932  0.00  0.00    -0.028 A 
ATOM     12  C   UNL     1     -11.109  -8.070 -22.902  0.00  0.00    +0.005 A 
ATOM     13  C   UNL     1     -10.995  -7.086 -25.103  0.00  0.00    +0.005 A 
ATOM     14  C   UNL     1      -9.804  -8.547 -23.051  0.00  0.00    +0.000 A 
ATOM     15  C   UNL     1      -9.692  -7.563 -25.248  0.00  0.00    +0.000 A 
ATOM     16  C   UNL     1      -9.098  -8.295 -24.223  0.00  0.00    +0.000 A 
ENDBRANCH  10  11
ENDBRANCH   1  10
TORSDOF 2
ENDMDL
MODEL 6
REMARK VINA RESULT:    -4.363     29.149     30.060
REMARK INTER + INTRA:          -5.021
REMARK INTER:                  -4.913
REMARK INTRA:                  -0.108
REMARK UNBOUND:                -0.148
REMARK  Name = 1550473
REMARK  2 active torsions:
REMARK  status: ('A' for Active; 'I' for Inactive)
REMARK    1  A    between atoms: N_1  and  C_4
REMARK    2  A    between atoms: C_4  and  C_5
REMARK                            x       y       z     vdW  Elec       q    Type
REMARK                         _______ _______ _______ _____ _____    ______ ____
ROOT
ATOM      1  N   UNL     1     -16.365 -18.936 -17.979  0.00  0.00    -0.354 N 
ATOM      2  N   UNL     1     -15.075 -20.631 -18.888  0.00  0.00    -0.372 N 
ATOM      3  N   UNL     1     -14.398 -19.654 -16.926  0.00  0.00    -0.372 N 
ATOM      4  C   UNL     1     -15.286 -19.729 -17.923  0.00  0.00    +0.166 C 
ATOM      5  H   UNL     1     -16.984 -19.022 -18.777  0.00  0.00    +0.163 HD
ATOM      6  H   UNL     1     -14.271 -21.245 -18.871  0.00  0.00    +0.159 HD
ATOM      7  H   UNL     1     -15.719 -20.746 -19.660  0.00  0.00    +0.159 HD
ATOM      8  H   UNL     1     -14.497 -18.989 -16.169  0.00  0.00    +0.159 HD
ATOM      9  H   UNL     1     -13.581 -20.251 -16.897  0.00  0.00    +0.159 HD
ENDROOT
BRANCH   1  10
ATOM     10  C   UNL     1     -16.715 -17.958 -16.951  0.00  0.00    +0.151 C 
BRANCH  10  11
ATOM     11  C   UNL     1     -18.207 -17.770 -16.940  0.00  0.00    -0.028 A 
ATOM     12  C   UNL     1     -19.051 -18.792 -16.481  0.00  0.00    +0.005 A 
ATOM     13  C   UNL     1     -18.783 -16.569 -17.383  0.00  0.00    +0.005 A 
ATOM     14  C   UNL     1     -20.435 -18.606 -16.443  0.00  0.00    +0.000 A 
ATOM     15  C   UNL     1     -20.166 -16.388 -17.344  0.00  0.00    +0.000 A 
ATOM     16  C   UNL     1     -20.991 -17.405 -16.871  0.00  0.00    +0.000 A 
ENDBRANCH  10  11
ENDBRANCH   1  10
TORSDOF 2
ENDMDL
MODEL 7
REMARK VINA RESULT:    -4.287     20.196     21.551
REMARK INTER + INTRA:          -4.937
REMARK INTER:                  -4.830
REMARK INTRA:                  -0.107
REMARK UNBOUND:                -0.148
REMARK  Name = 1550473
REMARK  2 active torsions:
REMARK  status: ('A' for Active; 'I' for Inactive)
REMARK    1  A    between atoms: N_1  and  C_4
REMARK    2  A    between atoms: C_4  and  C_5
REMARK                            x       y       z     vdW  Elec       q    Type
REMARK                         _______ _______ _______ _____ _____    ______ ____
ROOT
ATOM      1  N   UNL     1       1.418 -11.132 -23.820  0.00  0.00    -0.354 N 
ATOM      2  N   UNL     1       1.649  -8.927 -24.488  0.00  0.00    -0.372 N 
ATOM      3  N   UNL     1      -0.392  -9.948 -24.723  0.00  0.00    -0.372 N 
ATOM      4  C   UNL     1       0.887 -10.017 -24.340  0.00  0.00    +0.166 C 
ATOM      5  H   UNL     1       2.402 -11.129 -23.577  0.00  0.00    +0.163 HD
ATOM      6  H   UNL     1       1.276  -8.070 -24.875  0.00  0.00    +0.159 HD
ATOM      7  H   UNL     1       2.621  -8.912 -24.203  0.00  0.00    +0.159 HD
ATOM      8  H   UNL     1      -1.018 -10.738 -24.643  0.00  0.00    +0.159 HD
ATOM      9  H   UNL     1      -0.781  -9.103 -25.123  0.00  0.00    +0.159 HD
ENDROOT
BRANCH   1  10
ATOM     10  C   UNL     1       0.660 -12.356 -23.566  0.00  0.00    +0.151 C 
BRANCH  10  11
ATOM     11  C   UNL     1       1.524 -13.318 -22.797  0.00  0.00    -0.028 A 
ATOM     12  C   UNL     1       2.161 -12.913 -21.615  0.00  0.00    +0.005 A 
ATOM     13  C   UNL     1       1.704 -14.636 -23.242  0.00  0.00    +0.005 A 
ATOM     14  C   UNL     1       2.939 -13.814 -20.885  0.00  0.00    +0.000 A 
ATOM     15  C   UNL     1       2.482 -15.533 -22.510  0.00  0.00    +0.000 A 
ATOM     16  C   UNL     1       3.097 -15.122 -21.330  0.00  0.00    +0.000 A 
ENDBRANCH  10  11
ENDBRANCH   1  10
TORSDOF 2
ENDMDL
MODEL 8
REMARK VINA RESULT:    -4.273     60.487     61.361
REMARK INTER + INTRA:          -4.921
REMARK INTER:                  -4.806
REMARK INTRA:                  -0.115
REMARK UNBOUND:                -0.148
REMARK  Name = 1550473
REMARK  2 active torsions:
REMARK  status: ('A' for Active; 'I' for Inactive)
REMARK    1  A    between atoms: N_1  and  C_4
REMARK    2  A    between atoms: C_4  and  C_5
REMARK                            x       y       z     vdW  Elec       q    Type
REMARK                         _______ _______ _______ _____ _____    ______ ____
ROOT
ATOM      1  N   UNL     1      36.466  20.715  40.122  0.00  0.00    -0.354 N 
ATOM      2  N   UNL     1      36.763  20.333  37.857  0.00  0.00    -0.372 N 
ATOM      3  N   UNL     1      34.687  19.996  38.776  0.00  0.00    -0.372 N 
ATOM      4  C   UNL     1      35.967  20.350  38.934  0.00  0.00    +0.166 C 
ATOM      5  H   UNL     1      37.452  20.943  40.181  0.00  0.00    +0.163 HD
ATOM      6  H   UNL     1      36.414  20.065  36.947  0.00  0.00    +0.159 HD
ATOM      7  H   UNL     1      37.737  20.605  37.910  0.00  0.00    +0.159 HD
ATOM      8  H   UNL     1      34.037  19.982  39.550  0.00  0.00    +0.159 HD
ATOM      9  H   UNL     1      34.323  19.713  37.875  0.00  0.00    +0.159 HD
ENDROOT
BRANCH   1  10
ATOM     10  C   UNL     1      35.672  20.818  41.345  0.00  0.00    +0.151 C 
BRANCH  10  11
ATOM     11  C   UNL     1      36.591  21.078  42.507  0.00  0.00    -0.028 A 
ATOM     12  C   UNL     1      37.772  21.813  42.330  0.00  0.00    +0.005 A 
ATOM     13  C   UNL     1      36.282  20.596  43.789  0.00  0.00    +0.005 A 
ATOM     14  C   UNL     1      38.611  22.080  43.415  0.00  0.00    +0.000 A 
ATOM     15  C   UNL     1      37.123  20.864  44.869  0.00  0.00    +0.000 A 
ATOM     16  C   UNL     1      38.285  21.608  44.682  0.00  0.00    +0.000 A 
ENDBRANCH  10  11
ENDBRANCH   1  10
TORSDOF 2
ENDMDL
MODEL 9
REMARK VINA RESULT:    -4.199     30.184     31.166
REMARK INTER + INTRA:          -4.838
REMARK INTER:                  -4.696
REMARK INTRA:                  -0.142
REMARK UNBOUND:                -0.148
REMARK  Name = 1550473
REMARK  2 active torsions:
REMARK  status: ('A' for Active; 'I' for Inactive)
REMARK    1  A    between atoms: N_1  and  C_4
REMARK    2  A    between atoms: C_4  and  C_5
REMARK                            x       y       z     vdW  Elec       q    Type
REMARK                         _______ _______ _______ _____ _____    ______ ____
ROOT
ATOM      1  N   UNL     1     -20.261 -19.239 -16.994  0.00  0.00    -0.354 N 
ATOM      2  N   UNL     1     -21.845 -18.182 -15.677  0.00  0.00    -0.372 N 
ATOM      3  N   UNL     1     -21.777 -20.476 -15.704  0.00  0.00    -0.372 N 
ATOM      4  C   UNL     1     -21.285 -19.308 -16.133  0.00  0.00    +0.166 C 
ATOM      5  H   UNL     1     -19.954 -18.324 -17.304  0.00  0.00    +0.163 HD
ATOM      6  H   UNL     1     -22.617 -18.203 -15.023  0.00  0.00    +0.159 HD
ATOM      7  H   UNL     1     -21.507 -17.268 -15.953  0.00  0.00    +0.159 HD
ATOM      8  H   UNL     1     -21.402 -21.362 -16.016  0.00  0.00    +0.159 HD
ATOM      9  H   UNL     1     -22.556 -20.517 -15.060  0.00  0.00    +0.159 HD
ENDROOT
BRANCH   1  10
ATOM     10  C   UNL     1     -19.545 -20.404 -17.510  0.00  0.00    +0.151 C 
BRANCH  10  11
ATOM     11  C   UNL     1     -18.065 -20.167 -17.387  0.00  0.00    -0.028 A 
ATOM     12  C   UNL     1     -17.150 -21.096 -17.902  0.00  0.00    +0.005 A 
ATOM     13  C   UNL     1     -17.573 -19.011 -16.762  0.00  0.00    +0.005 A 
ATOM     14  C   UNL     1     -15.775 -20.861 -17.814  0.00  0.00    +0.000 A 
ATOM     15  C   UNL     1     -16.200 -18.780 -16.676  0.00  0.00    +0.000 A 
ATOM     16  C   UNL     1     -15.302 -19.704 -17.204  0.00  0.00    +0.000 A 
ENDBRANCH  10  11
ENDBRANCH   1  10
TORSDOF 2
ENDMDL
