MODEL 1
REMARK VINA RESULT:    -7.296      0.000      0.000
REMARK INTER + INTRA:          -8.275
REMARK INTER:                  -8.150
REMARK INTRA:                  -0.126
REMARK UNBOUND:                -0.126
REMARK  Name = 1550473
REMARK  2 active torsions:
REMARK  status: ('A' for Active; 'I' for Inactive)
REMARK    1  A    between atoms: N_1  and  C_4
REMARK    2  A    between atoms: C_4  and  C_5
REMARK                            x       y       z     vdW  Elec       q    Type
REMARK                         _______ _______ _______ _____ _____    ______ ____
ROOT
ATOM      1  N   UNL     1     -12.357  -5.749  -6.561  0.00  0.00    -0.354 N 
ATOM      2  N   UNL     1     -14.663  -5.549  -6.640  0.00  0.00    -0.372 N 
ATOM      3  N   UNL     1     -13.713  -6.769  -4.945  0.00  0.00    -0.372 N 
ATOM      4  C   UNL     1     -13.563  -6.025  -6.046  0.00  0.00    +0.166 C 
ATOM      5  H   UNL     1     -12.312  -5.204  -7.415  0.00  0.00    +0.163 HD
ATOM      6  H   UNL     1     -15.586  -5.738  -6.272  0.00  0.00    +0.159 HD
ATOM      7  H   UNL     1     -14.613  -4.967  -7.467  0.00  0.00    +0.159 HD
ATOM      8  H   UNL     1     -12.922  -7.163  -4.453  0.00  0.00    +0.159 HD
ATOM      9  H   UNL     1     -14.629  -6.979  -4.568  0.00  0.00    +0.159 HD
ENDROOT
BRANCH   1  10
ATOM     10  C   UNL     1     -11.094  -6.174  -5.961  0.00  0.00    +0.151 C 
BRANCH  10  11
ATOM     11  C   UNL     1     -10.005  -6.084  -6.993  0.00  0.00    -0.028 A 
ATOM     12  C   UNL     1      -8.659  -6.220  -6.622  0.00  0.00    +0.005 A 
ATOM     13  C   UNL     1     -10.312  -5.867  -8.346  0.00  0.00    +0.005 A 
ATOM     14  C   UNL     1      -7.648  -6.166  -7.585  0.00  0.00    +0.000 A 
ATOM     15  C   UNL     1      -9.300  -5.813  -9.304  0.00  0.00    +0.000 A 
ATOM     16  C   UNL     1      -7.968  -5.965  -8.924  0.00  0.00    +0.000 A 
ENDBRANCH  10  11
ENDBRANCH   1  10
TORSDOF 2
ENDMDL
MODEL 2
REMARK VINA RESULT:    -6.705      2.318      2.749
REMARK INTER + INTRA:          -7.614
REMARK INTER:                  -7.484
REMARK INTRA:                  -0.131
REMARK UNBOUND:                -0.126
REMARK  Name = 1550473
REMARK  2 active torsions:
REMARK  status: ('A' for Active; 'I' for Inactive)
REMARK    1  A    between atoms: N_1  and  C_4
REMARK    2  A    between atoms: C_4  and  C_5
REMARK                            x       y       z     vdW  Elec       q    Type
REMARK                         _______ _______ _______ _____ _____    ______ ____
ROOT
ATOM      1  N   UNL     1     -11.526  -4.245  -8.646  0.00  0.00    -0.354 N 
ATOM      2  N   UNL     1     -12.735  -3.234 -10.343  0.00  0.00    -0.372 N 
ATOM      3  N   UNL     1     -13.222  -5.403  -9.774  0.00  0.00    -0.372 N 
ATOM      4  C   UNL     1     -12.487  -4.303  -9.576  0.00  0.00    +0.166 C 
ATOM      5  H   UNL     1     -10.984  -3.392  -8.566  0.00  0.00    +0.163 HD
ATOM      6  H   UNL     1     -13.456  -3.248 -11.051  0.00  0.00    +0.159 HD
ATOM      7  H   UNL     1     -12.222  -2.368 -10.231  0.00  0.00    +0.159 HD
ATOM      8  H   UNL     1     -13.081  -6.245  -9.232  0.00  0.00    +0.159 HD
ATOM      9  H   UNL     1     -13.941  -5.440 -10.486  0.00  0.00    +0.159 HD
ENDROOT
BRANCH   1  10
ATOM     10  C   UNL     1     -11.213  -5.335  -7.723  0.00  0.00    +0.151 C 
BRANCH  10  11
ATOM     11  C   UNL     1      -9.782  -5.751  -7.921  0.00  0.00    -0.028 A 
ATOM     12  C   UNL     1      -8.981  -6.093  -6.822  0.00  0.00    +0.005 A 
ATOM     13  C   UNL     1      -9.222  -5.811  -9.207  0.00  0.00    +0.005 A 
ATOM     14  C   UNL     1      -7.660  -6.509  -7.008  0.00  0.00    +0.000 A 
ATOM     15  C   UNL     1      -7.903  -6.226  -9.388  0.00  0.00    +0.000 A 
ATOM     16  C   UNL     1      -7.123  -6.577  -8.289  0.00  0.00    +0.000 A 
ENDBRANCH  10  11
ENDBRANCH   1  10
TORSDOF 2
ENDMDL
MODEL 3
REMARK VINA RESULT:    -6.410      3.073      4.016
REMARK INTER + INTRA:          -7.285
REMARK INTER:                  -7.169
REMARK INTRA:                  -0.116
REMARK UNBOUND:                -0.126
REMARK  Name = 1550473
REMARK  2 active torsions:
REMARK  status: ('A' for Active; 'I' for Inactive)
REMARK    1  A    between atoms: N_1  and  C_4
REMARK    2  A    between atoms: C_4  and  C_5
REMARK                            x       y       z     vdW  Elec       q    Type
REMARK                         _______ _______ _______ _____ _____    ______ ____
ROOT
ATOM      1  N   UNL     1     -11.619  -4.123 -10.259  0.00  0.00    -0.354 N 
ATOM      2  N   UNL     1     -12.196  -2.607 -11.912  0.00  0.00    -0.372 N 
ATOM      3  N   UNL     1     -13.686  -4.261 -11.354  0.00  0.00    -0.372 N 
ATOM      4  C   UNL     1     -12.499  -3.675 -11.164  0.00  0.00    +0.166 C 
ATOM      5  H   UNL     1     -10.724  -3.653 -10.185  0.00  0.00    +0.163 HD
ATOM      6  H   UNL     1     -12.842  -2.245 -12.601  0.00  0.00    +0.159 HD
ATOM      7  H   UNL     1     -11.320  -2.112 -11.804  0.00  0.00    +0.159 HD
ATOM      8  H   UNL     1     -13.973  -5.074 -10.826  0.00  0.00    +0.159 HD
ATOM      9  H   UNL     1     -14.341  -3.920 -12.047  0.00  0.00    +0.159 HD
ENDROOT
BRANCH   1  10
ATOM     10  C   UNL     1     -11.873  -5.245  -9.357  0.00  0.00    +0.151 C 
BRANCH  10  11
ATOM     11  C   UNL     1     -10.618  -5.550  -8.587  0.00  0.00    -0.028 A 
ATOM     12  C   UNL     1      -9.359  -5.378  -9.180  0.00  0.00    +0.005 A 
ATOM     13  C   UNL     1     -10.681  -6.006  -7.261  0.00  0.00    +0.005 A 
ATOM     14  C   UNL     1      -8.192  -5.632  -8.455  0.00  0.00    +0.000 A 
ATOM     15  C   UNL     1      -9.514  -6.259  -6.541  0.00  0.00    +0.000 A 
ATOM     16  C   UNL     1      -8.270  -6.070  -7.137  0.00  0.00    +0.000 A 
ENDBRANCH  10  11
ENDBRANCH   1  10
TORSDOF 2
ENDMDL
MODEL 4
REMARK VINA RESULT:    -5.651      3.354      4.494
REMARK INTER + INTRA:          -6.437
REMARK INTER:                  -6.296
REMARK INTRA:                  -0.141
REMARK UNBOUND:                -0.126
REMARK  Name = 1550473
REMARK  2 active torsions:
REMARK  status: ('A' for Active; 'I' for Inactive)
REMARK    1  A    between atoms: N_1  and  C_4
REMARK    2  A    between atoms: C_4  and  C_5
REMARK                            x       y       z     vdW  Elec       q    Type
REMARK                         _______ _______ _______ _____ _____    ______ ____
ROOT
ATOM      1  N   UNL     1     -12.162  -4.660 -10.821  0.00  0.00    -0.354 N 
ATOM      2  N   UNL     1     -13.761  -4.468 -12.486  0.00  0.00    -0.372 N 
ATOM      3  N   UNL     1     -13.322  -2.652 -11.154  0.00  0.00    -0.372 N 
ATOM      4  C   UNL     1     -13.072  -3.925 -11.475  0.00  0.00    +0.166 C 
ATOM      5  H   UNL     1     -12.041  -5.629 -11.093  0.00  0.00    +0.163 HD
ATOM      6  H   UNL     1     -14.451  -3.937 -13.000  0.00  0.00    +0.159 HD
ATOM      7  H   UNL     1     -13.605  -5.422 -12.785  0.00  0.00    +0.159 HD
ATOM      8  H   UNL     1     -12.840  -2.185 -10.397  0.00  0.00    +0.159 HD
ATOM      9  H   UNL     1     -14.018  -2.107 -11.649  0.00  0.00    +0.159 HD
ENDROOT
BRANCH   1  10
ATOM     10  C   UNL     1     -11.320  -4.149  -9.741  0.00  0.00    +0.151 C 
BRANCH  10  11
ATOM     11  C   UNL     1     -11.368  -5.108  -8.584  0.00  0.00    -0.028 A 
ATOM     12  C   UNL     1     -10.200  -5.432  -7.879  0.00  0.00    +0.005 A 
ATOM     13  C   UNL     1     -12.580  -5.692  -8.184  0.00  0.00    +0.005 A 
ATOM     14  C   UNL     1     -10.249  -6.300  -6.786  0.00  0.00    +0.000 A 
ATOM     15  C   UNL     1     -12.625  -6.559  -7.092  0.00  0.00    +0.000 A 
ATOM     16  C   UNL     1     -11.459  -6.860  -6.392  0.00  0.00    +0.000 A 
ENDBRANCH  10  11
ENDBRANCH   1  10
TORSDOF 2
ENDMDL
MODEL 5
REMARK VINA RESULT:    -4.917     20.195     21.305
REMARK INTER + INTRA:          -5.617
REMARK INTER:                  -5.492
REMARK INTRA:                  -0.125
REMARK UNBOUND:                -0.126
REMARK  Name = 1550473
REMARK  2 active torsions:
REMARK  status: ('A' for Active; 'I' for Inactive)
REMARK    1  A    between atoms: N_1  and  C_4
REMARK    2  A    between atoms: C_4  and  C_5
REMARK                            x       y       z     vdW  Elec       q    Type
REMARK                         _______ _______ _______ _____ _____    ______ ____
ROOT
ATOM      1  N   UNL     1      -4.594  -0.694  10.983  0.00  0.00    -0.354 N 
ATOM      2  N   UNL     1      -3.483  -2.688  10.585  0.00  0.00    -0.372 N 
ATOM      3  N   UNL     1      -5.625  -2.436   9.802  0.00  0.00    -0.372 N 
ATOM      4  C   UNL     1      -4.577  -1.927  10.458  0.00  0.00    +0.166 C 
ATOM      5  H   UNL     1      -3.778  -0.378  11.494  0.00  0.00    +0.163 HD
ATOM      6  H   UNL     1      -3.440  -3.620  10.197  0.00  0.00    +0.159 HD
ATOM      7  H   UNL     1      -2.652  -2.352  11.058  0.00  0.00    +0.159 HD
ATOM      8  H   UNL     1      -6.483  -1.916   9.677  0.00  0.00    +0.159 HD
ATOM      9  H   UNL     1      -5.606  -3.372   9.417  0.00  0.00    +0.159 HD
ENDROOT
BRANCH   1  10
ATOM     10  C   UNL     1      -5.715   0.234  10.854  0.00  0.00    +0.151 C 
BRANCH  10  11
ATOM     11  C   UNL     1      -5.619   1.274  11.936  0.00  0.00    -0.028 A 
ATOM     12  C   UNL     1      -6.298   2.495  11.812  0.00  0.00    +0.005 A 
ATOM     13  C   UNL     1      -4.856   1.041  13.091  0.00  0.00    +0.005 A 
ATOM     14  C   UNL     1      -6.234   3.449  12.831  0.00  0.00    +0.000 A 
ATOM     15  C   UNL     1      -4.794   1.996  14.105  0.00  0.00    +0.000 A 
ATOM     16  C   UNL     1      -5.485   3.199  13.976  0.00  0.00    +0.000 A 
ENDBRANCH  10  11
ENDBRANCH   1  10
TORSDOF 2
ENDMDL
MODEL 6
REMARK VINA RESULT:    -4.855     42.681     43.577
REMARK INTER + INTRA:          -5.548
REMARK INTER:                  -5.410
REMARK INTRA:                  -0.137
REMARK UNBOUND:                -0.126
REMARK  Name = 1550473
REMARK  2 active torsions:
REMARK  status: ('A' for Active; 'I' for Inactive)
REMARK    1  A    between atoms: N_1  and  C_4
REMARK    2  A    between atoms: C_4  and  C_5
REMARK                            x       y       z     vdW  Elec       q    Type
REMARK                         _______ _______ _______ _____ _____    ______ ____
ROOT
ATOM      1  N   UNL     1       7.413   1.883  31.985  0.00  0.00    -0.354 N 
ATOM      2  N   UNL     1       5.790   3.194  32.991  0.00  0.00    -0.372 N 
ATOM      3  N   UNL     1       5.504   2.558  30.805  0.00  0.00    -0.372 N 
ATOM      4  C   UNL     1       6.245   2.536  31.918  0.00  0.00    +0.166 C 
ATOM      5  H   UNL     1       7.942   1.930  32.848  0.00  0.00    +0.163 HD
ATOM      6  H   UNL     1       4.911   3.693  32.972  0.00  0.00    +0.159 HD
ATOM      7  H   UNL     1       6.299   3.201  33.867  0.00  0.00    +0.159 HD
ATOM      8  H   UNL     1       5.794   2.087  29.959  0.00  0.00    +0.159 HD
ATOM      9  H   UNL     1       4.627   3.062  30.762  0.00  0.00    +0.159 HD
ENDROOT
BRANCH   1  10
ATOM     10  C   UNL     1       7.971   1.091  30.890  0.00  0.00    +0.151 C 
BRANCH  10  11
ATOM     11  C   UNL     1       9.345   1.608  30.561  0.00  0.00    -0.028 A 
ATOM     12  C   UNL     1      10.170   0.915  29.663  0.00  0.00    +0.005 A 
ATOM     13  C   UNL     1       9.825   2.792  31.140  0.00  0.00    +0.005 A 
ATOM     14  C   UNL     1      11.434   1.410  29.335  0.00  0.00    +0.000 A 
ATOM     15  C   UNL     1      11.088   3.283  30.810  0.00  0.00    +0.000 A 
ATOM     16  C   UNL     1      11.891   2.593  29.905  0.00  0.00    +0.000 A 
ENDBRANCH  10  11
ENDBRANCH   1  10
TORSDOF 2
ENDMDL
MODEL 7
REMARK VINA RESULT:    -4.844      4.164      5.372
REMARK INTER + INTRA:          -5.536
REMARK INTER:                  -5.403
REMARK INTRA:                  -0.133
REMARK UNBOUND:                -0.126
REMARK  Name = 1550473
REMARK  2 active torsions:
REMARK  status: ('A' for Active; 'I' for Inactive)
REMARK    1  A    between atoms: N_1  and  C_4
REMARK    2  A    between atoms: C_4  and  C_5
REMARK                            x       y       z     vdW  Elec       q    Type
REMARK                         _______ _______ _______ _____ _____    ______ ____
ROOT
ATOM      1  N   UNL     1     -10.437  -3.478 -11.790  0.00  0.00    -0.354 N 
ATOM      2  N   UNL     1     -10.261  -2.906 -14.027  0.00  0.00    -0.372 N 
ATOM      3  N   UNL     1     -12.265  -3.699 -13.240  0.00  0.00    -0.372 N 
ATOM      4  C   UNL     1     -10.992  -3.366 -13.004  0.00  0.00    +0.166 C 
ATOM      5  H   UNL     1      -9.459  -3.237 -11.684  0.00  0.00    +0.163 HD
ATOM      6  H   UNL     1     -10.653  -2.807 -14.954  0.00  0.00    +0.159 HD
ATOM      7  H   UNL     1      -9.296  -2.622 -13.908  0.00  0.00    +0.159 HD
ATOM      8  H   UNL     1     -12.868  -4.058 -12.512  0.00  0.00    +0.159 HD
ATOM      9  H   UNL     1     -12.672  -3.618 -14.163  0.00  0.00    +0.159 HD
ENDROOT
BRANCH   1  10
ATOM     10  C   UNL     1     -11.161  -3.917 -10.598  0.00  0.00    +0.151 C 
BRANCH  10  11
ATOM     11  C   UNL     1     -10.218  -4.669  -9.700  0.00  0.00    -0.028 A 
ATOM     12  C   UNL     1     -10.660  -5.178  -8.470  0.00  0.00    +0.005 A 
ATOM     13  C   UNL     1      -8.883  -4.881 -10.076  0.00  0.00    +0.005 A 
ATOM     14  C   UNL     1      -9.793  -5.903  -7.650  0.00  0.00    +0.000 A 
ATOM     15  C   UNL     1      -8.020  -5.605  -9.253  0.00  0.00    +0.000 A 
ATOM     16  C   UNL     1      -8.475  -6.117  -8.041  0.00  0.00    +0.000 A 
ENDBRANCH  10  11
ENDBRANCH   1  10
TORSDOF 2
ENDMDL
MODEL 8
REMARK VINA RESULT:    -4.728      9.801     11.360
REMARK INTER + INTRA:          -5.406
REMARK INTER:                  -5.242
REMARK INTRA:                  -0.164
REMARK UNBOUND:                -0.126
REMARK  Name = 1550473
REMARK  2 active torsions:
REMARK  status: ('A' for Active; 'I' for Inactive)
REMARK    1  A    between atoms: N_1  and  C_4
REMARK    2  A    between atoms: C_4  and  C_5
REMARK                            x       y       z     vdW  Elec       q    Type
REMARK                         _______ _______ _______ _____ _____    ______ ____
ROOT
ATOM      1  N   UNL     1      -8.439  -8.661 -16.901  0.00  0.00    -0.354 N 
ATOM      2  N   UNL     1      -6.532  -7.348 -16.982  0.00  0.00    -0.372 N 
ATOM      3  N   UNL     1      -8.065  -6.977 -15.315  0.00  0.00    -0.372 N 
ATOM      4  C   UNL     1      -7.693  -7.669 -16.397  0.00  0.00    +0.166 C 
ATOM      5  H   UNL     1      -8.116  -9.127 -17.741  0.00  0.00    +0.163 HD
ATOM      6  H   UNL     1      -5.946  -6.607 -16.621  0.00  0.00    +0.159 HD
ATOM      7  H   UNL     1      -6.189  -7.847 -17.794  0.00  0.00    +0.159 HD
ATOM      8  H   UNL     1      -8.932  -7.166 -14.831  0.00  0.00    +0.159 HD
ATOM      9  H   UNL     1      -7.498  -6.224 -14.946  0.00  0.00    +0.159 HD
ENDROOT
BRANCH   1  10
ATOM     10  C   UNL     1      -9.692  -9.124 -16.308  0.00  0.00    +0.151 C 
BRANCH  10  11
ATOM     11  C   UNL     1     -10.840  -8.670 -17.167  0.00  0.00    -0.028 A 
ATOM     12  C   UNL     1     -10.876  -8.989 -18.532  0.00  0.00    +0.005 A 
ATOM     13  C   UNL     1     -11.896  -7.926 -16.620  0.00  0.00    +0.005 A 
ATOM     14  C   UNL     1     -11.957  -8.593 -19.325  0.00  0.00    +0.000 A 
ATOM     15  C   UNL     1     -12.973  -7.532 -17.415  0.00  0.00    +0.000 A 
ATOM     16  C   UNL     1     -13.004  -7.868 -18.766  0.00  0.00    +0.000 A 
ENDBRANCH  10  11
ENDBRANCH   1  10
TORSDOF 2
ENDMDL
MODEL 9
REMARK VINA RESULT:    -4.507      4.015      5.201
REMARK INTER + INTRA:          -5.159
REMARK INTER:                  -4.993
REMARK INTRA:                  -0.167
REMARK UNBOUND:                -0.126
REMARK  Name = 1550473
REMARK  2 active torsions:
REMARK  status: ('A' for Active; 'I' for Inactive)
REMARK    1  A    between atoms: N_1  and  C_4
REMARK    2  A    between atoms: C_4  and  C_5
REMARK                            x       y       z     vdW  Elec       q    Type
REMARK                         _______ _______ _______ _____ _____    ______ ____
ROOT
ATOM      1  N   UNL     1     -12.504  -4.449  -8.892  0.00  0.00    -0.354 N 
ATOM      2  N   UNL     1     -12.340  -6.453  -7.742  0.00  0.00    -0.372 N 
ATOM      3  N   UNL     1     -10.421  -5.449  -8.500  0.00  0.00    -0.372 N 
ATOM      4  C   UNL     1     -11.753  -5.437  -8.386  0.00  0.00    +0.166 C 
ATOM      5  H   UNL     1     -13.511  -4.514  -8.799  0.00  0.00    +0.163 HD
ATOM      6  H   UNL     1     -11.799  -7.211  -7.347  0.00  0.00    +0.159 HD
ATOM      7  H   UNL     1     -13.343  -6.492  -7.610  0.00  0.00    +0.159 HD
ATOM      8  H   UNL     1      -9.918  -4.715  -8.980  0.00  0.00    +0.159 HD
ATOM      9  H   UNL     1      -9.863  -6.204  -8.122  0.00  0.00    +0.159 HD
ENDROOT
BRANCH   1  10
ATOM     10  C   UNL     1     -11.959  -3.271  -9.564  0.00  0.00    +0.151 C 
BRANCH  10  11
ATOM     11  C   UNL     1     -12.079  -3.455 -11.052  0.00  0.00    -0.028 A 
ATOM     12  C   UNL     1     -11.053  -3.025 -11.907  0.00  0.00    +0.005 A 
ATOM     13  C   UNL     1     -13.212  -4.064 -11.612  0.00  0.00    +0.005 A 
ATOM     14  C   UNL     1     -11.151  -3.223 -13.287  0.00  0.00    +0.000 A 
ATOM     15  C   UNL     1     -13.306  -4.258 -12.990  0.00  0.00    +0.000 A 
ATOM     16  C   UNL     1     -12.274  -3.840 -13.827  0.00  0.00    +0.000 A 
ENDBRANCH  10  11
ENDBRANCH   1  10
TORSDOF 2
ENDMDL
