MODEL 1
REMARK VINA RESULT:    -4.979      0.000      0.000
REMARK INTER + INTRA:          -5.687
REMARK INTER:                  -5.561
REMARK INTRA:                  -0.126
REMARK UNBOUND:                -0.126
REMARK  Name = 1550473
REMARK  2 active torsions:
REMARK  status: ('A' for Active; 'I' for Inactive)
REMARK    1  A    between atoms: N_1  and  C_4
REMARK    2  A    between atoms: C_4  and  C_5
REMARK                            x       y       z     vdW  Elec       q    Type
REMARK                         _______ _______ _______ _____ _____    ______ ____
ROOT
ATOM      1  N   UNL     1     -10.910   8.523  12.081  0.00  0.00    -0.354 N 
ATOM      2  N   UNL     1     -10.407   6.272  11.869  0.00  0.00    -0.372 N 
ATOM      3  N   UNL     1     -12.291   7.089  10.844  0.00  0.00    -0.372 N 
ATOM      4  C   UNL     1     -11.208   7.309  11.598  0.00  0.00    +0.166 C 
ATOM      5  H   UNL     1     -10.091   8.618  12.671  0.00  0.00    +0.163 HD
ATOM      6  H   UNL     1     -10.605   5.345  11.515  0.00  0.00    +0.159 HD
ATOM      7  H   UNL     1      -9.565   6.379  12.421  0.00  0.00    +0.159 HD
ATOM      8  H   UNL     1     -12.939   7.829  10.609  0.00  0.00    +0.159 HD
ATOM      9  H   UNL     1     -12.512   6.167  10.491  0.00  0.00    +0.159 HD
ENDROOT
BRANCH   1  10
ATOM     10  C   UNL     1     -11.687   9.728  11.801  0.00  0.00    +0.151 C 
BRANCH  10  11
ATOM     11  C   UNL     1     -10.814  10.935  12.007  0.00  0.00    -0.028 A 
ATOM     12  C   UNL     1     -11.268  12.212  11.646  0.00  0.00    +0.005 A 
ATOM     13  C   UNL     1      -9.533  10.809  12.567  0.00  0.00    +0.005 A 
ATOM     14  C   UNL     1     -10.468  13.337  11.865  0.00  0.00    +0.000 A 
ATOM     15  C   UNL     1      -8.738  11.934  12.783  0.00  0.00    +0.000 A 
ATOM     16  C   UNL     1      -9.207  13.198  12.434  0.00  0.00    +0.000 A 
ENDBRANCH  10  11
ENDBRANCH   1  10
TORSDOF 2
ENDMDL
MODEL 2
REMARK VINA RESULT:    -4.850      5.765      7.397
REMARK INTER + INTRA:          -5.543
REMARK INTER:                  -5.369
REMARK INTRA:                  -0.174
REMARK UNBOUND:                -0.126
REMARK  Name = 1550473
REMARK  2 active torsions:
REMARK  status: ('A' for Active; 'I' for Inactive)
REMARK    1  A    between atoms: N_1  and  C_4
REMARK    2  A    between atoms: C_4  and  C_5
REMARK                            x       y       z     vdW  Elec       q    Type
REMARK                         _______ _______ _______ _____ _____    ______ ____
ROOT
ATOM      1  N   UNL     1      -9.644  15.303  10.565  0.00  0.00    -0.354 N 
ATOM      2  N   UNL     1      -9.418  13.747  12.266  0.00  0.00    -0.372 N 
ATOM      3  N   UNL     1     -11.078  15.324  12.418  0.00  0.00    -0.372 N 
ATOM      4  C   UNL     1     -10.050  14.803  11.740  0.00  0.00    +0.166 C 
ATOM      5  H   UNL     1      -8.839  14.882  10.115  0.00  0.00    +0.163 HD
ATOM      6  H   UNL     1      -9.704  13.346  13.149  0.00  0.00    +0.159 HD
ATOM      7  H   UNL     1      -8.643  13.300  11.792  0.00  0.00    +0.159 HD
ATOM      8  H   UNL     1     -11.594  16.124  12.078  0.00  0.00    +0.159 HD
ATOM      9  H   UNL     1     -11.372  14.944  13.309  0.00  0.00    +0.159 HD
ENDROOT
BRANCH   1  10
ATOM     10  C   UNL     1     -10.298  16.416   9.880  0.00  0.00    +0.151 C 
BRANCH  10  11
ATOM     11  C   UNL     1      -9.489  17.666  10.091  0.00  0.00    -0.028 A 
ATOM     12  C   UNL     1      -9.748  18.507  11.183  0.00  0.00    +0.005 A 
ATOM     13  C   UNL     1      -8.457  18.012   9.205  0.00  0.00    +0.005 A 
ATOM     14  C   UNL     1      -8.977  19.652  11.395  0.00  0.00    +0.000 A 
ATOM     15  C   UNL     1      -7.690  19.157   9.420  0.00  0.00    +0.000 A 
ATOM     16  C   UNL     1      -7.948  19.975  10.517  0.00  0.00    +0.000 A 
ENDBRANCH  10  11
ENDBRANCH   1  10
TORSDOF 2
ENDMDL
MODEL 3
REMARK VINA RESULT:    -4.703     24.169     25.905
REMARK INTER + INTRA:          -5.379
REMARK INTER:                  -5.230
REMARK INTRA:                  -0.148
REMARK UNBOUND:                -0.126
REMARK  Name = 1550473
REMARK  2 active torsions:
REMARK  status: ('A' for Active; 'I' for Inactive)
REMARK    1  A    between atoms: N_1  and  C_4
REMARK    2  A    between atoms: C_4  and  C_5
REMARK                            x       y       z     vdW  Elec       q    Type
REMARK                         _______ _______ _______ _____ _____    ______ ____
ROOT
ATOM      1  N   UNL     1       5.381  22.662  26.298  0.00  0.00    -0.354 N 
ATOM      2  N   UNL     1       3.918  21.060  25.488  0.00  0.00    -0.372 N 
ATOM      3  N   UNL     1       3.544  23.264  24.973  0.00  0.00    -0.372 N 
ATOM      4  C   UNL     1       4.290  22.342  25.591  0.00  0.00    +0.166 C 
ATOM      5  H   UNL     1       5.886  21.919  26.768  0.00  0.00    +0.163 HD
ATOM      6  H   UNL     1       3.101  20.787  24.959  0.00  0.00    +0.159 HD
ATOM      7  H   UNL     1       4.451  20.315  25.921  0.00  0.00    +0.159 HD
ATOM      8  H   UNL     1       3.767  24.250  25.017  0.00  0.00    +0.159 HD
ATOM      9  H   UNL     1       2.716  23.012  24.448  0.00  0.00    +0.159 HD
ENDROOT
BRANCH   1  10
ATOM     10  C   UNL     1       5.902  24.022  26.427  0.00  0.00    +0.151 C 
BRANCH  10  11
ATOM     11  C   UNL     1       7.296  24.070  25.866  0.00  0.00    -0.028 A 
ATOM     12  C   UNL     1       8.378  24.443  26.677  0.00  0.00    +0.005 A 
ATOM     13  C   UNL     1       7.542  23.739  24.525  0.00  0.00    +0.005 A 
ATOM     14  C   UNL     1       9.677  24.459  26.164  0.00  0.00    +0.000 A 
ATOM     15  C   UNL     1       8.841  23.757  24.016  0.00  0.00    +0.000 A 
ATOM     16  C   UNL     1       9.908  24.114  24.836  0.00  0.00    +0.000 A 
ENDBRANCH  10  11
ENDBRANCH   1  10
TORSDOF 2
ENDMDL
MODEL 4
REMARK VINA RESULT:    -4.689     24.959     26.377
REMARK INTER + INTRA:          -5.363
REMARK INTER:                  -5.238
REMARK INTRA:                  -0.125
REMARK UNBOUND:                -0.126
REMARK  Name = 1550473
REMARK  2 active torsions:
REMARK  status: ('A' for Active; 'I' for Inactive)
REMARK    1  A    between atoms: N_1  and  C_4
REMARK    2  A    between atoms: C_4  and  C_5
REMARK                            x       y       z     vdW  Elec       q    Type
REMARK                         _______ _______ _______ _____ _____    ______ ____
ROOT
ATOM      1  N   UNL     1      15.381  18.056   9.717  0.00  0.00    -0.354 N 
ATOM      2  N   UNL     1      16.275  19.976   8.779  0.00  0.00    -0.372 N 
ATOM      3  N   UNL     1      15.100  18.531   7.439  0.00  0.00    -0.372 N 
ATOM      4  C   UNL     1      15.578  18.840   8.649  0.00  0.00    +0.166 C 
ATOM      5  H   UNL     1      15.796  18.331  10.600  0.00  0.00    +0.163 HD
ATOM      6  H   UNL     1      16.437  20.589   7.992  0.00  0.00    +0.159 HD
ATOM      7  H   UNL     1      16.649  20.272   9.673  0.00  0.00    +0.159 HD
ATOM      8  H   UNL     1      14.571  17.685   7.273  0.00  0.00    +0.159 HD
ATOM      9  H   UNL     1      15.261  19.126   6.637  0.00  0.00    +0.159 HD
ENDROOT
BRANCH   1  10
ATOM     10  C   UNL     1      14.592  16.826   9.693  0.00  0.00    +0.151 C 
BRANCH  10  11
ATOM     11  C   UNL     1      14.046  16.566  11.070  0.00  0.00    -0.028 A 
ATOM     12  C   UNL     1      13.003  15.648  11.261  0.00  0.00    +0.005 A 
ATOM     13  C   UNL     1      14.572  17.230  12.189  0.00  0.00    +0.005 A 
ATOM     14  C   UNL     1      12.516  15.384  12.544  0.00  0.00    +0.000 A 
ATOM     15  C   UNL     1      14.083  16.964  13.468  0.00  0.00    +0.000 A 
ATOM     16  C   UNL     1      13.057  16.039  13.645  0.00  0.00    +0.000 A 
ENDBRANCH  10  11
ENDBRANCH   1  10
TORSDOF 2
ENDMDL
MODEL 5
REMARK VINA RESULT:    -4.592     17.581     19.289
REMARK INTER + INTRA:          -5.255
REMARK INTER:                  -5.140
REMARK INTRA:                  -0.115
REMARK UNBOUND:                -0.126
REMARK  Name = 1550473
REMARK  2 active torsions:
REMARK  status: ('A' for Active; 'I' for Inactive)
REMARK    1  A    between atoms: N_1  and  C_4
REMARK    2  A    between atoms: C_4  and  C_5
REMARK                            x       y       z     vdW  Elec       q    Type
REMARK                         _______ _______ _______ _____ _____    ______ ____
ROOT
ATOM      1  N   UNL     1      -5.499  -4.904   0.105  0.00  0.00    -0.354 N 
ATOM      2  N   UNL     1      -4.064  -4.073  -1.512  0.00  0.00    -0.372 N 
ATOM      3  N   UNL     1      -4.325  -6.345  -1.322  0.00  0.00    -0.372 N 
ATOM      4  C   UNL     1      -4.638  -5.115  -0.899  0.00  0.00    +0.166 C 
ATOM      5  H   UNL     1      -5.671  -3.949   0.398  0.00  0.00    +0.163 HD
ATOM      6  H   UNL     1      -3.413  -4.201  -2.275  0.00  0.00    +0.159 HD
ATOM      7  H   UNL     1      -4.273  -3.118  -1.247  0.00  0.00    +0.159 HD
ATOM      8  H   UNL     1      -4.719  -7.173  -0.897  0.00  0.00    +0.159 HD
ATOM      9  H   UNL     1      -3.666  -6.494  -2.076  0.00  0.00    +0.159 HD
ENDROOT
BRANCH   1  10
ATOM     10  C   UNL     1      -6.219  -5.967   0.803  0.00  0.00    +0.151 C 
BRANCH  10  11
ATOM     11  C   UNL     1      -6.996  -5.369   1.943  0.00  0.00    -0.028 A 
ATOM     12  C   UNL     1      -8.235  -5.906   2.320  0.00  0.00    +0.005 A 
ATOM     13  C   UNL     1      -6.495  -4.268   2.654  0.00  0.00    +0.005 A 
ATOM     14  C   UNL     1      -8.943  -5.370   3.398  0.00  0.00    +0.000 A 
ATOM     15  C   UNL     1      -7.205  -3.734   3.730  0.00  0.00    +0.000 A 
ATOM     16  C   UNL     1      -8.428  -4.287   4.103  0.00  0.00    +0.000 A 
ENDBRANCH  10  11
ENDBRANCH   1  10
TORSDOF 2
ENDMDL
MODEL 6
REMARK VINA RESULT:    -4.565     10.399     11.026
REMARK INTER + INTRA:          -5.225
REMARK INTER:                  -5.103
REMARK INTRA:                  -0.122
REMARK UNBOUND:                -0.126
REMARK  Name = 1550473
REMARK  2 active torsions:
REMARK  status: ('A' for Active; 'I' for Inactive)
REMARK    1  A    between atoms: N_1  and  C_4
REMARK    2  A    between atoms: C_4  and  C_5
REMARK                            x       y       z     vdW  Elec       q    Type
REMARK                         _______ _______ _______ _____ _____    ______ ____
ROOT
ATOM      1  N   UNL     1      -1.333   7.809   4.725  0.00  0.00    -0.354 N 
ATOM      2  N   UNL     1       0.069   6.384   3.555  0.00  0.00    -0.372 N 
ATOM      3  N   UNL     1      -0.898   8.146   2.447  0.00  0.00    -0.372 N 
ATOM      4  C   UNL     1      -0.731   7.457   3.581  0.00  0.00    +0.166 C 
ATOM      5  H   UNL     1      -1.189   7.227   5.543  0.00  0.00    +0.163 HD
ATOM      6  H   UNL     1       0.539   6.097   2.707  0.00  0.00    +0.159 HD
ATOM      7  H   UNL     1       0.247   5.832   4.385  0.00  0.00    +0.159 HD
ATOM      8  H   UNL     1      -1.494   8.962   2.399  0.00  0.00    +0.159 HD
ATOM      9  H   UNL     1      -0.445   7.867   1.586  0.00  0.00    +0.159 HD
ENDROOT
BRANCH   1  10
ATOM     10  C   UNL     1      -2.181   8.990   4.874  0.00  0.00    +0.151 C 
BRANCH  10  11
ATOM     11  C   UNL     1      -2.641   9.088   6.302  0.00  0.00    -0.028 A 
ATOM     12  C   UNL     1      -2.518   7.991   7.167  0.00  0.00    +0.005 A 
ATOM     13  C   UNL     1      -3.197  10.278   6.798  0.00  0.00    +0.005 A 
ATOM     14  C   UNL     1      -2.918   8.091   8.502  0.00  0.00    +0.000 A 
ATOM     15  C   UNL     1      -3.596  10.373   8.131  0.00  0.00    +0.000 A 
ATOM     16  C   UNL     1      -3.454   9.280   8.983  0.00  0.00    +0.000 A 
ENDBRANCH  10  11
ENDBRANCH   1  10
TORSDOF 2
ENDMDL
MODEL 7
REMARK VINA RESULT:    -4.513     18.551     19.545
REMARK INTER + INTRA:          -5.166
REMARK INTER:                  -5.037
REMARK INTRA:                  -0.130
REMARK UNBOUND:                -0.126
REMARK  Name = 1550473
REMARK  2 active torsions:
REMARK  status: ('A' for Active; 'I' for Inactive)
REMARK    1  A    between atoms: N_1  and  C_4
REMARK    2  A    between atoms: C_4  and  C_5
REMARK                            x       y       z     vdW  Elec       q    Type
REMARK                         _______ _______ _______ _____ _____    ______ ____
ROOT
ATOM      1  N   UNL     1       5.735   5.340  19.792  0.00  0.00    -0.354 N 
ATOM      2  N   UNL     1       5.488   3.190  18.969  0.00  0.00    -0.372 N 
ATOM      3  N   UNL     1       4.222   3.841  20.768  0.00  0.00    -0.372 N 
ATOM      4  C   UNL     1       5.148   4.137  19.851  0.00  0.00    +0.166 C 
ATOM      5  H   UNL     1       6.452   5.493  19.092  0.00  0.00    +0.163 HD
ATOM      6  H   UNL     1       5.060   2.274  18.987  0.00  0.00    +0.159 HD
ATOM      7  H   UNL     1       6.171   3.359  18.241  0.00  0.00    +0.159 HD
ATOM      8  H   UNL     1       3.926   4.510  21.466  0.00  0.00    +0.159 HD
ATOM      9  H   UNL     1       3.790   2.926  20.810  0.00  0.00    +0.159 HD
ENDROOT
BRANCH   1  10
ATOM     10  C   UNL     1       5.398   6.458  20.671  0.00  0.00    +0.151 C 
BRANCH  10  11
ATOM     11  C   UNL     1       6.584   7.377  20.775  0.00  0.00    -0.028 A 
ATOM     12  C   UNL     1       7.827   6.997  20.247  0.00  0.00    +0.005 A 
ATOM     13  C   UNL     1       6.471   8.630  21.396  0.00  0.00    +0.005 A 
ATOM     14  C   UNL     1       8.922   7.862  20.317  0.00  0.00    +0.000 A 
ATOM     15  C   UNL     1       7.567   9.490  21.464  0.00  0.00    +0.000 A 
ATOM     16  C   UNL     1       8.791   9.107  20.923  0.00  0.00    +0.000 A 
ENDBRANCH  10  11
ENDBRANCH   1  10
TORSDOF 2
ENDMDL
MODEL 8
REMARK VINA RESULT:    -4.421      6.897      7.916
REMARK INTER + INTRA:          -5.064
REMARK INTER:                  -4.951
REMARK INTRA:                  -0.112
REMARK UNBOUND:                -0.126
REMARK  Name = 1550473
REMARK  2 active torsions:
REMARK  status: ('A' for Active; 'I' for Inactive)
REMARK    1  A    between atoms: N_1  and  C_4
REMARK    2  A    between atoms: C_4  and  C_5
REMARK                            x       y       z     vdW  Elec       q    Type
REMARK                         _______ _______ _______ _____ _____    ______ ____
ROOT
ATOM      1  N   UNL     1     -11.176  16.398   8.739  0.00  0.00    -0.354 N 
ATOM      2  N   UNL     1     -13.202  15.422   8.185  0.00  0.00    -0.372 N 
ATOM      3  N   UNL     1     -11.262  14.452   7.436  0.00  0.00    -0.372 N 
ATOM      4  C   UNL     1     -11.865  15.429   8.122  0.00  0.00    +0.166 C 
ATOM      5  H   UNL     1     -11.693  17.126   9.217  0.00  0.00    +0.163 HD
ATOM      6  H   UNL     1     -13.749  14.702   7.733  0.00  0.00    +0.159 HD
ATOM      7  H   UNL     1     -13.714  16.126   8.703  0.00  0.00    +0.159 HD
ATOM      8  H   UNL     1     -10.256  14.403   7.345  0.00  0.00    +0.159 HD
ATOM      9  H   UNL     1     -11.793  13.729   6.966  0.00  0.00    +0.159 HD
ENDROOT
BRANCH   1  10
ATOM     10  C   UNL     1      -9.716  16.466   8.776  0.00  0.00    +0.151 C 
BRANCH  10  11
ATOM     11  C   UNL     1      -9.300  17.627   9.636  0.00  0.00    -0.028 A 
ATOM     12  C   UNL     1      -8.216  18.435   9.266  0.00  0.00    +0.005 A 
ATOM     13  C   UNL     1      -9.991  17.928  10.820  0.00  0.00    +0.005 A 
ATOM     14  C   UNL     1      -7.848  19.532  10.049  0.00  0.00    +0.000 A 
ATOM     15  C   UNL     1      -9.620  19.024  11.600  0.00  0.00    +0.000 A 
ATOM     16  C   UNL     1      -8.550  19.827  11.212  0.00  0.00    +0.000 A 
ENDBRANCH  10  11
ENDBRANCH   1  10
TORSDOF 2
ENDMDL
MODEL 9
REMARK VINA RESULT:    -4.389      8.960     10.544
REMARK INTER + INTRA:          -5.028
REMARK INTER:                  -4.874
REMARK INTRA:                  -0.153
REMARK UNBOUND:                -0.126
REMARK  Name = 1550473
REMARK  2 active torsions:
REMARK  status: ('A' for Active; 'I' for Inactive)
REMARK    1  A    between atoms: N_1  and  C_4
REMARK    2  A    between atoms: C_4  and  C_5
REMARK                            x       y       z     vdW  Elec       q    Type
REMARK                         _______ _______ _______ _____ _____    ______ ____
ROOT
ATOM      1  N   UNL     1      -7.715  20.194   8.372  0.00  0.00    -0.354 N 
ATOM      2  N   UNL     1      -8.254  22.243   7.436  0.00  0.00    -0.372 N 
ATOM      3  N   UNL     1      -9.154  20.338   6.528  0.00  0.00    -0.372 N 
ATOM      4  C   UNL     1      -8.372  20.910   7.449  0.00  0.00    +0.166 C 
ATOM      5  H   UNL     1      -7.114  20.685   9.024  0.00  0.00    +0.163 HD
ATOM      6  H   UNL     1      -8.740  22.810   6.755  0.00  0.00    +0.159 HD
ATOM      7  H   UNL     1      -7.689  22.735   8.118  0.00  0.00    +0.159 HD
ATOM      8  H   UNL     1      -9.281  19.336   6.480  0.00  0.00    +0.159 HD
ATOM      9  H   UNL     1      -9.640  20.888   5.830  0.00  0.00    +0.159 HD
ENDROOT
BRANCH   1  10
ATOM     10  C   UNL     1      -7.819  18.742   8.506  0.00  0.00    +0.151 C 
BRANCH  10  11
ATOM     11  C   UNL     1      -8.693  18.419   9.686  0.00  0.00    -0.028 A 
ATOM     12  C   UNL     1      -9.400  17.209   9.738  0.00  0.00    +0.005 A 
ATOM     13  C   UNL     1      -8.813  19.316  10.759  0.00  0.00    +0.005 A 
ATOM     14  C   UNL     1     -10.188  16.895  10.848  0.00  0.00    +0.000 A 
ATOM     15  C   UNL     1      -9.602  18.999  11.864  0.00  0.00    +0.000 A 
ATOM     16  C   UNL     1     -10.287  17.788  11.910  0.00  0.00    +0.000 A 
ENDBRANCH  10  11
ENDBRANCH   1  10
TORSDOF 2
ENDMDL
