MODEL 1
REMARK VINA RESULT:    -5.443      0.000      0.000
REMARK INTER + INTRA:          -6.238
REMARK INTER:                  -6.080
REMARK INTRA:                  -0.158
REMARK UNBOUND:                -0.158
REMARK  Name = 1550473
REMARK  2 active torsions:
REMARK  status: ('A' for Active; 'I' for Inactive)
REMARK    1  A    between atoms: N_1  and  C_4
REMARK    2  A    between atoms: C_4  and  C_5
REMARK                            x       y       z     vdW  Elec       q    Type
REMARK                         _______ _______ _______ _____ _____    ______ ____
ROOT
ATOM      1  N   UNL     1     -12.787  -9.847  -2.221  0.00  0.00    -0.354 N 
ATOM      2  N   UNL     1     -13.549  -7.804  -1.439  0.00  0.00    -0.372 N 
ATOM      3  N   UNL     1     -14.455  -9.729  -0.580  0.00  0.00    -0.372 N 
ATOM      4  C   UNL     1     -13.594  -9.142  -1.417  0.00  0.00    +0.166 C 
ATOM      5  H   UNL     1     -12.178  -9.342  -2.855  0.00  0.00    +0.163 HD
ATOM      6  H   UNL     1     -14.143  -7.246  -0.841  0.00  0.00    +0.159 HD
ATOM      7  H   UNL     1     -12.907  -7.303  -2.040  0.00  0.00    +0.159 HD
ATOM      8  H   UNL     1     -14.542 -10.735  -0.519  0.00  0.00    +0.159 HD
ATOM      9  H   UNL     1     -15.066  -9.187   0.018  0.00  0.00    +0.159 HD
ENDROOT
BRANCH   1  10
ATOM     10  C   UNL     1     -12.720 -11.307  -2.236  0.00  0.00    +0.151 C 
BRANCH  10  11
ATOM     11  C   UNL     1     -13.299 -11.813  -3.528  0.00  0.00    -0.028 A 
ATOM     12  C   UNL     1     -12.747 -11.421  -4.757  0.00  0.00    +0.005 A 
ATOM     13  C   UNL     1     -14.395 -12.688  -3.531  0.00  0.00    +0.005 A 
ATOM     14  C   UNL     1     -13.266 -11.914  -5.957  0.00  0.00    +0.000 A 
ATOM     15  C   UNL     1     -14.911 -13.178  -4.731  0.00  0.00    +0.000 A 
ATOM     16  C   UNL     1     -14.344 -12.792  -5.943  0.00  0.00    +0.000 A 
ENDBRANCH  10  11
ENDBRANCH   1  10
TORSDOF 2
ENDMDL
MODEL 2
REMARK VINA RESULT:    -5.013     34.755     36.585
REMARK INTER + INTRA:          -5.758
REMARK INTER:                  -5.673
REMARK INTRA:                  -0.085
REMARK UNBOUND:                -0.158
REMARK  Name = 1550473
REMARK  2 active torsions:
REMARK  status: ('A' for Active; 'I' for Inactive)
REMARK    1  A    between atoms: N_1  and  C_4
REMARK    2  A    between atoms: C_4  and  C_5
REMARK                            x       y       z     vdW  Elec       q    Type
REMARK                         _______ _______ _______ _____ _____    ______ ____
ROOT
ATOM      1  N   UNL     1       8.559  17.057  -0.435  0.00  0.00    -0.354 N 
ATOM      2  N   UNL     1       8.481  15.356   1.135  0.00  0.00    -0.372 N 
ATOM      3  N   UNL     1       7.413  15.060  -0.874  0.00  0.00    -0.372 N 
ATOM      4  C   UNL     1       8.150  15.834  -0.070  0.00  0.00    +0.166 C 
ATOM      5  H   UNL     1       9.089  17.606   0.232  0.00  0.00    +0.163 HD
ATOM      6  H   UNL     1       8.190  14.436   1.437  0.00  0.00    +0.159 HD
ATOM      7  H   UNL     1       9.050  15.889   1.782  0.00  0.00    +0.159 HD
ATOM      8  H   UNL     1       7.125  15.365  -1.794  0.00  0.00    +0.159 HD
ATOM      9  H   UNL     1       7.102  14.141  -0.585  0.00  0.00    +0.159 HD
ENDROOT
BRANCH   1  10
ATOM     10  C   UNL     1       8.298  17.649  -1.746  0.00  0.00    +0.151 C 
BRANCH  10  11
ATOM     11  C   UNL     1       9.571  17.650  -2.547  0.00  0.00    -0.028 A 
ATOM     12  C   UNL     1      10.748  17.106  -2.013  0.00  0.00    +0.005 A 
ATOM     13  C   UNL     1       9.604  18.187  -3.842  0.00  0.00    +0.005 A 
ATOM     14  C   UNL     1      11.923  17.080  -2.768  0.00  0.00    +0.000 A 
ATOM     15  C   UNL     1      10.780  18.160  -4.593  0.00  0.00    +0.000 A 
ATOM     16  C   UNL     1      11.938  17.603  -4.056  0.00  0.00    +0.000 A 
ENDBRANCH  10  11
ENDBRANCH   1  10
TORSDOF 2
ENDMDL
MODEL 3
REMARK VINA RESULT:    -4.909     33.967     35.168
REMARK INTER + INTRA:          -5.641
REMARK INTER:                  -5.474
REMARK INTRA:                  -0.167
REMARK UNBOUND:                -0.158
REMARK  Name = 1550473
REMARK  2 active torsions:
REMARK  status: ('A' for Active; 'I' for Inactive)
REMARK    1  A    between atoms: N_1  and  C_4
REMARK    2  A    between atoms: C_4  and  C_5
REMARK                            x       y       z     vdW  Elec       q    Type
REMARK                         _______ _______ _______ _____ _____    ______ ____
ROOT
ATOM      1  N   UNL     1       8.128  17.352  -0.896  0.00  0.00    -0.354 N 
ATOM      2  N   UNL     1       7.772  16.150   1.051  0.00  0.00    -0.372 N 
ATOM      3  N   UNL     1       7.842  15.027  -0.948  0.00  0.00    -0.372 N 
ATOM      4  C   UNL     1       7.916  16.182  -0.279  0.00  0.00    +0.166 C 
ATOM      5  H   UNL     1       8.144  18.196  -0.335  0.00  0.00    +0.163 HD
ATOM      6  H   UNL     1       7.615  15.281   1.545  0.00  0.00    +0.159 HD
ATOM      7  H   UNL     1       7.834  16.989   1.614  0.00  0.00    +0.159 HD
ATOM      8  H   UNL     1       7.936  14.984  -1.954  0.00  0.00    +0.159 HD
ATOM      9  H   UNL     1       7.673  14.149  -0.473  0.00  0.00    +0.159 HD
ENDROOT
BRANCH   1  10
ATOM     10  C   UNL     1       8.351  17.489  -2.334  0.00  0.00    +0.151 C 
BRANCH  10  11
ATOM     11  C   UNL     1       7.048  17.829  -3.003  0.00  0.00    -0.028 A 
ATOM     12  C   UNL     1       6.340  16.853  -3.720  0.00  0.00    +0.005 A 
ATOM     13  C   UNL     1       6.513  19.123  -2.919  0.00  0.00    +0.005 A 
ATOM     14  C   UNL     1       5.115  17.160  -4.316  0.00  0.00    +0.000 A 
ATOM     15  C   UNL     1       5.289  19.426  -3.516  0.00  0.00    +0.000 A 
ATOM     16  C   UNL     1       4.590  18.444  -4.213  0.00  0.00    +0.000 A 
ENDBRANCH  10  11
ENDBRANCH   1  10
TORSDOF 2
ENDMDL
MODEL 4
REMARK VINA RESULT:    -4.895     35.594     36.791
REMARK INTER + INTRA:          -5.626
REMARK INTER:                  -5.529
REMARK INTRA:                  -0.097
REMARK UNBOUND:                -0.158
REMARK  Name = 1550473
REMARK  2 active torsions:
REMARK  status: ('A' for Active; 'I' for Inactive)
REMARK    1  A    between atoms: N_1  and  C_4
REMARK    2  A    between atoms: C_4  and  C_5
REMARK                            x       y       z     vdW  Elec       q    Type
REMARK                         _______ _______ _______ _____ _____    ______ ____
ROOT
ATOM      1  N   UNL     1       6.890  19.254  -2.568  0.00  0.00    -0.354 N 
ATOM      2  N   UNL     1       5.560  21.084  -3.065  0.00  0.00    -0.372 N 
ATOM      3  N   UNL     1       4.763  18.979  -3.512  0.00  0.00    -0.372 N 
ATOM      4  C   UNL     1       5.745  19.758  -3.046  0.00  0.00    +0.166 C 
ATOM      5  H   UNL     1       7.608  19.899  -2.257  0.00  0.00    +0.163 HD
ATOM      6  H   UNL     1       4.705  21.493  -3.416  0.00  0.00    +0.159 HD
ATOM      7  H   UNL     1       6.261  21.724  -2.711  0.00  0.00    +0.159 HD
ATOM      8  H   UNL     1       4.843  17.971  -3.532  0.00  0.00    +0.159 HD
ATOM      9  H   UNL     1       3.905  19.371  -3.879  0.00  0.00    +0.159 HD
ENDROOT
BRANCH   1  10
ATOM     10  C   UNL     1       7.169  17.824  -2.454  0.00  0.00    +0.151 C 
BRANCH  10  11
ATOM     11  C   UNL     1       8.644  17.626  -2.236  0.00  0.00    -0.028 A 
ATOM     12  C   UNL     1       9.136  17.275  -0.970  0.00  0.00    +0.005 A 
ATOM     13  C   UNL     1       9.555  17.784  -3.292  0.00  0.00    +0.005 A 
ATOM     14  C   UNL     1      10.503  17.063  -0.774  0.00  0.00    +0.000 A 
ATOM     15  C   UNL     1      10.918  17.572  -3.092  0.00  0.00    +0.000 A 
ATOM     16  C   UNL     1      11.392  17.209  -1.833  0.00  0.00    +0.000 A 
ENDBRANCH  10  11
ENDBRANCH   1  10
TORSDOF 2
ENDMDL
MODEL 5
REMARK VINA RESULT:    -4.869     34.057     35.692
REMARK INTER + INTRA:          -5.597
REMARK INTER:                  -5.428
REMARK INTRA:                  -0.169
REMARK UNBOUND:                -0.158
REMARK  Name = 1550473
REMARK  2 active torsions:
REMARK  status: ('A' for Active; 'I' for Inactive)
REMARK    1  A    between atoms: N_1  and  C_4
REMARK    2  A    between atoms: C_4  and  C_5
REMARK                            x       y       z     vdW  Elec       q    Type
REMARK                         _______ _______ _______ _____ _____    ______ ____
ROOT
ATOM      1  N   UNL     1       6.401  17.768  -2.828  0.00  0.00    -0.354 N 
ATOM      2  N   UNL     1       4.781  16.454  -3.836  0.00  0.00    -0.372 N 
ATOM      3  N   UNL     1       6.773  16.790  -4.925  0.00  0.00    -0.372 N 
ATOM      4  C   UNL     1       5.998  17.013  -3.859  0.00  0.00    +0.166 C 
ATOM      5  H   UNL     1       5.754  17.923  -2.063  0.00  0.00    +0.163 HD
ATOM      6  H   UNL     1       4.451  15.876  -4.598  0.00  0.00    +0.159 HD
ATOM      7  H   UNL     1       4.155  16.573  -3.050  0.00  0.00    +0.159 HD
ATOM      8  H   UNL     1       7.699  17.188  -5.006  0.00  0.00    +0.159 HD
ATOM      9  H   UNL     1       6.455  16.224  -5.703  0.00  0.00    +0.159 HD
ENDROOT
BRANCH   1  10
ATOM     10  C   UNL     1       7.726  18.377  -2.730  0.00  0.00    +0.151 C 
BRANCH  10  11
ATOM     11  C   UNL     1       8.593  17.527  -1.843  0.00  0.00    -0.028 A 
ATOM     12  C   UNL     1       9.942  17.312  -2.161  0.00  0.00    +0.005 A 
ATOM     13  C   UNL     1       8.073  16.938  -0.681  0.00  0.00    +0.005 A 
ATOM     14  C   UNL     1      10.756  16.547  -1.321  0.00  0.00    +0.000 A 
ATOM     15  C   UNL     1       8.888  16.174   0.154  0.00  0.00    +0.000 A 
ATOM     16  C   UNL     1      10.230  15.981  -0.165  0.00  0.00    +0.000 A 
ENDBRANCH  10  11
ENDBRANCH   1  10
TORSDOF 2
ENDMDL
MODEL 6
REMARK VINA RESULT:    -4.818      9.785     11.170
REMARK INTER + INTRA:          -5.540
REMARK INTER:                  -5.382
REMARK INTRA:                  -0.159
REMARK UNBOUND:                -0.158
REMARK  Name = 1550473
REMARK  2 active torsions:
REMARK  status: ('A' for Active; 'I' for Inactive)
REMARK    1  A    between atoms: N_1  and  C_4
REMARK    2  A    between atoms: C_4  and  C_5
REMARK                            x       y       z     vdW  Elec       q    Type
REMARK                         _______ _______ _______ _____ _____    ______ ____
ROOT
ATOM      1  N   UNL     1      -8.944 -18.048  -8.100  0.00  0.00    -0.354 N 
ATOM      2  N   UNL     1     -10.005 -18.233  -6.049  0.00  0.00    -0.372 N 
ATOM      3  N   UNL     1      -8.734 -19.988  -6.803  0.00  0.00    -0.372 N 
ATOM      4  C   UNL     1      -9.220 -18.758  -6.997  0.00  0.00    +0.166 C 
ATOM      5  H   UNL     1      -9.368 -17.133  -8.201  0.00  0.00    +0.163 HD
ATOM      6  H   UNL     1     -10.228 -18.744  -5.205  0.00  0.00    +0.159 HD
ATOM      7  H   UNL     1     -10.391 -17.300  -6.132  0.00  0.00    +0.159 HD
ATOM      8  H   UNL     1      -8.139 -20.443  -7.483  0.00  0.00    +0.159 HD
ATOM      9  H   UNL     1      -8.955 -20.520  -5.970  0.00  0.00    +0.159 HD
ENDROOT
BRANCH   1  10
ATOM     10  C   UNL     1      -8.057 -18.506  -9.167  0.00  0.00    +0.151 C 
BRANCH  10  11
ATOM     11  C   UNL     1      -8.865 -18.730 -10.415  0.00  0.00    -0.028 A 
ATOM     12  C   UNL     1      -9.779 -19.791 -10.491  0.00  0.00    +0.005 A 
ATOM     13  C   UNL     1      -8.725 -17.881 -11.524  0.00  0.00    +0.005 A 
ATOM     14  C   UNL     1     -10.551 -19.982 -11.639  0.00  0.00    +0.000 A 
ATOM     15  C   UNL     1      -9.497 -18.076 -12.669  0.00  0.00    +0.000 A 
ATOM     16  C   UNL     1     -10.412 -19.124 -12.725  0.00  0.00    +0.000 A 
ENDBRANCH  10  11
ENDBRANCH   1  10
TORSDOF 2
ENDMDL
MODEL 7
REMARK VINA RESULT:    -4.802     21.773     22.966
REMARK INTER + INTRA:          -5.522
REMARK INTER:                  -5.425
REMARK INTRA:                  -0.098
REMARK UNBOUND:                -0.158
REMARK  Name = 1550473
REMARK  2 active torsions:
REMARK  status: ('A' for Active; 'I' for Inactive)
REMARK    1  A    between atoms: N_1  and  C_4
REMARK    2  A    between atoms: C_4  and  C_5
REMARK                            x       y       z     vdW  Elec       q    Type
REMARK                         _______ _______ _______ _____ _____    ______ ____
ROOT
ATOM      1  N   UNL     1      -3.047   1.041 -17.260  0.00  0.00    -0.354 N 
ATOM      2  N   UNL     1      -4.643  -0.164 -16.091  0.00  0.00    -0.372 N 
ATOM      3  N   UNL     1      -5.323   1.573 -17.427  0.00  0.00    -0.372 N 
ATOM      4  C   UNL     1      -4.329   0.826 -16.935  0.00  0.00    +0.166 C 
ATOM      5  H   UNL     1      -2.338   0.459 -16.830  0.00  0.00    +0.163 HD
ATOM      6  H   UNL     1      -5.601  -0.352 -15.830  0.00  0.00    +0.159 HD
ATOM      7  H   UNL     1      -3.936  -0.773 -15.698  0.00  0.00    +0.159 HD
ATOM      8  H   UNL     1      -5.152   2.340 -18.064  0.00  0.00    +0.159 HD
ATOM      9  H   UNL     1      -6.288   1.408 -17.168  0.00  0.00    +0.159 HD
ENDROOT
BRANCH   1  10
ATOM     10  C   UNL     1      -2.604   2.058 -18.211  0.00  0.00    +0.151 C 
BRANCH  10  11
ATOM     11  C   UNL     1      -1.157   1.822 -18.545  0.00  0.00    -0.028 A 
ATOM     12  C   UNL     1      -0.164   2.687 -18.061  0.00  0.00    +0.005 A 
ATOM     13  C   UNL     1      -0.771   0.732 -19.340  0.00  0.00    +0.005 A 
ATOM     14  C   UNL     1       1.183   2.451 -18.346  0.00  0.00    +0.000 A 
ATOM     15  C   UNL     1       0.575   0.500 -19.622  0.00  0.00    +0.000 A 
ATOM     16  C   UNL     1       1.552   1.358 -19.123  0.00  0.00    +0.000 A 
ENDBRANCH  10  11
ENDBRANCH   1  10
TORSDOF 2
ENDMDL
MODEL 8
REMARK VINA RESULT:    -4.734     23.918     24.991
REMARK INTER + INTRA:          -5.445
REMARK INTER:                  -5.347
REMARK INTRA:                  -0.099
REMARK UNBOUND:                -0.158
REMARK  Name = 1550473
REMARK  2 active torsions:
REMARK  status: ('A' for Active; 'I' for Inactive)
REMARK    1  A    between atoms: N_1  and  C_4
REMARK    2  A    between atoms: C_4  and  C_5
REMARK                            x       y       z     vdW  Elec       q    Type
REMARK                         _______ _______ _______ _____ _____    ______ ____
ROOT
ATOM      1  N   UNL     1      10.251 -21.052  -0.771  0.00  0.00    -0.354 N 
ATOM      2  N   UNL     1      12.533 -20.682  -0.914  0.00  0.00    -0.372 N 
ATOM      3  N   UNL     1      11.418 -21.463  -2.762  0.00  0.00    -0.372 N 
ATOM      4  C   UNL     1      11.385 -21.070  -1.484  0.00  0.00    +0.166 C 
ATOM      5  H   UNL     1      10.299 -20.772   0.202  0.00  0.00    +0.163 HD
ATOM      6  H   UNL     1      13.404 -20.681  -1.428  0.00  0.00    +0.159 HD
ATOM      7  H   UNL     1      12.569 -20.359   0.045  0.00  0.00    +0.159 HD
ATOM      8  H   UNL     1      10.587 -21.773  -3.248  0.00  0.00    +0.159 HD
ATOM      9  H   UNL     1      12.282 -21.480  -3.289  0.00  0.00    +0.159 HD
ENDROOT
BRANCH   1  10
ATOM     10  C   UNL     1       8.940 -21.403  -1.313  0.00  0.00    +0.151 C 
BRANCH  10  11
ATOM     11  C   UNL     1       7.881 -21.051  -0.304  0.00  0.00    -0.028 A 
ATOM     12  C   UNL     1       7.155 -22.059   0.347  0.00  0.00    +0.005 A 
ATOM     13  C   UNL     1       7.605 -19.712   0.010  0.00  0.00    +0.005 A 
ATOM     14  C   UNL     1       6.193 -21.734   1.306  0.00  0.00    +0.000 A 
ATOM     15  C   UNL     1       6.643 -19.391   0.968  0.00  0.00    +0.000 A 
ATOM     16  C   UNL     1       5.939 -20.402   1.618  0.00  0.00    +0.000 A 
ENDBRANCH  10  11
ENDBRANCH   1  10
TORSDOF 2
ENDMDL
MODEL 9
REMARK VINA RESULT:    -4.647     20.220     21.414
REMARK INTER + INTRA:          -5.349
REMARK INTER:                  -5.248
REMARK INTRA:                  -0.101
REMARK UNBOUND:                -0.158
REMARK  Name = 1550473
REMARK  2 active torsions:
REMARK  status: ('A' for Active; 'I' for Inactive)
REMARK    1  A    between atoms: N_1  and  C_4
REMARK    2  A    between atoms: C_4  and  C_5
REMARK                            x       y       z     vdW  Elec       q    Type
REMARK                         _______ _______ _______ _____ _____    ______ ____
ROOT
ATOM      1  N   UNL     1      -2.095   1.124 -17.772  0.00  0.00    -0.354 N 
ATOM      2  N   UNL     1      -0.191   0.189 -18.703  0.00  0.00    -0.372 N 
ATOM      3  N   UNL     1      -1.397   1.705 -19.933  0.00  0.00    -0.372 N 
ATOM      4  C   UNL     1      -1.241   1.014 -18.799  0.00  0.00    +0.166 C 
ATOM      5  H   UNL     1      -1.938   0.550 -16.952  0.00  0.00    +0.163 HD
ATOM      6  H   UNL     1       0.472   0.088 -19.460  0.00  0.00    +0.159 HD
ATOM      7  H   UNL     1      -0.011  -0.349 -17.864  0.00  0.00    +0.159 HD
ATOM      8  H   UNL     1      -2.172   2.340 -20.071  0.00  0.00    +0.159 HD
ATOM      9  H   UNL     1      -0.751   1.608 -20.706  0.00  0.00    +0.159 HD
ENDROOT
BRANCH   1  10
ATOM     10  C   UNL     1      -3.239   2.034 -17.755  0.00  0.00    +0.151 C 
BRANCH  10  11
ATOM     11  C   UNL     1      -4.236   1.550 -16.738  0.00  0.00    -0.028 A 
ATOM     12  C   UNL     1      -3.858   1.372 -15.399  0.00  0.00    +0.005 A 
ATOM     13  C   UNL     1      -5.561   1.272 -17.107  0.00  0.00    +0.005 A 
ATOM     14  C   UNL     1      -4.792   0.951 -14.449  0.00  0.00    +0.000 A 
ATOM     15  C   UNL     1      -6.490   0.851 -16.155  0.00  0.00    +0.000 A 
ATOM     16  C   UNL     1      -6.105   0.693 -14.826  0.00  0.00    +0.000 A 
ENDBRANCH  10  11
ENDBRANCH   1  10
TORSDOF 2
ENDMDL
