MODEL 1
REMARK VINA RESULT:    -6.050      0.000      0.000
REMARK INTER + INTRA:          -6.890
REMARK INTER:                  -6.758
REMARK INTRA:                  -0.132
REMARK UNBOUND:                -0.132
REMARK  Name = 1550473
REMARK  2 active torsions:
REMARK  status: ('A' for Active; 'I' for Inactive)
REMARK    1  A    between atoms: N_1  and  C_4
REMARK    2  A    between atoms: C_4  and  C_5
REMARK                            x       y       z     vdW  Elec       q    Type
REMARK                         _______ _______ _______ _____ _____    ______ ____
ROOT
ATOM      1  N   UNL     1      -6.208  -2.801   4.364  0.00  0.00    -0.354 N 
ATOM      2  N   UNL     1      -6.942  -1.579   2.538  0.00  0.00    -0.372 N 
ATOM      3  N   UNL     1      -8.486  -2.344   4.053  0.00  0.00    -0.372 N 
ATOM      4  C   UNL     1      -7.210  -2.250   3.665  0.00  0.00    +0.166 C 
ATOM      5  H   UNL     1      -5.266  -2.720   4.000  0.00  0.00    +0.163 HD
ATOM      6  H   UNL     1      -7.676  -1.149   1.992  0.00  0.00    +0.159 HD
ATOM      7  H   UNL     1      -5.994  -1.460   2.201  0.00  0.00    +0.159 HD
ATOM      8  H   UNL     1      -8.755  -2.842   4.891  0.00  0.00    +0.159 HD
ATOM      9  H   UNL     1      -9.236  -1.931   3.514  0.00  0.00    +0.159 HD
ENDROOT
BRANCH   1  10
ATOM     10  C   UNL     1      -6.387  -3.507   5.631  0.00  0.00    +0.151 C 
BRANCH  10  11
ATOM     11  C   UNL     1      -5.337  -3.045   6.603  0.00  0.00    -0.028 A 
ATOM     12  C   UNL     1      -5.223  -1.688   6.938  0.00  0.00    +0.005 A 
ATOM     13  C   UNL     1      -4.455  -3.961   7.197  0.00  0.00    +0.005 A 
ATOM     14  C   UNL     1      -4.267  -1.263   7.863  0.00  0.00    +0.000 A 
ATOM     15  C   UNL     1      -3.501  -3.532   8.120  0.00  0.00    +0.000 A 
ATOM     16  C   UNL     1      -3.409  -2.183   8.454  0.00  0.00    +0.000 A 
ENDBRANCH  10  11
ENDBRANCH   1  10
TORSDOF 2
ENDMDL
MODEL 2
REMARK VINA RESULT:    -5.573      4.241      6.973
REMARK INTER + INTRA:          -6.357
REMARK INTER:                  -6.215
REMARK INTRA:                  -0.142
REMARK UNBOUND:                -0.132
REMARK  Name = 1550473
REMARK  2 active torsions:
REMARK  status: ('A' for Active; 'I' for Inactive)
REMARK    1  A    between atoms: N_1  and  C_4
REMARK    2  A    between atoms: C_4  and  C_5
REMARK                            x       y       z     vdW  Elec       q    Type
REMARK                         _______ _______ _______ _____ _____    ______ ____
ROOT
ATOM      1  N   UNL     1      -7.339  -4.262   3.499  0.00  0.00    -0.354 N 
ATOM      2  N   UNL     1      -7.567  -3.534   5.685  0.00  0.00    -0.372 N 
ATOM      3  N   UNL     1      -8.507  -2.293   4.000  0.00  0.00    -0.372 N 
ATOM      4  C   UNL     1      -7.804  -3.365   4.379  0.00  0.00    +0.166 C 
ATOM      5  H   UNL     1      -6.787  -5.037   3.847  0.00  0.00    +0.163 HD
ATOM      6  H   UNL     1      -7.909  -2.876   6.374  0.00  0.00    +0.159 HD
ATOM      7  H   UNL     1      -7.055  -4.334   6.035  0.00  0.00    +0.159 HD
ATOM      8  H   UNL     1      -8.715  -2.105   3.028  0.00  0.00    +0.159 HD
ATOM      9  H   UNL     1      -8.847  -1.617   4.673  0.00  0.00    +0.159 HD
ENDROOT
BRANCH   1  10
ATOM     10  C   UNL     1      -7.588  -4.199   2.059  0.00  0.00    +0.151 C 
BRANCH  10  11
ATOM     11  C   UNL     1      -8.287  -5.458   1.626  0.00  0.00    -0.028 A 
ATOM     12  C   UNL     1      -8.509  -6.499   2.540  0.00  0.00    +0.005 A 
ATOM     13  C   UNL     1      -8.735  -5.614   0.306  0.00  0.00    +0.005 A 
ATOM     14  C   UNL     1      -9.185  -7.657   2.146  0.00  0.00    +0.000 A 
ATOM     15  C   UNL     1      -9.409  -6.771  -0.084  0.00  0.00    +0.000 A 
ATOM     16  C   UNL     1      -9.635  -7.791   0.837  0.00  0.00    +0.000 A 
ENDBRANCH  10  11
ENDBRANCH   1  10
TORSDOF 2
ENDMDL
MODEL 3
REMARK VINA RESULT:    -5.508      2.712      5.119
REMARK INTER + INTRA:          -6.284
REMARK INTER:                  -6.151
REMARK INTRA:                  -0.133
REMARK UNBOUND:                -0.132
REMARK  Name = 1550473
REMARK  2 active torsions:
REMARK  status: ('A' for Active; 'I' for Inactive)
REMARK    1  A    between atoms: N_1  and  C_4
REMARK    2  A    between atoms: C_4  and  C_5
REMARK                            x       y       z     vdW  Elec       q    Type
REMARK                         _______ _______ _______ _____ _____    ______ ____
ROOT
ATOM      1  N   UNL     1      -7.362  -2.387   5.571  0.00  0.00    -0.354 N 
ATOM      2  N   UNL     1      -5.913  -1.632   7.212  0.00  0.00    -0.372 N 
ATOM      3  N   UNL     1      -5.206  -1.644   5.029  0.00  0.00    -0.372 N 
ATOM      4  C   UNL     1      -6.168  -1.893   5.924  0.00  0.00    +0.166 C 
ATOM      5  H   UNL     1      -8.038  -2.581   6.300  0.00  0.00    +0.163 HD
ATOM      6  H   UNL     1      -5.023  -1.256   7.509  0.00  0.00    +0.159 HD
ATOM      7  H   UNL     1      -6.607  -1.785   7.934  0.00  0.00    +0.159 HD
ATOM      8  H   UNL     1      -5.334  -1.825   4.042  0.00  0.00    +0.159 HD
ATOM      9  H   UNL     1      -4.304  -1.279   5.308  0.00  0.00    +0.159 HD
ENDROOT
BRANCH   1  10
ATOM     10  C   UNL     1      -7.760  -2.654   4.190  0.00  0.00    +0.151 C 
BRANCH  10  11
ATOM     11  C   UNL     1      -7.898  -4.139   3.997  0.00  0.00    -0.028 A 
ATOM     12  C   UNL     1      -8.112  -4.674   2.718  0.00  0.00    +0.005 A 
ATOM     13  C   UNL     1      -7.811  -5.017   5.088  0.00  0.00    +0.005 A 
ATOM     14  C   UNL     1      -8.210  -6.056   2.535  0.00  0.00    +0.000 A 
ATOM     15  C   UNL     1      -7.910  -6.395   4.901  0.00  0.00    +0.000 A 
ATOM     16  C   UNL     1      -8.107  -6.914   3.624  0.00  0.00    +0.000 A 
ENDBRANCH  10  11
ENDBRANCH   1  10
TORSDOF 2
ENDMDL
MODEL 4
REMARK VINA RESULT:    -5.468      4.005      5.718
REMARK INTER + INTRA:          -6.240
REMARK INTER:                  -6.193
REMARK INTRA:                  -0.047
REMARK UNBOUND:                -0.132
REMARK  Name = 1550473
REMARK  2 active torsions:
REMARK  status: ('A' for Active; 'I' for Inactive)
REMARK    1  A    between atoms: N_1  and  C_4
REMARK    2  A    between atoms: C_4  and  C_5
REMARK                            x       y       z     vdW  Elec       q    Type
REMARK                         _______ _______ _______ _____ _____    ______ ____
ROOT
ATOM      1  N   UNL     1      -6.419  -3.237   2.202  0.00  0.00    -0.354 N 
ATOM      2  N   UNL     1      -5.272  -1.808   3.619  0.00  0.00    -0.372 N 
ATOM      3  N   UNL     1      -7.497  -1.417   3.213  0.00  0.00    -0.372 N 
ATOM      4  C   UNL     1      -6.406  -2.162   3.002  0.00  0.00    +0.166 C 
ATOM      5  H   UNL     1      -5.552  -3.741   2.060  0.00  0.00    +0.163 HD
ATOM      6  H   UNL     1      -5.233  -1.003   4.231  0.00  0.00    +0.159 HD
ATOM      7  H   UNL     1      -4.418  -2.341   3.511  0.00  0.00    +0.159 HD
ATOM      8  H   UNL     1      -8.382  -1.628   2.772  0.00  0.00    +0.159 HD
ATOM      9  H   UNL     1      -7.474  -0.602   3.812  0.00  0.00    +0.159 HD
ENDROOT
BRANCH   1  10
ATOM     10  C   UNL     1      -7.615  -3.738   1.527  0.00  0.00    +0.151 C 
BRANCH  10  11
ATOM     11  C   UNL     1      -8.109  -4.962   2.247  0.00  0.00    -0.028 A 
ATOM     12  C   UNL     1      -8.312  -4.938   3.635  0.00  0.00    +0.005 A 
ATOM     13  C   UNL     1      -8.383  -6.147   1.547  0.00  0.00    +0.005 A 
ATOM     14  C   UNL     1      -8.800  -6.065   4.301  0.00  0.00    +0.000 A 
ATOM     15  C   UNL     1      -8.870  -7.270   2.216  0.00  0.00    +0.000 A 
ATOM     16  C   UNL     1      -9.080  -7.228   3.592  0.00  0.00    +0.000 A 
ENDBRANCH  10  11
ENDBRANCH   1  10
TORSDOF 2
ENDMDL
MODEL 5
REMARK VINA RESULT:    -5.351      3.270      5.035
REMARK INTER + INTRA:          -6.109
REMARK INTER:                  -5.936
REMARK INTRA:                  -0.174
REMARK UNBOUND:                -0.132
REMARK  Name = 1550473
REMARK  2 active torsions:
REMARK  status: ('A' for Active; 'I' for Inactive)
REMARK    1  A    between atoms: N_1  and  C_4
REMARK    2  A    between atoms: C_4  and  C_5
REMARK                            x       y       z     vdW  Elec       q    Type
REMARK                         _______ _______ _______ _____ _____    ______ ____
ROOT
ATOM      1  N   UNL     1      -4.062  -1.525   8.448  0.00  0.00    -0.354 N 
ATOM      2  N   UNL     1      -4.112  -1.499  10.763  0.00  0.00    -0.372 N 
ATOM      3  N   UNL     1      -3.214  -3.320   9.694  0.00  0.00    -0.372 N 
ATOM      4  C   UNL     1      -3.795  -2.117   9.620  0.00  0.00    +0.166 C 
ATOM      5  H   UNL     1      -4.530  -0.627   8.459  0.00  0.00    +0.163 HD
ATOM      6  H   UNL     1      -3.920  -1.919  11.663  0.00  0.00    +0.159 HD
ATOM      7  H   UNL     1      -4.539  -0.580  10.772  0.00  0.00    +0.159 HD
ATOM      8  H   UNL     1      -2.955  -3.842   8.868  0.00  0.00    +0.159 HD
ATOM      9  H   UNL     1      -3.024  -3.762  10.585  0.00  0.00    +0.159 HD
ENDROOT
BRANCH   1  10
ATOM     10  C   UNL     1      -3.708  -2.090   7.147  0.00  0.00    +0.151 C 
BRANCH  10  11
ATOM     11  C   UNL     1      -4.952  -2.614   6.484  0.00  0.00    -0.028 A 
ATOM     12  C   UNL     1      -5.662  -1.818   5.573  0.00  0.00    +0.005 A 
ATOM     13  C   UNL     1      -5.423  -3.907   6.759  0.00  0.00    +0.005 A 
ATOM     14  C   UNL     1      -6.800  -2.315   4.934  0.00  0.00    +0.000 A 
ATOM     15  C   UNL     1      -6.561  -4.399   6.119  0.00  0.00    +0.000 A 
ATOM     16  C   UNL     1      -7.248  -3.604   5.205  0.00  0.00    +0.000 A 
ENDBRANCH  10  11
ENDBRANCH   1  10
TORSDOF 2
ENDMDL
MODEL 6
REMARK VINA RESULT:    -5.216      2.993      4.811
REMARK INTER + INTRA:          -5.958
REMARK INTER:                  -5.821
REMARK INTRA:                  -0.137
REMARK UNBOUND:                -0.132
REMARK  Name = 1550473
REMARK  2 active torsions:
REMARK  status: ('A' for Active; 'I' for Inactive)
REMARK    1  A    between atoms: N_1  and  C_4
REMARK    2  A    between atoms: C_4  and  C_5
REMARK                            x       y       z     vdW  Elec       q    Type
REMARK                         _______ _______ _______ _____ _____    ______ ____
ROOT
ATOM      1  N   UNL     1      -4.816  -1.875   7.725  0.00  0.00    -0.354 N 
ATOM      2  N   UNL     1      -4.375  -2.083   9.989  0.00  0.00    -0.372 N 
ATOM      3  N   UNL     1      -6.331  -1.082   9.327  0.00  0.00    -0.372 N 
ATOM      4  C   UNL     1      -5.180  -1.677   8.999  0.00  0.00    +0.166 C 
ATOM      5  H   UNL     1      -3.917  -2.305   7.542  0.00  0.00    +0.163 HD
ATOM      6  H   UNL     1      -4.624  -1.951  10.960  0.00  0.00    +0.159 HD
ATOM      7  H   UNL     1      -3.498  -2.554   9.804  0.00  0.00    +0.159 HD
ATOM      8  H   UNL     1      -6.979  -0.747   8.627  0.00  0.00    +0.159 HD
ATOM      9  H   UNL     1      -6.592  -0.929  10.294  0.00  0.00    +0.159 HD
ENDROOT
BRANCH   1  10
ATOM     10  C   UNL     1      -5.644  -1.519   6.574  0.00  0.00    +0.151 C 
BRANCH  10  11
ATOM     11  C   UNL     1      -5.550  -2.610   5.544  0.00  0.00    -0.028 A 
ATOM     12  C   UNL     1      -5.187  -3.913   5.918  0.00  0.00    +0.005 A 
ATOM     13  C   UNL     1      -5.827  -2.350   4.193  0.00  0.00    +0.005 A 
ATOM     14  C   UNL     1      -5.128  -4.934   4.967  0.00  0.00    +0.000 A 
ATOM     15  C   UNL     1      -5.766  -3.373   3.246  0.00  0.00    +0.000 A 
ATOM     16  C   UNL     1      -5.419  -4.665   3.634  0.00  0.00    +0.000 A 
ENDBRANCH  10  11
ENDBRANCH   1  10
TORSDOF 2
ENDMDL
MODEL 7
REMARK VINA RESULT:    -5.127      3.179      5.402
REMARK INTER + INTRA:          -5.859
REMARK INTER:                  -5.716
REMARK INTRA:                  -0.143
REMARK UNBOUND:                -0.132
REMARK  Name = 1550473
REMARK  2 active torsions:
REMARK  status: ('A' for Active; 'I' for Inactive)
REMARK    1  A    between atoms: N_1  and  C_4
REMARK    2  A    between atoms: C_4  and  C_5
REMARK                            x       y       z     vdW  Elec       q    Type
REMARK                         _______ _______ _______ _____ _____    ______ ____
ROOT
ATOM      1  N   UNL     1      -6.055  -3.735   5.002  0.00  0.00    -0.354 N 
ATOM      2  N   UNL     1      -5.323  -1.587   4.537  0.00  0.00    -0.372 N 
ATOM      3  N   UNL     1      -7.042  -1.874   6.030  0.00  0.00    -0.372 N 
ATOM      4  C   UNL     1      -6.147  -2.412   5.194  0.00  0.00    +0.166 C 
ATOM      5  H   UNL     1      -5.375  -4.078   4.333  0.00  0.00    +0.163 HD
ATOM      6  H   UNL     1      -5.367  -0.585   4.665  0.00  0.00    +0.159 HD
ATOM      7  H   UNL     1      -4.614  -1.935   3.904  0.00  0.00    +0.159 HD
ATOM      8  H   UNL     1      -7.697  -2.442   6.551  0.00  0.00    +0.159 HD
ATOM      9  H   UNL     1      -7.109  -0.873   6.162  0.00  0.00    +0.159 HD
ENDROOT
BRANCH   1  10
ATOM     10  C   UNL     1      -6.868  -4.723   5.709  0.00  0.00    +0.151 C 
BRANCH  10  11
ATOM     11  C   UNL     1      -7.597  -5.570   4.702  0.00  0.00    -0.028 A 
ATOM     12  C   UNL     1      -8.451  -6.599   5.123  0.00  0.00    +0.005 A 
ATOM     13  C   UNL     1      -7.442  -5.344   3.325  0.00  0.00    +0.005 A 
ATOM     14  C   UNL     1      -9.151  -7.367   4.189  0.00  0.00    +0.000 A 
ATOM     15  C   UNL     1      -8.142  -6.113   2.396  0.00  0.00    +0.000 A 
ATOM     16  C   UNL     1      -8.998  -7.122   2.828  0.00  0.00    +0.000 A 
ENDBRANCH  10  11
ENDBRANCH   1  10
TORSDOF 2
ENDMDL
MODEL 8
REMARK VINA RESULT:    -5.019      3.404      5.212
REMARK INTER + INTRA:          -5.738
REMARK INTER:                  -5.596
REMARK INTRA:                  -0.143
REMARK UNBOUND:                -0.132
REMARK  Name = 1550473
REMARK  2 active torsions:
REMARK  status: ('A' for Active; 'I' for Inactive)
REMARK    1  A    between atoms: N_1  and  C_4
REMARK    2  A    between atoms: C_4  and  C_5
REMARK                            x       y       z     vdW  Elec       q    Type
REMARK                         _______ _______ _______ _____ _____    ______ ____
ROOT
ATOM      1  N   UNL     1      -2.717  -2.027   7.826  0.00  0.00    -0.354 N 
ATOM      2  N   UNL     1      -0.962  -3.356   8.545  0.00  0.00    -0.372 N 
ATOM      3  N   UNL     1      -2.949  -3.427   9.691  0.00  0.00    -0.372 N 
ATOM      4  C   UNL     1      -2.223  -2.929   8.685  0.00  0.00    +0.166 C 
ATOM      5  H   UNL     1      -2.106  -1.666   7.102  0.00  0.00    +0.163 HD
ATOM      6  H   UNL     1      -0.563  -4.038   9.176  0.00  0.00    +0.159 HD
ATOM      7  H   UNL     1      -0.368  -3.028   7.794  0.00  0.00    +0.159 HD
ATOM      8  H   UNL     1      -3.905  -3.140   9.855  0.00  0.00    +0.159 HD
ATOM      9  H   UNL     1      -2.563  -4.101  10.340  0.00  0.00    +0.159 HD
ENDROOT
BRANCH   1  10
ATOM     10  C   UNL     1      -4.094  -1.536   7.858  0.00  0.00    +0.151 C 
BRANCH  10  11
ATOM     11  C   UNL     1      -4.904  -2.278   6.830  0.00  0.00    -0.028 A 
ATOM     12  C   UNL     1      -5.476  -3.521   7.137  0.00  0.00    +0.005 A 
ATOM     13  C   UNL     1      -5.107  -1.740   5.550  0.00  0.00    +0.005 A 
ATOM     14  C   UNL     1      -6.253  -4.196   6.193  0.00  0.00    +0.000 A 
ATOM     15  C   UNL     1      -5.883  -2.418   4.610  0.00  0.00    +0.000 A 
ATOM     16  C   UNL     1      -6.458  -3.644   4.933  0.00  0.00    +0.000 A 
ENDBRANCH  10  11
ENDBRANCH   1  10
TORSDOF 2
ENDMDL
MODEL 9
REMARK VINA RESULT:    -4.886      5.713      8.622
REMARK INTER + INTRA:          -5.590
REMARK INTER:                  -5.447
REMARK INTRA:                  -0.142
REMARK UNBOUND:                -0.132
REMARK  Name = 1550473
REMARK  2 active torsions:
REMARK  status: ('A' for Active; 'I' for Inactive)
REMARK    1  A    between atoms: N_1  and  C_4
REMARK    2  A    between atoms: C_4  and  C_5
REMARK                            x       y       z     vdW  Elec       q    Type
REMARK                         _______ _______ _______ _____ _____    ______ ____
ROOT
ATOM      1  N   UNL     1      -7.513  -4.894   0.971  0.00  0.00    -0.354 N 
ATOM      2  N   UNL     1      -6.500  -2.813   1.060  0.00  0.00    -0.372 N 
ATOM      3  N   UNL     1      -8.125  -3.322   2.598  0.00  0.00    -0.372 N 
ATOM      4  C   UNL     1      -7.388  -3.690   1.544  0.00  0.00    +0.166 C 
ATOM      5  H   UNL     1      -6.947  -5.100   0.156  0.00  0.00    +0.163 HD
ATOM      6  H   UNL     1      -6.381  -1.898   1.474  0.00  0.00    +0.159 HD
ATOM      7  H   UNL     1      -5.902  -3.039   0.274  0.00  0.00    +0.159 HD
ATOM      8  H   UNL     1      -8.817  -3.935   3.007  0.00  0.00    +0.159 HD
ATOM      9  H   UNL     1      -8.028  -2.407   3.019  0.00  0.00    +0.159 HD
ENDROOT
BRANCH   1  10
ATOM     10  C   UNL     1      -8.412  -5.940   1.454  0.00  0.00    +0.151 C 
BRANCH  10  11
ATOM     11  C   UNL     1      -9.181  -6.504   0.291  0.00  0.00    -0.028 A 
ATOM     12  C   UNL     1     -10.051  -7.589   0.471  0.00  0.00    +0.005 A 
ATOM     13  C   UNL     1      -9.049  -5.952  -0.993  0.00  0.00    +0.005 A 
ATOM     14  C   UNL     1     -10.788  -8.094  -0.603  0.00  0.00    +0.000 A 
ATOM     15  C   UNL     1      -9.786  -6.459  -2.063  0.00  0.00    +0.000 A 
ATOM     16  C   UNL     1     -10.657  -7.528  -1.867  0.00  0.00    +0.000 A 
ENDBRANCH  10  11
ENDBRANCH   1  10
TORSDOF 2
ENDMDL
