MODEL 1
REMARK VINA RESULT:    -5.395      0.000      0.000
REMARK INTER + INTRA:          -6.147
REMARK INTER:                  -6.025
REMARK INTRA:                  -0.122
REMARK UNBOUND:                -0.122
REMARK  Name = 1550473
REMARK  2 active torsions:
REMARK  status: ('A' for Active; 'I' for Inactive)
REMARK    1  A    between atoms: N_1  and  C_4
REMARK    2  A    between atoms: C_4  and  C_5
REMARK                            x       y       z     vdW  Elec       q    Type
REMARK                         _______ _______ _______ _____ _____    ______ ____
ROOT
ATOM      1  N   UNL     1       9.583   0.572  13.485  0.00  0.00    -0.354 N 
ATOM      2  N   UNL     1       9.140   1.248  15.656  0.00  0.00    -0.372 N 
ATOM      3  N   UNL     1       7.382   0.896  14.223  0.00  0.00    -0.372 N 
ATOM      4  C   UNL     1       8.702   0.901  14.439  0.00  0.00    +0.166 C 
ATOM      5  H   UNL     1      10.571   0.625  13.704  0.00  0.00    +0.163 HD
ATOM      6  H   UNL     1       8.499   1.499  16.397  0.00  0.00    +0.159 HD
ATOM      7  H   UNL     1      10.126   1.256  15.885  0.00  0.00    +0.159 HD
ATOM      8  H   UNL     1       6.988   0.650  13.325  0.00  0.00    +0.159 HD
ATOM      9  H   UNL     1       6.725   1.155  14.949  0.00  0.00    +0.159 HD
ENDROOT
BRANCH   1  10
ATOM     10  C   UNL     1       9.208   0.127  12.144  0.00  0.00    +0.151 C 
BRANCH  10  11
ATOM     11  C   UNL     1       9.406   1.262  11.177  0.00  0.00    -0.028 A 
ATOM     12  C   UNL     1       8.836   1.214   9.897  0.00  0.00    +0.005 A 
ATOM     13  C   UNL     1      10.158   2.391  11.538  0.00  0.00    +0.005 A 
ATOM     14  C   UNL     1       8.995   2.281   9.009  0.00  0.00    +0.000 A 
ATOM     15  C   UNL     1      10.314   3.454  10.648  0.00  0.00    +0.000 A 
ATOM     16  C   UNL     1       9.731   3.399   9.385  0.00  0.00    +0.000 A 
ENDBRANCH  10  11
ENDBRANCH   1  10
TORSDOF 2
ENDMDL
MODEL 2
REMARK VINA RESULT:    -5.314     22.249     23.512
REMARK INTER + INTRA:          -6.057
REMARK INTER:                  -5.898
REMARK INTRA:                  -0.159
REMARK UNBOUND:                -0.122
REMARK  Name = 1550473
REMARK  2 active torsions:
REMARK  status: ('A' for Active; 'I' for Inactive)
REMARK    1  A    between atoms: N_1  and  C_4
REMARK    2  A    between atoms: C_4  and  C_5
REMARK                            x       y       z     vdW  Elec       q    Type
REMARK                         _______ _______ _______ _____ _____    ______ ____
ROOT
ATOM      1  N   UNL     1       1.479  14.938  -5.763  0.00  0.00    -0.354 N 
ATOM      2  N   UNL     1       3.522  13.876  -5.512  0.00  0.00    -0.372 N 
ATOM      3  N   UNL     1       1.619  12.797  -4.821  0.00  0.00    -0.372 N 
ATOM      4  C   UNL     1       2.192  13.876  -5.366  0.00  0.00    +0.166 C 
ATOM      5  H   UNL     1       1.976  15.737  -6.141  0.00  0.00    +0.163 HD
ATOM      6  H   UNL     1       4.086  13.087  -5.225  0.00  0.00    +0.159 HD
ATOM      7  H   UNL     1       4.012  14.657  -5.932  0.00  0.00    +0.159 HD
ATOM      8  H   UNL     1       0.619  12.737  -4.678  0.00  0.00    +0.159 HD
ATOM      9  H   UNL     1       2.167  12.002  -4.516  0.00  0.00    +0.159 HD
ENDROOT
BRANCH   1  10
ATOM     10  C   UNL     1       0.021  15.016  -5.697  0.00  0.00    +0.151 C 
BRANCH  10  11
ATOM     11  C   UNL     1      -0.372  15.890  -4.538  0.00  0.00    -0.028 A 
ATOM     12  C   UNL     1      -0.719  17.233  -4.745  0.00  0.00    +0.005 A 
ATOM     13  C   UNL     1      -0.406  15.379  -3.232  0.00  0.00    +0.005 A 
ATOM     14  C   UNL     1      -1.114  18.037  -3.672  0.00  0.00    +0.000 A 
ATOM     15  C   UNL     1      -0.799  16.185  -2.164  0.00  0.00    +0.000 A 
ATOM     16  C   UNL     1      -1.155  17.513  -2.385  0.00  0.00    +0.000 A 
ENDBRANCH  10  11
ENDBRANCH   1  10
TORSDOF 2
ENDMDL
MODEL 3
REMARK VINA RESULT:    -5.157     22.519     23.000
REMARK INTER + INTRA:          -5.882
REMARK INTER:                  -5.777
REMARK INTRA:                  -0.105
REMARK UNBOUND:                -0.122
REMARK  Name = 1550473
REMARK  2 active torsions:
REMARK  status: ('A' for Active; 'I' for Inactive)
REMARK    1  A    between atoms: N_1  and  C_4
REMARK    2  A    between atoms: C_4  and  C_5
REMARK                            x       y       z     vdW  Elec       q    Type
REMARK                         _______ _______ _______ _____ _____    ______ ____
ROOT
ATOM      1  N   UNL     1       0.535  15.692  -4.571  0.00  0.00    -0.354 N 
ATOM      2  N   UNL     1      -0.158  17.891  -4.788  0.00  0.00    -0.372 N 
ATOM      3  N   UNL     1      -1.368  16.475  -3.449  0.00  0.00    -0.372 N 
ATOM      4  C   UNL     1      -0.328  16.671  -4.266  0.00  0.00    +0.166 C 
ATOM      5  H   UNL     1       1.286  15.897  -5.220  0.00  0.00    +0.163 HD
ATOM      6  H   UNL     1      -0.790  18.651  -4.574  0.00  0.00    +0.159 HD
ATOM      7  H   UNL     1       0.620  18.105  -5.401  0.00  0.00    +0.159 HD
ATOM      8  H   UNL     1      -1.556  15.575  -3.028  0.00  0.00    +0.159 HD
ATOM      9  H   UNL     1      -2.019  17.219  -3.232  0.00  0.00    +0.159 HD
ENDROOT
BRANCH   1  10
ATOM     10  C   UNL     1       0.470  14.342  -4.014  0.00  0.00    +0.151 C 
BRANCH  10  11
ATOM     11  C   UNL     1       1.205  13.399  -4.925  0.00  0.00    -0.028 A 
ATOM     12  C   UNL     1       2.512  13.687  -5.344  0.00  0.00    +0.005 A 
ATOM     13  C   UNL     1       0.602  12.211  -5.369  0.00  0.00    +0.005 A 
ATOM     14  C   UNL     1       3.207  12.797  -6.166  0.00  0.00    +0.000 A 
ATOM     15  C   UNL     1       1.299  11.325  -6.190  0.00  0.00    +0.000 A 
ATOM     16  C   UNL     1       2.602  11.617  -6.587  0.00  0.00    +0.000 A 
ENDBRANCH  10  11
ENDBRANCH   1  10
TORSDOF 2
ENDMDL
MODEL 4
REMARK VINA RESULT:    -5.026     22.737     23.851
REMARK INTER + INTRA:          -5.736
REMARK INTER:                  -5.577
REMARK INTRA:                  -0.158
REMARK UNBOUND:                -0.122
REMARK  Name = 1550473
REMARK  2 active torsions:
REMARK  status: ('A' for Active; 'I' for Inactive)
REMARK    1  A    between atoms: N_1  and  C_4
REMARK    2  A    between atoms: C_4  and  C_5
REMARK                            x       y       z     vdW  Elec       q    Type
REMARK                         _______ _______ _______ _____ _____    ______ ____
ROOT
ATOM      1  N   UNL     1       0.324  11.264  -8.602  0.00  0.00    -0.354 N 
ATOM      2  N   UNL     1      -0.187  12.094 -10.703  0.00  0.00    -0.372 N 
ATOM      3  N   UNL     1      -1.752  12.261  -9.034  0.00  0.00    -0.372 N 
ATOM      4  C   UNL     1      -0.537  11.868  -9.432  0.00  0.00    +0.166 C 
ATOM      5  H   UNL     1       1.219  10.964  -8.973  0.00  0.00    +0.163 HD
ATOM      6  H   UNL     1      -0.814  12.550 -11.352  0.00  0.00    +0.159 HD
ATOM      7  H   UNL     1       0.725  11.834 -11.059  0.00  0.00    +0.159 HD
ATOM      8  H   UNL     1      -2.080  12.114  -8.089  0.00  0.00    +0.159 HD
ATOM      9  H   UNL     1      -2.399  12.709  -9.671  0.00  0.00    +0.159 HD
ENDROOT
BRANCH   1  10
ATOM     10  C   UNL     1       0.061  11.020  -7.185  0.00  0.00    +0.151 C 
BRANCH  10  11
ATOM     11  C   UNL     1       0.910  11.948  -6.361  0.00  0.00    -0.028 A 
ATOM     12  C   UNL     1       2.239  12.209  -6.725  0.00  0.00    +0.005 A 
ATOM     13  C   UNL     1       0.390  12.573  -5.217  0.00  0.00    +0.005 A 
ATOM     14  C   UNL     1       3.019  13.094  -5.976  0.00  0.00    +0.000 A 
ATOM     15  C   UNL     1       1.172  13.455  -4.472  0.00  0.00    +0.000 A 
ATOM     16  C   UNL     1       2.485  13.717  -4.853  0.00  0.00    +0.000 A 
ENDBRANCH  10  11
ENDBRANCH   1  10
TORSDOF 2
ENDMDL
MODEL 5
REMARK VINA RESULT:    -4.957     22.951     24.139
REMARK INTER + INTRA:          -5.659
REMARK INTER:                  -5.538
REMARK INTRA:                  -0.121
REMARK UNBOUND:                -0.122
REMARK  Name = 1550473
REMARK  2 active torsions:
REMARK  status: ('A' for Active; 'I' for Inactive)
REMARK    1  A    between atoms: N_1  and  C_4
REMARK    2  A    between atoms: C_4  and  C_5
REMARK                            x       y       z     vdW  Elec       q    Type
REMARK                         _______ _______ _______ _____ _____    ______ ____
ROOT
ATOM      1  N   UNL     1       1.186  15.240  -6.157  0.00  0.00    -0.354 N 
ATOM      2  N   UNL     1       2.196  15.182  -8.241  0.00  0.00    -0.372 N 
ATOM      3  N   UNL     1       1.916  13.217  -7.089  0.00  0.00    -0.372 N 
ATOM      4  C   UNL     1       1.760  14.544  -7.148  0.00  0.00    +0.166 C 
ATOM      5  H   UNL     1       1.124  16.247  -6.250  0.00  0.00    +0.163 HD
ATOM      6  H   UNL     1       2.630  14.683  -9.006  0.00  0.00    +0.159 HD
ATOM      7  H   UNL     1       2.092  16.184  -8.350  0.00  0.00    +0.159 HD
ATOM      8  H   UNL     1       1.613  12.677  -6.289  0.00  0.00    +0.159 HD
ATOM      9  H   UNL     1       2.359  12.702  -7.840  0.00  0.00    +0.159 HD
ENDROOT
BRANCH   1  10
ATOM     10  C   UNL     1       0.628  14.634  -4.949  0.00  0.00    +0.151 C 
BRANCH  10  11
ATOM     11  C   UNL     1      -0.059  15.698  -4.139  0.00  0.00    -0.028 A 
ATOM     12  C   UNL     1      -0.341  15.488  -2.781  0.00  0.00    +0.005 A 
ATOM     13  C   UNL     1      -0.426  16.921  -4.721  0.00  0.00    +0.005 A 
ATOM     14  C   UNL     1      -0.952  16.487  -2.020  0.00  0.00    +0.000 A 
ATOM     15  C   UNL     1      -1.037  17.916  -3.958  0.00  0.00    +0.000 A 
ATOM     16  C   UNL     1      -1.298  17.700  -2.608  0.00  0.00    +0.000 A 
ENDBRANCH  10  11
ENDBRANCH   1  10
TORSDOF 2
ENDMDL
MODEL 6
REMARK VINA RESULT:    -4.745     20.881     22.522
REMARK INTER + INTRA:          -5.422
REMARK INTER:                  -5.284
REMARK INTRA:                  -0.138
REMARK UNBOUND:                -0.122
REMARK  Name = 1550473
REMARK  2 active torsions:
REMARK  status: ('A' for Active; 'I' for Inactive)
REMARK    1  A    between atoms: N_1  and  C_4
REMARK    2  A    between atoms: C_4  and  C_5
REMARK                            x       y       z     vdW  Elec       q    Type
REMARK                         _______ _______ _______ _____ _____    ______ ____
ROOT
ATOM      1  N   UNL     1       4.328   0.700  -9.478  0.00  0.00    -0.354 N 
ATOM      2  N   UNL     1       3.234   2.217  -8.112  0.00  0.00    -0.372 N 
ATOM      3  N   UNL     1       3.916   0.215  -7.222  0.00  0.00    -0.372 N 
ATOM      4  C   UNL     1       3.833   1.032  -8.278  0.00  0.00    +0.166 C 
ATOM      5  H   UNL     1       4.206   1.350 -10.246  0.00  0.00    +0.163 HD
ATOM      6  H   UNL     1       2.854   2.497  -7.218  0.00  0.00    +0.159 HD
ATOM      7  H   UNL     1       3.154   2.884  -8.870  0.00  0.00    +0.159 HD
ATOM      8  H   UNL     1       4.352  -0.696  -7.283  0.00  0.00    +0.159 HD
ATOM      9  H   UNL     1       3.532   0.472  -6.322  0.00  0.00    +0.159 HD
ENDROOT
BRANCH   1  10
ATOM     10  C   UNL     1       5.046  -0.544  -9.751  0.00  0.00    +0.151 C 
BRANCH  10  11
ATOM     11  C   UNL     1       6.227  -0.246 -10.633  0.00  0.00    -0.028 A 
ATOM     12  C   UNL     1       6.668   1.074 -10.811  0.00  0.00    +0.005 A 
ATOM     13  C   UNL     1       6.913  -1.279 -11.290  0.00  0.00    +0.005 A 
ATOM     14  C   UNL     1       7.783   1.349 -11.606  0.00  0.00    +0.000 A 
ATOM     15  C   UNL     1       8.026  -1.000 -12.084  0.00  0.00    +0.000 A 
ATOM     16  C   UNL     1       8.461   0.313 -12.240  0.00  0.00    +0.000 A 
ENDBRANCH  10  11
ENDBRANCH   1  10
TORSDOF 2
ENDMDL
MODEL 7
REMARK VINA RESULT:    -4.649     23.746     25.393
REMARK INTER + INTRA:          -5.314
REMARK INTER:                  -5.192
REMARK INTRA:                  -0.122
REMARK UNBOUND:                -0.122
REMARK  Name = 1550473
REMARK  2 active torsions:
REMARK  status: ('A' for Active; 'I' for Inactive)
REMARK    1  A    between atoms: N_1  and  C_4
REMARK    2  A    between atoms: C_4  and  C_5
REMARK                            x       y       z     vdW  Elec       q    Type
REMARK                         _______ _______ _______ _____ _____    ______ ____
ROOT
ATOM      1  N   UNL     1       0.514  12.214 -10.539  0.00  0.00    -0.354 N 
ATOM      2  N   UNL     1       1.317  12.887 -12.605  0.00  0.00    -0.372 N 
ATOM      3  N   UNL     1      -0.943  12.594 -12.335  0.00  0.00    -0.372 N 
ATOM      4  C   UNL     1       0.288  12.560 -11.813  0.00  0.00    +0.166 C 
ATOM      5  H   UNL     1       1.473  12.178 -10.213  0.00  0.00    +0.163 HD
ATOM      6  H   UNL     1       1.176  13.156 -13.569  0.00  0.00    +0.159 HD
ATOM      7  H   UNL     1       2.270  12.895 -12.263  0.00  0.00    +0.159 HD
ATOM      8  H   UNL     1      -1.761  12.352 -11.791  0.00  0.00    +0.159 HD
ATOM      9  H   UNL     1      -1.103  12.849 -13.301  0.00  0.00    +0.159 HD
ENDROOT
BRANCH   1  10
ATOM     10  C   UNL     1      -0.540  11.892  -9.579  0.00  0.00    +0.151 C 
BRANCH  10  11
ATOM     11  C   UNL     1       0.082  11.624  -8.237  0.00  0.00    -0.028 A 
ATOM     12  C   UNL     1       1.412  11.989  -7.983  0.00  0.00    +0.005 A 
ATOM     13  C   UNL     1      -0.655  11.009  -7.213  0.00  0.00    +0.005 A 
ATOM     14  C   UNL     1       1.981  11.767  -6.727  0.00  0.00    +0.000 A 
ATOM     15  C   UNL     1      -0.083  10.789  -5.960  0.00  0.00    +0.000 A 
ATOM     16  C   UNL     1       1.235  11.170  -5.717  0.00  0.00    +0.000 A 
ENDBRANCH  10  11
ENDBRANCH   1  10
TORSDOF 2
ENDMDL
MODEL 8
REMARK VINA RESULT:    -4.550     19.880     21.008
REMARK INTER + INTRA:          -5.204
REMARK INTER:                  -5.048
REMARK INTRA:                  -0.157
REMARK UNBOUND:                -0.122
REMARK  Name = 1550473
REMARK  2 active torsions:
REMARK  status: ('A' for Active; 'I' for Inactive)
REMARK    1  A    between atoms: N_1  and  C_4
REMARK    2  A    between atoms: C_4  and  C_5
REMARK                            x       y       z     vdW  Elec       q    Type
REMARK                         _______ _______ _______ _____ _____    ______ ____
ROOT
ATOM      1  N   UNL     1       4.044   0.417  -7.516  0.00  0.00    -0.354 N 
ATOM      2  N   UNL     1       3.056   1.808  -5.950  0.00  0.00    -0.372 N 
ATOM      3  N   UNL     1       2.939   2.377  -8.170  0.00  0.00    -0.372 N 
ATOM      4  C   UNL     1       3.352   1.527  -7.224  0.00  0.00    +0.166 C 
ATOM      5  H   UNL     1       4.355  -0.171  -6.751  0.00  0.00    +0.163 HD
ATOM      6  H   UNL     1       2.532   2.636  -5.700  0.00  0.00    +0.159 HD
ATOM      7  H   UNL     1       3.327   1.195  -5.191  0.00  0.00    +0.159 HD
ATOM      8  H   UNL     1       3.135   2.226  -9.150  0.00  0.00    +0.159 HD
ATOM      9  H   UNL     1       2.424   3.218  -7.938  0.00  0.00    +0.159 HD
ENDROOT
BRANCH   1  10
ATOM     10  C   UNL     1       4.372  -0.008  -8.875  0.00  0.00    +0.151 C 
BRANCH  10  11
ATOM     11  C   UNL     1       5.843   0.198  -9.113  0.00  0.00    -0.028 A 
ATOM     12  C   UNL     1       6.748   0.170  -8.042  0.00  0.00    +0.005 A 
ATOM     13  C   UNL     1       6.338   0.416 -10.408  0.00  0.00    +0.005 A 
ATOM     14  C   UNL     1       8.117   0.331  -8.266  0.00  0.00    +0.000 A 
ATOM     15  C   UNL     1       7.706   0.577 -10.627  0.00  0.00    +0.000 A 
ATOM     16  C   UNL     1       8.595   0.533  -9.557  0.00  0.00    +0.000 A 
ENDBRANCH  10  11
ENDBRANCH   1  10
TORSDOF 2
ENDMDL
MODEL 9
REMARK VINA RESULT:    -4.543     23.063     23.972
REMARK INTER + INTRA:          -5.197
REMARK INTER:                  -5.046
REMARK INTRA:                  -0.151
REMARK UNBOUND:                -0.122
REMARK  Name = 1550473
REMARK  2 active torsions:
REMARK  status: ('A' for Active; 'I' for Inactive)
REMARK    1  A    between atoms: N_1  and  C_4
REMARK    2  A    between atoms: C_4  and  C_5
REMARK                            x       y       z     vdW  Elec       q    Type
REMARK                         _______ _______ _______ _____ _____    ______ ____
ROOT
ATOM      1  N   UNL     1       1.112  13.475  -7.283  0.00  0.00    -0.354 N 
ATOM      2  N   UNL     1       1.281  14.549  -9.328  0.00  0.00    -0.372 N 
ATOM      3  N   UNL     1       2.474  15.364  -7.545  0.00  0.00    -0.372 N 
ATOM      4  C   UNL     1       1.623  14.457  -8.037  0.00  0.00    +0.166 C 
ATOM      5  H   UNL     1       0.448  12.837  -7.708  0.00  0.00    +0.163 HD
ATOM      6  H   UNL     1       1.653  15.278  -9.922  0.00  0.00    +0.159 HD
ATOM      7  H   UNL     1       0.654  13.883  -9.762  0.00  0.00    +0.159 HD
ATOM      8  H   UNL     1       2.767  15.353  -6.577  0.00  0.00    +0.159 HD
ATOM      9  H   UNL     1       2.848  16.108  -8.121  0.00  0.00    +0.159 HD
ENDROOT
BRANCH   1  10
ATOM     10  C   UNL     1       1.461  13.254  -5.881  0.00  0.00    +0.151 C 
BRANCH  10  11
ATOM     11  C   UNL     1       0.509  14.027  -5.010  0.00  0.00    -0.028 A 
ATOM     12  C   UNL     1      -0.877  13.860  -5.149  0.00  0.00    +0.005 A 
ATOM     13  C   UNL     1       0.986  14.922  -4.041  0.00  0.00    +0.005 A 
ATOM     14  C   UNL     1      -1.761  14.555  -4.320  0.00  0.00    +0.000 A 
ATOM     15  C   UNL     1       0.100  15.615  -3.216  0.00  0.00    +0.000 A 
ATOM     16  C   UNL     1      -1.274  15.429  -3.354  0.00  0.00    +0.000 A 
ENDBRANCH  10  11
ENDBRANCH   1  10
TORSDOF 2
ENDMDL
