MODEL 1
REMARK VINA RESULT:    -5.731      0.000      0.000
REMARK INTER + INTRA:          -6.492
REMARK INTER:                  -6.401
REMARK INTRA:                  -0.091
REMARK UNBOUND:                -0.091
REMARK  Name = 1550473
REMARK  2 active torsions:
REMARK  status: ('A' for Active; 'I' for Inactive)
REMARK    1  A    between atoms: N_1  and  C_4
REMARK    2  A    between atoms: C_4  and  C_5
REMARK                            x       y       z     vdW  Elec       q    Type
REMARK                         _______ _______ _______ _____ _____    ______ ____
ROOT
ATOM      1  N   UNL     1      -2.196   7.565   1.904  0.00  0.00    -0.354 N 
ATOM      2  N   UNL     1      -3.343   8.417   3.727  0.00  0.00    -0.372 N 
ATOM      3  N   UNL     1      -3.333   9.610   1.766  0.00  0.00    -0.372 N 
ATOM      4  C   UNL     1      -2.950   8.527   2.452  0.00  0.00    +0.166 C 
ATOM      5  H   UNL     1      -1.914   6.785   2.486  0.00  0.00    +0.163 HD
ATOM      6  H   UNL     1      -3.915   9.126   4.166  0.00  0.00    +0.159 HD
ATOM      7  H   UNL     1      -3.098   7.614   4.292  0.00  0.00    +0.159 HD
ATOM      8  H   UNL     1      -3.065   9.755   0.802  0.00  0.00    +0.159 HD
ATOM      9  H   UNL     1      -3.896  10.335   2.192  0.00  0.00    +0.159 HD
ENDROOT
BRANCH   1  10
ATOM     10  C   UNL     1      -1.760   7.563   0.508  0.00  0.00    +0.151 C 
BRANCH  10  11
ATOM     11  C   UNL     1      -1.020   6.284   0.227  0.00  0.00    -0.028 A 
ATOM     12  C   UNL     1      -1.683   5.190  -0.348  0.00  0.00    +0.005 A 
ATOM     13  C   UNL     1       0.345   6.163   0.527  0.00  0.00    +0.005 A 
ATOM     14  C   UNL     1      -0.989   4.013  -0.637  0.00  0.00    +0.000 A 
ATOM     15  C   UNL     1       1.034   4.986   0.238  0.00  0.00    +0.000 A 
ATOM     16  C   UNL     1       0.368   3.911  -0.347  0.00  0.00    +0.000 A 
ENDBRANCH  10  11
ENDBRANCH   1  10
TORSDOF 2
ENDMDL
MODEL 2
REMARK VINA RESULT:    -5.387     15.504     16.387
REMARK INTER + INTRA:          -6.107
REMARK INTER:                  -5.966
REMARK INTRA:                  -0.141
REMARK UNBOUND:                -0.091
REMARK  Name = 1550473
REMARK  2 active torsions:
REMARK  status: ('A' for Active; 'I' for Inactive)
REMARK    1  A    between atoms: N_1  and  C_4
REMARK    2  A    between atoms: C_4  and  C_5
REMARK                            x       y       z     vdW  Elec       q    Type
REMARK                         _______ _______ _______ _____ _____    ______ ____
ROOT
ATOM      1  N   UNL     1       9.272   3.850  14.105  0.00  0.00    -0.354 N 
ATOM      2  N   UNL     1      11.432   4.196  13.347  0.00  0.00    -0.372 N 
ATOM      3  N   UNL     1      10.408   5.847  14.567  0.00  0.00    -0.372 N 
ATOM      4  C   UNL     1      10.356   4.632  14.012  0.00  0.00    +0.166 C 
ATOM      5  H   UNL     1       9.285   2.951  13.637  0.00  0.00    +0.163 HD
ATOM      6  H   UNL     1      12.266   4.762  13.263  0.00  0.00    +0.159 HD
ATOM      7  H   UNL     1      11.459   3.279  12.919  0.00  0.00    +0.159 HD
ATOM      8  H   UNL     1       9.626   6.237  15.078  0.00  0.00    +0.159 HD
ATOM      9  H   UNL     1      11.229   6.433  14.484  0.00  0.00    +0.159 HD
ENDROOT
BRANCH   1  10
ATOM     10  C   UNL     1       8.067   4.208  14.853  0.00  0.00    +0.151 C 
BRANCH  10  11
ATOM     11  C   UNL     1       6.857   3.861  14.031  0.00  0.00    -0.028 A 
ATOM     12  C   UNL     1       6.991   3.512  12.679  0.00  0.00    +0.005 A 
ATOM     13  C   UNL     1       5.574   3.872  14.599  0.00  0.00    +0.005 A 
ATOM     14  C   UNL     1       5.871   3.160  11.922  0.00  0.00    +0.000 A 
ATOM     15  C   UNL     1       4.458   3.521  13.840  0.00  0.00    +0.000 A 
ATOM     16  C   UNL     1       4.607   3.163  12.503  0.00  0.00    +0.000 A 
ENDBRANCH  10  11
ENDBRANCH   1  10
TORSDOF 2
ENDMDL
MODEL 3
REMARK VINA RESULT:    -5.343     19.006     20.268
REMARK INTER + INTRA:          -6.058
REMARK INTER:                  -5.961
REMARK INTRA:                  -0.097
REMARK UNBOUND:                -0.091
REMARK  Name = 1550473
REMARK  2 active torsions:
REMARK  status: ('A' for Active; 'I' for Inactive)
REMARK    1  A    between atoms: N_1  and  C_4
REMARK    2  A    between atoms: C_4  and  C_5
REMARK                            x       y       z     vdW  Elec       q    Type
REMARK                         _______ _______ _______ _____ _____    ______ ____
ROOT
ATOM      1  N   UNL     1       6.380   5.123  17.707  0.00  0.00    -0.354 N 
ATOM      2  N   UNL     1       7.031   4.542  15.562  0.00  0.00    -0.372 N 
ATOM      3  N   UNL     1       7.927   3.403  17.340  0.00  0.00    -0.372 N 
ATOM      4  C   UNL     1       7.110   4.358  16.885  0.00  0.00    +0.166 C 
ATOM      5  H   UNL     1       5.802   5.851  17.301  0.00  0.00    +0.163 HD
ATOM      6  H   UNL     1       7.567   3.978  14.917  0.00  0.00    +0.159 HD
ATOM      7  H   UNL     1       6.418   5.240  15.157  0.00  0.00    +0.159 HD
ATOM      8  H   UNL     1       8.037   3.217  18.328  0.00  0.00    +0.159 HD
ATOM      9  H   UNL     1       8.481   2.835  16.711  0.00  0.00    +0.159 HD
ENDROOT
BRANCH   1  10
ATOM     10  C   UNL     1       6.353   4.968  19.161  0.00  0.00    +0.151 C 
BRANCH  10  11
ATOM     11  C   UNL     1       5.925   6.267  19.786  0.00  0.00    -0.028 A 
ATOM     12  C   UNL     1       4.574   6.508  20.075  0.00  0.00    +0.005 A 
ATOM     13  C   UNL     1       6.867   7.260  20.096  0.00  0.00    +0.005 A 
ATOM     14  C   UNL     1       4.180   7.702  20.683  0.00  0.00    +0.000 A 
ATOM     15  C   UNL     1       6.470   8.452  20.702  0.00  0.00    +0.000 A 
ATOM     16  C   UNL     1       5.127   8.671  20.998  0.00  0.00    +0.000 A 
ENDBRANCH  10  11
ENDBRANCH   1  10
TORSDOF 2
ENDMDL
MODEL 4
REMARK VINA RESULT:    -5.325     16.946     17.839
REMARK INTER + INTRA:          -6.038
REMARK INTER:                  -5.917
REMARK INTRA:                  -0.121
REMARK UNBOUND:                -0.091
REMARK  Name = 1550473
REMARK  2 active torsions:
REMARK  status: ('A' for Active; 'I' for Inactive)
REMARK    1  A    between atoms: N_1  and  C_4
REMARK    2  A    between atoms: C_4  and  C_5
REMARK                            x       y       z     vdW  Elec       q    Type
REMARK                         _______ _______ _______ _____ _____    ______ ____
ROOT
ATOM      1  N   UNL     1       7.326   3.783  13.779  0.00  0.00    -0.354 N 
ATOM      2  N   UNL     1       6.120   2.829  12.047  0.00  0.00    -0.372 N 
ATOM      3  N   UNL     1       8.034   3.995  11.556  0.00  0.00    -0.372 N 
ATOM      4  C   UNL     1       7.170   3.543  12.471  0.00  0.00    +0.166 C 
ATOM      5  H   UNL     1       6.620   3.438  14.419  0.00  0.00    +0.163 HD
ATOM      6  H   UNL     1       5.978   2.629  11.066  0.00  0.00    +0.159 HD
ATOM      7  H   UNL     1       5.440   2.447  12.693  0.00  0.00    +0.159 HD
ATOM      8  H   UNL     1       8.844   4.545  11.809  0.00  0.00    +0.159 HD
ATOM      9  H   UNL     1       7.903   3.815  10.568  0.00  0.00    +0.159 HD
ENDROOT
BRANCH   1  10
ATOM     10  C   UNL     1       8.463   4.503  14.349  0.00  0.00    +0.151 C 
BRANCH  10  11
ATOM     11  C   UNL     1       8.431   4.368  15.846  0.00  0.00    -0.028 A 
ATOM     12  C   UNL     1       7.745   3.304  16.450  0.00  0.00    +0.005 A 
ATOM     13  C   UNL     1       9.088   5.298  16.666  0.00  0.00    +0.005 A 
ATOM     14  C   UNL     1       7.740   3.161  17.840  0.00  0.00    +0.000 A 
ATOM     15  C   UNL     1       9.080   5.152  18.054  0.00  0.00    +0.000 A 
ATOM     16  C   UNL     1       8.408   4.083  18.640  0.00  0.00    +0.000 A 
ENDBRANCH  10  11
ENDBRANCH   1  10
TORSDOF 2
ENDMDL
MODEL 5
REMARK VINA RESULT:    -5.310     12.122     13.691
REMARK INTER + INTRA:          -6.021
REMARK INTER:                  -5.862
REMARK INTRA:                  -0.159
REMARK UNBOUND:                -0.091
REMARK  Name = 1550473
REMARK  2 active torsions:
REMARK  status: ('A' for Active; 'I' for Inactive)
REMARK    1  A    between atoms: N_1  and  C_4
REMARK    2  A    between atoms: C_4  and  C_5
REMARK                            x       y       z     vdW  Elec       q    Type
REMARK                         _______ _______ _______ _____ _____    ______ ____
ROOT
ATOM      1  N   UNL     1      10.265   4.371   4.145  0.00  0.00    -0.354 N 
ATOM      2  N   UNL     1       8.038   4.610   4.738  0.00  0.00    -0.372 N 
ATOM      3  N   UNL     1       9.649   4.847   6.355  0.00  0.00    -0.372 N 
ATOM      4  C   UNL     1       9.333   4.608   5.078  0.00  0.00    +0.166 C 
ATOM      5  H   UNL     1       9.959   4.167   3.200  0.00  0.00    +0.163 HD
ATOM      6  H   UNL     1       7.313   4.789   5.420  0.00  0.00    +0.159 HD
ATOM      7  H   UNL     1       7.738   4.451   3.784  0.00  0.00    +0.159 HD
ATOM      8  H   UNL     1      10.607   4.854   6.678  0.00  0.00    +0.159 HD
ATOM      9  H   UNL     1       8.936   5.017   7.054  0.00  0.00    +0.159 HD
ENDROOT
BRANCH   1  10
ATOM     10  C   UNL     1      11.704   4.400   4.400  0.00  0.00    +0.151 C 
BRANCH  10  11
ATOM     11  C   UNL     1      12.226   5.781   4.114  0.00  0.00    -0.028 A 
ATOM     12  C   UNL     1      11.788   6.488   2.984  0.00  0.00    +0.005 A 
ATOM     13  C   UNL     1      13.154   6.391   4.972  0.00  0.00    +0.005 A 
ATOM     14  C   UNL     1      12.250   7.782   2.734  0.00  0.00    +0.000 A 
ATOM     15  C   UNL     1      13.613   7.683   4.718  0.00  0.00    +0.000 A 
ATOM     16  C   UNL     1      13.159   8.379   3.600  0.00  0.00    +0.000 A 
ENDBRANCH  10  11
ENDBRANCH   1  10
TORSDOF 2
ENDMDL
MODEL 6
REMARK VINA RESULT:    -5.180     18.099     19.036
REMARK INTER + INTRA:          -5.876
REMARK INTER:                  -5.758
REMARK INTRA:                  -0.118
REMARK UNBOUND:                -0.091
REMARK  Name = 1550473
REMARK  2 active torsions:
REMARK  status: ('A' for Active; 'I' for Inactive)
REMARK    1  A    between atoms: N_1  and  C_4
REMARK    2  A    between atoms: C_4  and  C_5
REMARK                            x       y       z     vdW  Elec       q    Type
REMARK                         _______ _______ _______ _____ _____    ______ ____
ROOT
ATOM      1  N   UNL     1       8.599   4.016  15.261  0.00  0.00    -0.354 N 
ATOM      2  N   UNL     1      10.130   3.962  13.525  0.00  0.00    -0.372 N 
ATOM      3  N   UNL     1       7.899   3.734  13.043  0.00  0.00    -0.372 N 
ATOM      4  C   UNL     1       8.864   3.904  13.953  0.00  0.00    +0.166 C 
ATOM      5  H   UNL     1       9.377   4.113  15.903  0.00  0.00    +0.163 HD
ATOM      6  H   UNL     1      10.361   3.884  12.543  0.00  0.00    +0.159 HD
ATOM      7  H   UNL     1      10.903   4.105  14.164  0.00  0.00    +0.159 HD
ATOM      8  H   UNL     1       6.923   3.676  13.301  0.00  0.00    +0.159 HD
ATOM      9  H   UNL     1       8.110   3.642  12.057  0.00  0.00    +0.159 HD
ENDROOT
BRANCH   1  10
ATOM     10  C   UNL     1       7.250   4.020  15.825  0.00  0.00    +0.151 C 
BRANCH  10  11
ATOM     11  C   UNL     1       7.310   4.529  17.239  0.00  0.00    -0.028 A 
ATOM     12  C   UNL     1       8.478   4.378  18.001  0.00  0.00    +0.005 A 
ATOM     13  C   UNL     1       6.204   5.167  17.821  0.00  0.00    +0.005 A 
ATOM     14  C   UNL     1       8.545   4.878  19.304  0.00  0.00    +0.000 A 
ATOM     15  C   UNL     1       6.274   5.663  19.123  0.00  0.00    +0.000 A 
ATOM     16  C   UNL     1       7.446   5.520  19.863  0.00  0.00    +0.000 A 
ENDBRANCH  10  11
ENDBRANCH   1  10
TORSDOF 2
ENDMDL
MODEL 7
REMARK VINA RESULT:    -5.122     16.751     17.595
REMARK INTER + INTRA:          -5.811
REMARK INTER:                  -5.658
REMARK INTRA:                  -0.154
REMARK UNBOUND:                -0.091
REMARK  Name = 1550473
REMARK  2 active torsions:
REMARK  status: ('A' for Active; 'I' for Inactive)
REMARK    1  A    between atoms: N_1  and  C_4
REMARK    2  A    between atoms: C_4  and  C_5
REMARK                            x       y       z     vdW  Elec       q    Type
REMARK                         _______ _______ _______ _____ _____    ______ ____
ROOT
ATOM      1  N   UNL     1       5.190   4.330  14.647  0.00  0.00    -0.354 N 
ATOM      2  N   UNL     1       4.066   2.651  13.514  0.00  0.00    -0.372 N 
ATOM      3  N   UNL     1       6.144   3.288  12.777  0.00  0.00    -0.372 N 
ATOM      4  C   UNL     1       5.143   3.434  13.652  0.00  0.00    +0.166 C 
ATOM      5  H   UNL     1       4.386   4.413  15.258  0.00  0.00    +0.163 HD
ATOM      6  H   UNL     1       4.003   1.964  12.775  0.00  0.00    +0.159 HD
ATOM      7  H   UNL     1       3.283   2.704  14.154  0.00  0.00    +0.159 HD
ATOM      8  H   UNL     1       6.981   3.852  12.823  0.00  0.00    +0.159 HD
ATOM      9  H   UNL     1       6.095   2.613  12.023  0.00  0.00    +0.159 HD
ENDROOT
BRANCH   1  10
ATOM     10  C   UNL     1       6.339   5.193  14.917  0.00  0.00    +0.151 C 
BRANCH  10  11
ATOM     11  C   UNL     1       6.859   4.900  16.297  0.00  0.00    -0.028 A 
ATOM     12  C   UNL     1       6.780   5.869  17.308  0.00  0.00    +0.005 A 
ATOM     13  C   UNL     1       7.428   3.654  16.602  0.00  0.00    +0.005 A 
ATOM     14  C   UNL     1       7.236   5.588  18.598  0.00  0.00    +0.000 A 
ATOM     15  C   UNL     1       7.883   3.377  17.891  0.00  0.00    +0.000 A 
ATOM     16  C   UNL     1       7.785   4.344  18.889  0.00  0.00    +0.000 A 
ENDBRANCH  10  11
ENDBRANCH   1  10
TORSDOF 2
ENDMDL
MODEL 8
REMARK VINA RESULT:    -5.004     15.853     16.642
REMARK INTER + INTRA:          -5.679
REMARK INTER:                  -5.559
REMARK INTRA:                  -0.120
REMARK UNBOUND:                -0.091
REMARK  Name = 1550473
REMARK  2 active torsions:
REMARK  status: ('A' for Active; 'I' for Inactive)
REMARK    1  A    between atoms: N_1  and  C_4
REMARK    2  A    between atoms: C_4  and  C_5
REMARK                            x       y       z     vdW  Elec       q    Type
REMARK                         _______ _______ _______ _____ _____    ______ ____
ROOT
ATOM      1  N   UNL     1       7.319   4.548  16.356  0.00  0.00    -0.354 N 
ATOM      2  N   UNL     1       8.287   3.670  18.269  0.00  0.00    -0.372 N 
ATOM      3  N   UNL     1       6.306   4.814  18.453  0.00  0.00    -0.372 N 
ATOM      4  C   UNL     1       7.295   4.351  17.681  0.00  0.00    +0.166 C 
ATOM      5  H   UNL     1       8.112   4.197  15.832  0.00  0.00    +0.163 HD
ATOM      6  H   UNL     1       8.294   3.503  19.266  0.00  0.00    +0.159 HD
ATOM      7  H   UNL     1       9.055   3.281  17.736  0.00  0.00    +0.159 HD
ATOM      8  H   UNL     1       5.531   5.341  18.072  0.00  0.00    +0.159 HD
ATOM      9  H   UNL     1       6.302   4.667  19.454  0.00  0.00    +0.159 HD
ENDROOT
BRANCH   1  10
ATOM     10  C   UNL     1       6.261   5.229  15.612  0.00  0.00    +0.151 C 
BRANCH  10  11
ATOM     11  C   UNL     1       5.845   4.369  14.451  0.00  0.00    -0.028 A 
ATOM     12  C   UNL     1       6.739   4.108  13.402  0.00  0.00    +0.005 A 
ATOM     13  C   UNL     1       4.560   3.808  14.396  0.00  0.00    +0.005 A 
ATOM     14  C   UNL     1       6.363   3.284  12.338  0.00  0.00    +0.000 A 
ATOM     15  C   UNL     1       4.189   2.987  13.331  0.00  0.00    +0.000 A 
ATOM     16  C   UNL     1       5.091   2.723  12.304  0.00  0.00    +0.000 A 
ENDBRANCH  10  11
ENDBRANCH   1  10
TORSDOF 2
ENDMDL
MODEL 9
REMARK VINA RESULT:    -4.990     14.549     15.559
REMARK INTER + INTRA:          -5.664
REMARK INTER:                  -5.535
REMARK INTRA:                  -0.129
REMARK UNBOUND:                -0.091
REMARK  Name = 1550473
REMARK  2 active torsions:
REMARK  status: ('A' for Active; 'I' for Inactive)
REMARK    1  A    between atoms: N_1  and  C_4
REMARK    2  A    between atoms: C_4  and  C_5
REMARK                            x       y       z     vdW  Elec       q    Type
REMARK                         _______ _______ _______ _____ _____    ______ ____
ROOT
ATOM      1  N   UNL     1       4.130  -5.745   8.079  0.00  0.00    -0.354 N 
ATOM      2  N   UNL     1       6.383  -6.201   8.365  0.00  0.00    -0.372 N 
ATOM      3  N   UNL     1       4.964  -7.920   7.819  0.00  0.00    -0.372 N 
ATOM      4  C   UNL     1       5.143  -6.622   8.086  0.00  0.00    +0.166 C 
ATOM      5  H   UNL     1       4.327  -4.780   8.319  0.00  0.00    +0.163 HD
ATOM      6  H   UNL     1       7.168  -6.838   8.375  0.00  0.00    +0.159 HD
ATOM      7  H   UNL     1       6.584  -5.228   8.560  0.00  0.00    +0.159 HD
ATOM      8  H   UNL     1       4.053  -8.302   7.606  0.00  0.00    +0.159 HD
ATOM      9  H   UNL     1       5.736  -8.576   7.835  0.00  0.00    +0.159 HD
ENDROOT
BRANCH   1  10
ATOM     10  C   UNL     1       2.752  -6.091   7.734  0.00  0.00    +0.151 C 
BRANCH  10  11
ATOM     11  C   UNL     1       1.816  -5.180   8.479  0.00  0.00    -0.028 A 
ATOM     12  C   UNL     1       0.433  -5.411   8.461  0.00  0.00    +0.005 A 
ATOM     13  C   UNL     1       2.307  -4.087   9.211  0.00  0.00    +0.005 A 
ATOM     14  C   UNL     1      -0.434  -4.583   9.178  0.00  0.00    +0.000 A 
ATOM     15  C   UNL     1       1.438  -3.262   9.924  0.00  0.00    +0.000 A 
ATOM     16  C   UNL     1       0.068  -3.512   9.909  0.00  0.00    +0.000 A 
ENDBRANCH  10  11
ENDBRANCH   1  10
TORSDOF 2
ENDMDL
