MODEL 1
REMARK VINA RESULT:    -5.399      0.000      0.000
REMARK INTER + INTRA:          -6.155
REMARK INTER:                  -6.030
REMARK INTRA:                  -0.126
REMARK UNBOUND:                -0.126
REMARK  Name = 1550473
REMARK  2 active torsions:
REMARK  status: ('A' for Active; 'I' for Inactive)
REMARK    1  A    between atoms: N_1  and  C_4
REMARK    2  A    between atoms: C_4  and  C_5
REMARK                            x       y       z     vdW  Elec       q    Type
REMARK                         _______ _______ _______ _____ _____    ______ ____
ROOT
ATOM      1  N   UNL     1       2.194 -24.395 -34.251  0.00  0.00    -0.354 N 
ATOM      2  N   UNL     1       1.980 -26.585 -33.531  0.00  0.00    -0.372 N 
ATOM      3  N   UNL     1       3.989 -25.894 -34.397  0.00  0.00    -0.372 N 
ATOM      4  C   UNL     1       2.725 -25.611 -34.066  0.00  0.00    +0.166 C 
ATOM      5  H   UNL     1       1.221 -24.252 -34.007  0.00  0.00    +0.163 HD
ATOM      6  H   UNL     1       2.354 -27.512 -33.376  0.00  0.00    +0.159 HD
ATOM      7  H   UNL     1       1.021 -26.427 -33.246  0.00  0.00    +0.159 HD
ATOM      8  H   UNL     1       4.602 -25.204 -34.810  0.00  0.00    +0.159 HD
ATOM      9  H   UNL     1       4.378 -26.819 -34.260  0.00  0.00    +0.159 HD
ENDROOT
BRANCH   1  10
ATOM     10  C   UNL     1       2.937 -23.250 -34.776  0.00  0.00    +0.151 C 
BRANCH  10  11
ATOM     11  C   UNL     1       2.383 -21.988 -34.173  0.00  0.00    -0.028 A 
ATOM     12  C   UNL     1       1.089 -21.964 -33.634  0.00  0.00    +0.005 A 
ATOM     13  C   UNL     1       3.151 -20.813 -34.134  0.00  0.00    +0.005 A 
ATOM     14  C   UNL     1       0.585 -20.801 -33.048  0.00  0.00    +0.000 A 
ATOM     15  C   UNL     1       2.644 -19.653 -33.548  0.00  0.00    +0.000 A 
ATOM     16  C   UNL     1       1.362 -19.648 -33.003  0.00  0.00    +0.000 A 
ENDBRANCH  10  11
ENDBRANCH   1  10
TORSDOF 2
ENDMDL
MODEL 2
REMARK VINA RESULT:    -5.299      1.540      2.765
REMARK INTER + INTRA:          -6.044
REMARK INTER:                  -5.861
REMARK INTRA:                  -0.183
REMARK UNBOUND:                -0.126
REMARK  Name = 1550473
REMARK  2 active torsions:
REMARK  status: ('A' for Active; 'I' for Inactive)
REMARK    1  A    between atoms: N_1  and  C_4
REMARK    2  A    between atoms: C_4  and  C_5
REMARK                            x       y       z     vdW  Elec       q    Type
REMARK                         _______ _______ _______ _____ _____    ______ ____
ROOT
ATOM      1  N   UNL     1       2.774 -26.625 -33.534  0.00  0.00    -0.354 N 
ATOM      2  N   UNL     1       4.155 -27.524 -31.906  0.00  0.00    -0.372 N 
ATOM      3  N   UNL     1       5.106 -26.571 -33.764  0.00  0.00    -0.372 N 
ATOM      4  C   UNL     1       4.005 -26.900 -33.081  0.00  0.00    +0.166 C 
ATOM      5  H   UNL     1       1.980 -26.928 -32.982  0.00  0.00    +0.163 HD
ATOM      6  H   UNL     1       5.071 -27.741 -31.537  0.00  0.00    +0.159 HD
ATOM      7  H   UNL     1       3.360 -27.784 -31.335  0.00  0.00    +0.159 HD
ATOM      8  H   UNL     1       5.060 -26.104 -34.660  0.00  0.00    +0.159 HD
ATOM      9  H   UNL     1       6.031 -26.791 -33.417  0.00  0.00    +0.159 HD
ENDROOT
BRANCH   1  10
ATOM     10  C   UNL     1       2.503 -25.902 -34.775  0.00  0.00    +0.151 C 
BRANCH  10  11
ATOM     11  C   UNL     1       2.259 -24.453 -34.456  0.00  0.00    -0.028 A 
ATOM     12  C   UNL     1       3.139 -23.464 -34.919  0.00  0.00    +0.005 A 
ATOM     13  C   UNL     1       1.147 -24.062 -33.695  0.00  0.00    +0.005 A 
ATOM     14  C   UNL     1       2.897 -22.115 -34.648  0.00  0.00    +0.000 A 
ATOM     15  C   UNL     1       0.909 -22.714 -33.426  0.00  0.00    +0.000 A 
ATOM     16  C   UNL     1       1.783 -21.741 -33.905  0.00  0.00    +0.000 A 
ENDBRANCH  10  11
ENDBRANCH   1  10
TORSDOF 2
ENDMDL
MODEL 3
REMARK VINA RESULT:    -5.201      1.589      2.416
REMARK INTER + INTRA:          -5.935
REMARK INTER:                  -5.800
REMARK INTRA:                  -0.135
REMARK UNBOUND:                -0.126
REMARK  Name = 1550473
REMARK  2 active torsions:
REMARK  status: ('A' for Active; 'I' for Inactive)
REMARK    1  A    between atoms: N_1  and  C_4
REMARK    2  A    between atoms: C_4  and  C_5
REMARK                            x       y       z     vdW  Elec       q    Type
REMARK                         _______ _______ _______ _____ _____    ______ ____
ROOT
ATOM      1  N   UNL     1       2.858 -24.105 -35.330  0.00  0.00    -0.354 N 
ATOM      2  N   UNL     1       3.814 -25.048 -37.217  0.00  0.00    -0.372 N 
ATOM      3  N   UNL     1       1.594 -25.434 -36.789  0.00  0.00    -0.372 N 
ATOM      4  C   UNL     1       2.746 -24.857 -36.433  0.00  0.00    +0.166 C 
ATOM      5  H   UNL     1       3.767 -23.720 -35.100  0.00  0.00    +0.163 HD
ATOM      6  H   UNL     1       3.760 -25.607 -38.058  0.00  0.00    +0.159 HD
ATOM      7  H   UNL     1       4.710 -24.624 -37.009  0.00  0.00    +0.159 HD
ATOM      8  H   UNL     1       0.752 -25.334 -36.236  0.00  0.00    +0.159 HD
ATOM      9  H   UNL     1       1.522 -26.007 -37.620  0.00  0.00    +0.159 HD
ENDROOT
BRANCH   1  10
ATOM     10  C   UNL     1       1.743 -23.792 -34.438  0.00  0.00    +0.151 C 
BRANCH  10  11
ATOM     11  C   UNL     1       1.840 -22.351 -34.019  0.00  0.00    -0.028 A 
ATOM     12  C   UNL     1       3.018 -21.622 -34.240  0.00  0.00    +0.005 A 
ATOM     13  C   UNL     1       0.755 -21.706 -33.405  0.00  0.00    +0.005 A 
ATOM     14  C   UNL     1       3.098 -20.275 -33.877  0.00  0.00    +0.000 A 
ATOM     15  C   UNL     1       0.839 -20.362 -33.044  0.00  0.00    +0.000 A 
ATOM     16  C   UNL     1       2.010 -19.646 -33.283  0.00  0.00    +0.000 A 
ENDBRANCH  10  11
ENDBRANCH   1  10
TORSDOF 2
ENDMDL
MODEL 4
REMARK VINA RESULT:    -5.149      2.076      2.635
REMARK INTER + INTRA:          -5.877
REMARK INTER:                  -5.722
REMARK INTRA:                  -0.155
REMARK UNBOUND:                -0.126
REMARK  Name = 1550473
REMARK  2 active torsions:
REMARK  status: ('A' for Active; 'I' for Inactive)
REMARK    1  A    between atoms: N_1  and  C_4
REMARK    2  A    between atoms: C_4  and  C_5
REMARK                            x       y       z     vdW  Elec       q    Type
REMARK                         _______ _______ _______ _____ _____    ______ ____
ROOT
ATOM      1  N   UNL     1      -0.270 -23.771 -32.172  0.00  0.00    -0.354 N 
ATOM      2  N   UNL     1      -0.124 -25.160 -30.324  0.00  0.00    -0.372 N 
ATOM      3  N   UNL     1       0.972 -25.757 -32.249  0.00  0.00    -0.372 N 
ATOM      4  C   UNL     1       0.193 -24.888 -31.596  0.00  0.00    +0.166 C 
ATOM      5  H   UNL     1      -0.881 -23.169 -31.632  0.00  0.00    +0.163 HD
ATOM      6  H   UNL     1       0.213 -25.993 -29.862  0.00  0.00    +0.159 HD
ATOM      7  H   UNL     1      -0.698 -24.533 -29.773  0.00  0.00    +0.159 HD
ATOM      8  H   UNL     1       1.243 -25.613 -33.213  0.00  0.00    +0.159 HD
ATOM      9  H   UNL     1       1.310 -26.602 -31.807  0.00  0.00    +0.159 HD
ENDROOT
BRANCH   1  10
ATOM     10  C   UNL     1       0.061 -23.356 -33.534  0.00  0.00    +0.151 C 
BRANCH  10  11
ATOM     11  C   UNL     1       0.913 -22.118 -33.477  0.00  0.00    -0.028 A 
ATOM     12  C   UNL     1       0.411 -20.933 -32.919  0.00  0.00    +0.005 A 
ATOM     13  C   UNL     1       2.225 -22.126 -33.974  0.00  0.00    +0.005 A 
ATOM     14  C   UNL     1       1.213 -19.792 -32.839  0.00  0.00    +0.000 A 
ATOM     15  C   UNL     1       3.022 -20.984 -33.893  0.00  0.00    +0.000 A 
ATOM     16  C   UNL     1       2.517 -19.818 -33.323  0.00  0.00    +0.000 A 
ENDBRANCH  10  11
ENDBRANCH   1  10
TORSDOF 2
ENDMDL
MODEL 5
REMARK VINA RESULT:    -4.700     48.342     49.665
REMARK INTER + INTRA:          -5.375
REMARK INTER:                  -5.231
REMARK INTRA:                  -0.144
REMARK UNBOUND:                -0.126
REMARK  Name = 1550473
REMARK  2 active torsions:
REMARK  status: ('A' for Active; 'I' for Inactive)
REMARK    1  A    between atoms: N_1  and  C_4
REMARK    2  A    between atoms: C_4  and  C_5
REMARK                            x       y       z     vdW  Elec       q    Type
REMARK                         _______ _______ _______ _____ _____    ______ ____
ROOT
ATOM      1  N   UNL     1       9.371   3.232   6.047  0.00  0.00    -0.354 N 
ATOM      2  N   UNL     1       8.549   1.068   5.978  0.00  0.00    -0.372 N 
ATOM      3  N   UNL     1       7.470   2.703   4.783  0.00  0.00    -0.372 N 
ATOM      4  C   UNL     1       8.467   2.349   5.601  0.00  0.00    +0.166 C 
ATOM      5  H   UNL     1      10.085   2.907   6.689  0.00  0.00    +0.163 HD
ATOM      6  H   UNL     1       7.883   0.378   5.655  0.00  0.00    +0.159 HD
ATOM      7  H   UNL     1       9.291   0.737   6.583  0.00  0.00    +0.159 HD
ATOM      8  H   UNL     1       7.349   3.655   4.467  0.00  0.00    +0.159 HD
ATOM      9  H   UNL     1       6.787   2.030   4.459  0.00  0.00    +0.159 HD
ENDROOT
BRANCH   1  10
ATOM     10  C   UNL     1       9.402   4.640   5.654  0.00  0.00    +0.151 C 
BRANCH  10  11
ATOM     11  C   UNL     1       9.218   5.495   6.877  0.00  0.00    -0.028 A 
ATOM     12  C   UNL     1       8.416   6.644   6.828  0.00  0.00    +0.005 A 
ATOM     13  C   UNL     1       9.839   5.158   8.090  0.00  0.00    +0.005 A 
ATOM     14  C   UNL     1       8.220   7.422   7.972  0.00  0.00    +0.000 A 
ATOM     15  C   UNL     1       9.642   5.938   9.229  0.00  0.00    +0.000 A 
ATOM     16  C   UNL     1       8.831   7.068   9.171  0.00  0.00    +0.000 A 
ENDBRANCH  10  11
ENDBRANCH   1  10
TORSDOF 2
ENDMDL
MODEL 6
REMARK VINA RESULT:    -4.619      1.829      2.714
REMARK INTER + INTRA:          -5.285
REMARK INTER:                  -5.133
REMARK INTRA:                  -0.152
REMARK UNBOUND:                -0.126
REMARK  Name = 1550473
REMARK  2 active torsions:
REMARK  status: ('A' for Active; 'I' for Inactive)
REMARK    1  A    between atoms: N_1  and  C_4
REMARK    2  A    between atoms: C_4  and  C_5
REMARK                            x       y       z     vdW  Elec       q    Type
REMARK                         _______ _______ _______ _____ _____    ______ ____
ROOT
ATOM      1  N   UNL     1       2.821 -26.329 -33.289  0.00  0.00    -0.354 N 
ATOM      2  N   UNL     1       5.099 -26.655 -33.552  0.00  0.00    -0.372 N 
ATOM      3  N   UNL     1       3.764 -26.599 -35.417  0.00  0.00    -0.372 N 
ATOM      4  C   UNL     1       3.879 -26.526 -34.087  0.00  0.00    +0.166 C 
ATOM      5  H   UNL     1       2.971 -26.313 -32.287  0.00  0.00    +0.163 HD
ATOM      6  H   UNL     1       5.917 -26.801 -34.129  0.00  0.00    +0.159 HD
ATOM      7  H   UNL     1       5.252 -26.593 -32.553  0.00  0.00    +0.159 HD
ATOM      8  H   UNL     1       2.871 -26.515 -35.883  0.00  0.00    +0.159 HD
ATOM      9  H   UNL     1       4.569 -26.756 -36.011  0.00  0.00    +0.159 HD
ENDROOT
BRANCH   1  10
ATOM     10  C   UNL     1       1.458 -26.122 -33.775  0.00  0.00    +0.151 C 
BRANCH  10  11
ATOM     11  C   UNL     1       1.045 -24.704 -33.489  0.00  0.00    -0.028 A 
ATOM     12  C   UNL     1       0.058 -24.430 -32.531  0.00  0.00    +0.005 A 
ATOM     13  C   UNL     1       1.641 -23.631 -34.168  0.00  0.00    +0.005 A 
ATOM     14  C   UNL     1      -0.305 -23.112 -32.244  0.00  0.00    +0.000 A 
ATOM     15  C   UNL     1       1.275 -22.316 -33.879  0.00  0.00    +0.000 A 
ATOM     16  C   UNL     1       0.304 -22.057 -32.915  0.00  0.00    +0.000 A 
ENDBRANCH  10  11
ENDBRANCH   1  10
TORSDOF 2
ENDMDL
MODEL 7
REMARK VINA RESULT:    -4.424     50.739     52.193
REMARK INTER + INTRA:          -5.066
REMARK INTER:                  -4.926
REMARK INTRA:                  -0.140
REMARK UNBOUND:                -0.126
REMARK  Name = 1550473
REMARK  2 active torsions:
REMARK  status: ('A' for Active; 'I' for Inactive)
REMARK    1  A    between atoms: N_1  and  C_4
REMARK    2  A    between atoms: C_4  and  C_5
REMARK                            x       y       z     vdW  Elec       q    Type
REMARK                         _______ _______ _______ _____ _____    ______ ____
ROOT
ATOM      1  N   UNL     1       8.734   8.586   6.070  0.00  0.00    -0.354 N 
ATOM      2  N   UNL     1       8.405   6.565   4.987  0.00  0.00    -0.372 N 
ATOM      3  N   UNL     1       7.593   6.827   7.117  0.00  0.00    -0.372 N 
ATOM      4  C   UNL     1       8.245   7.339   6.068  0.00  0.00    +0.166 C 
ATOM      5  H   UNL     1       9.246   8.904   5.254  0.00  0.00    +0.163 HD
ATOM      6  H   UNL     1       8.044   5.621   4.955  0.00  0.00    +0.159 HD
ATOM      7  H   UNL     1       8.877   6.901   4.156  0.00  0.00    +0.159 HD
ATOM      8  H   UNL     1       7.444   7.358   7.965  0.00  0.00    +0.159 HD
ATOM      9  H   UNL     1       7.234   5.881   7.108  0.00  0.00    +0.159 HD
ENDROOT
BRANCH   1  10
ATOM     10  C   UNL     1       8.567   9.528   7.175  0.00  0.00    +0.151 C 
BRANCH  10  11
ATOM     11  C   UNL     1       8.174  10.870   6.622  0.00  0.00    -0.028 A 
ATOM     12  C   UNL     1       7.883  11.020   5.258  0.00  0.00    +0.005 A 
ATOM     13  C   UNL     1       8.085  11.994   7.457  0.00  0.00    +0.005 A 
ATOM     14  C   UNL     1       7.489  12.260   4.749  0.00  0.00    +0.000 A 
ATOM     15  C   UNL     1       7.692  13.230   6.945  0.00  0.00    +0.000 A 
ATOM     16  C   UNL     1       7.391  13.362   5.591  0.00  0.00    +0.000 A 
ENDBRANCH  10  11
ENDBRANCH   1  10
TORSDOF 2
ENDMDL
MODEL 8
REMARK VINA RESULT:    -4.347     29.894     30.792
REMARK INTER + INTRA:          -4.981
REMARK INTER:                  -4.867
REMARK INTRA:                  -0.114
REMARK UNBOUND:                -0.126
REMARK  Name = 1550473
REMARK  2 active torsions:
REMARK  status: ('A' for Active; 'I' for Inactive)
REMARK    1  A    between atoms: N_1  and  C_4
REMARK    2  A    between atoms: C_4  and  C_5
REMARK                            x       y       z     vdW  Elec       q    Type
REMARK                         _______ _______ _______ _____ _____    ______ ____
ROOT
ATOM      1  N   UNL     1       1.568  -3.971  -8.997  0.00  0.00    -0.354 N 
ATOM      2  N   UNL     1       3.155  -5.068  -7.716  0.00  0.00    -0.372 N 
ATOM      3  N   UNL     1       3.565  -4.742  -9.950  0.00  0.00    -0.372 N 
ATOM      4  C   UNL     1       2.754  -4.587  -8.898  0.00  0.00    +0.166 C 
ATOM      5  H   UNL     1       0.986  -3.911  -8.169  0.00  0.00    +0.163 HD
ATOM      6  H   UNL     1       4.046  -5.535  -7.610  0.00  0.00    +0.159 HD
ATOM      7  H   UNL     1       2.592  -4.967  -6.880  0.00  0.00    +0.159 HD
ATOM      8  H   UNL     1       3.318  -4.407 -10.871  0.00  0.00    +0.159 HD
ATOM      9  H   UNL     1       4.456  -5.217  -9.867  0.00  0.00    +0.159 HD
ENDROOT
BRANCH   1  10
ATOM     10  C   UNL     1       1.062  -3.364 -10.226  0.00  0.00    +0.151 C 
BRANCH  10  11
ATOM     11  C   UNL     1      -0.434  -3.513 -10.268  0.00  0.00    -0.028 A 
ATOM     12  C   UNL     1      -1.266  -2.393 -10.126  0.00  0.00    +0.005 A 
ATOM     13  C   UNL     1      -1.025  -4.772 -10.455  0.00  0.00    +0.005 A 
ATOM     14  C   UNL     1      -2.655  -2.528 -10.194  0.00  0.00    +0.000 A 
ATOM     15  C   UNL     1      -2.413  -4.902 -10.522  0.00  0.00    +0.000 A 
ATOM     16  C   UNL     1      -3.227  -3.780 -10.394  0.00  0.00    +0.000 A 
ENDBRANCH  10  11
ENDBRANCH   1  10
TORSDOF 2
ENDMDL
MODEL 9
REMARK VINA RESULT:    -4.343     42.078     43.590
REMARK INTER + INTRA:          -4.976
REMARK INTER:                  -4.882
REMARK INTRA:                  -0.094
REMARK UNBOUND:                -0.126
REMARK  Name = 1550473
REMARK  2 active torsions:
REMARK  status: ('A' for Active; 'I' for Inactive)
REMARK    1  A    between atoms: N_1  and  C_4
REMARK    2  A    between atoms: C_4  and  C_5
REMARK                            x       y       z     vdW  Elec       q    Type
REMARK                         _______ _______ _______ _____ _____    ______ ____
ROOT
ATOM      1  N   UNL     1     -17.643   3.555  -6.937  0.00  0.00    -0.354 N 
ATOM      2  N   UNL     1     -17.998   5.017  -8.699  0.00  0.00    -0.372 N 
ATOM      3  N   UNL     1     -15.861   4.303  -8.263  0.00  0.00    -0.372 N 
ATOM      4  C   UNL     1     -17.162   4.282  -7.955  0.00  0.00    +0.166 C 
ATOM      5  H   UNL     1     -18.635   3.606  -6.736  0.00  0.00    +0.163 HD
ATOM      6  H   UNL     1     -17.664   5.572  -9.475  0.00  0.00    +0.159 HD
ATOM      7  H   UNL     1     -18.995   5.029  -8.524  0.00  0.00    +0.159 HD
ATOM      8  H   UNL     1     -15.177   3.776  -7.736  0.00  0.00    +0.159 HD
ATOM      9  H   UNL     1     -15.506   4.862  -9.029  0.00  0.00    +0.159 HD
ENDROOT
BRANCH   1  10
ATOM     10  C   UNL     1     -16.825   2.680  -6.100  0.00  0.00    +0.151 C 
BRANCH  10  11
ATOM     11  C   UNL     1     -16.600   3.343  -4.769  0.00  0.00    -0.028 A 
ATOM     12  C   UNL     1     -15.775   2.744  -3.805  0.00  0.00    +0.005 A 
ATOM     13  C   UNL     1     -17.205   4.573  -4.467  0.00  0.00    +0.005 A 
ATOM     14  C   UNL     1     -15.542   3.374  -2.581  0.00  0.00    +0.000 A 
ATOM     15  C   UNL     1     -16.970   5.198  -3.243  0.00  0.00    +0.000 A 
ATOM     16  C   UNL     1     -16.137   4.600  -2.301  0.00  0.00    +0.000 A 
ENDBRANCH  10  11
ENDBRANCH   1  10
TORSDOF 2
ENDMDL
