MODEL 1
REMARK VINA RESULT:    -5.646      0.000      0.000
REMARK INTER + INTRA:          -6.443
REMARK INTER:                  -6.306
REMARK INTRA:                  -0.137
REMARK UNBOUND:                -0.137
REMARK  Name = 1550473
REMARK  2 active torsions:
REMARK  status: ('A' for Active; 'I' for Inactive)
REMARK    1  A    between atoms: N_1  and  C_4
REMARK    2  A    between atoms: C_4  and  C_5
REMARK                            x       y       z     vdW  Elec       q    Type
REMARK                         _______ _______ _______ _____ _____    ______ ____
ROOT
ATOM      1  N   UNL     1       8.252 -10.037 -18.093  0.00  0.00    -0.354 N 
ATOM      2  N   UNL     1       7.554 -12.117 -17.351  0.00  0.00    -0.372 N 
ATOM      3  N   UNL     1       8.856 -11.991 -19.236  0.00  0.00    -0.372 N 
ATOM      4  C   UNL     1       8.226 -11.369 -18.234  0.00  0.00    +0.166 C 
ATOM      5  H   UNL     1       7.729  -9.624 -17.329  0.00  0.00    +0.163 HD
ATOM      6  H   UNL     1       7.520 -13.124 -17.430  0.00  0.00    +0.159 HD
ATOM      7  H   UNL     1       7.071 -11.705 -16.562  0.00  0.00    +0.159 HD
ATOM      8  H   UNL     1       9.375 -11.483 -19.940  0.00  0.00    +0.159 HD
ATOM      9  H   UNL     1       8.823 -12.998 -19.339  0.00  0.00    +0.159 HD
ENDROOT
BRANCH   1  10
ATOM     10  C   UNL     1       8.999  -9.136 -18.969  0.00  0.00    +0.151 C 
BRANCH  10  11
ATOM     11  C   UNL     1       8.079  -8.051 -19.457  0.00  0.00    -0.028 A 
ATOM     12  C   UNL     1       7.002  -7.622 -18.668  0.00  0.00    +0.005 A 
ATOM     13  C   UNL     1       8.282  -7.444 -20.706  0.00  0.00    +0.005 A 
ATOM     14  C   UNL     1       6.165  -6.593 -19.108  0.00  0.00    +0.000 A 
ATOM     15  C   UNL     1       7.444  -6.418 -21.142  0.00  0.00    +0.000 A 
ATOM     16  C   UNL     1       6.387  -5.991 -20.342  0.00  0.00    +0.000 A 
ENDBRANCH  10  11
ENDBRANCH   1  10
TORSDOF 2
ENDMDL
MODEL 2
REMARK VINA RESULT:    -5.301     22.705     23.517
REMARK INTER + INTRA:          -6.058
REMARK INTER:                  -5.942
REMARK INTRA:                  -0.116
REMARK UNBOUND:                -0.137
REMARK  Name = 1550473
REMARK  2 active torsions:
REMARK  status: ('A' for Active; 'I' for Inactive)
REMARK    1  A    between atoms: N_1  and  C_4
REMARK    2  A    between atoms: C_4  and  C_5
REMARK                            x       y       z     vdW  Elec       q    Type
REMARK                         _______ _______ _______ _____ _____    ______ ____
ROOT
ATOM      1  N   UNL     1      12.182   5.285   0.223  0.00  0.00    -0.354 N 
ATOM      2  N   UNL     1      12.551   6.039   2.381  0.00  0.00    -0.372 N 
ATOM      3  N   UNL     1      13.923   4.411   1.526  0.00  0.00    -0.372 N 
ATOM      4  C   UNL     1      12.885   5.238   1.363  0.00  0.00    +0.166 C 
ATOM      5  H   UNL     1      11.388   5.912   0.173  0.00  0.00    +0.163 HD
ATOM      6  H   UNL     1      13.064   6.029   3.252  0.00  0.00    +0.159 HD
ATOM      7  H   UNL     1      11.784   6.698   2.312  0.00  0.00    +0.159 HD
ATOM      8  H   UNL     1      14.222   3.777   0.798  0.00  0.00    +0.159 HD
ATOM      9  H   UNL     1      14.442   4.378   2.395  0.00  0.00    +0.159 HD
ENDROOT
BRANCH   1  10
ATOM     10  C   UNL     1      12.497   4.493  -0.965  0.00  0.00    +0.151 C 
BRANCH  10  11
ATOM     11  C   UNL     1      12.218   5.315  -2.192  0.00  0.00    -0.028 A 
ATOM     12  C   UNL     1      11.116   5.024  -3.009  0.00  0.00    +0.005 A 
ATOM     13  C   UNL     1      13.049   6.392  -2.540  0.00  0.00    +0.005 A 
ATOM     14  C   UNL     1      10.839   5.806  -4.133  0.00  0.00    +0.000 A 
ATOM     15  C   UNL     1      12.769   7.170  -3.664  0.00  0.00    +0.000 A 
ATOM     16  C   UNL     1      11.663   6.879  -4.458  0.00  0.00    +0.000 A 
ENDBRANCH  10  11
ENDBRANCH   1  10
TORSDOF 2
ENDMDL
MODEL 3
REMARK VINA RESULT:    -5.258     13.301     14.424
REMARK INTER + INTRA:          -6.010
REMARK INTER:                  -5.868
REMARK INTRA:                  -0.142
REMARK UNBOUND:                -0.137
REMARK  Name = 1550473
REMARK  2 active torsions:
REMARK  status: ('A' for Active; 'I' for Inactive)
REMARK    1  A    between atoms: N_1  and  C_4
REMARK    2  A    between atoms: C_4  and  C_5
REMARK                            x       y       z     vdW  Elec       q    Type
REMARK                         _______ _______ _______ _____ _____    ______ ____
ROOT
ATOM      1  N   UNL     1      -4.294 -10.134 -14.834  0.00  0.00    -0.354 N 
ATOM      2  N   UNL     1      -3.290  -8.105 -15.323  0.00  0.00    -0.372 N 
ATOM      3  N   UNL     1      -2.091 -10.038 -15.626  0.00  0.00    -0.372 N 
ATOM      4  C   UNL     1      -3.229  -9.441 -15.258  0.00  0.00    +0.166 C 
ATOM      5  H   UNL     1      -5.117  -9.620 -14.541  0.00  0.00    +0.163 HD
ATOM      6  H   UNL     1      -2.503  -7.556 -15.643  0.00  0.00    +0.159 HD
ATOM      7  H   UNL     1      -4.129  -7.597 -15.073  0.00  0.00    +0.159 HD
ATOM      8  H   UNL     1      -1.978 -11.042 -15.595  0.00  0.00    +0.159 HD
ATOM      9  H   UNL     1      -1.289  -9.504 -15.938  0.00  0.00    +0.159 HD
ENDROOT
BRANCH   1  10
ATOM     10  C   UNL     1      -4.350 -11.594 -14.777  0.00  0.00    +0.151 C 
BRANCH  10  11
ATOM     11  C   UNL     1      -4.830 -12.014 -13.416  0.00  0.00    -0.028 A 
ATOM     12  C   UNL     1      -5.950 -12.849 -13.282  0.00  0.00    +0.005 A 
ATOM     13  C   UNL     1      -4.167 -11.586 -12.255  0.00  0.00    +0.005 A 
ATOM     14  C   UNL     1      -6.378 -13.264 -12.019  0.00  0.00    +0.000 A 
ATOM     15  C   UNL     1      -4.599 -12.002 -10.996  0.00  0.00    +0.000 A 
ATOM     16  C   UNL     1      -5.703 -12.843 -10.878  0.00  0.00    +0.000 A 
ENDBRANCH  10  11
ENDBRANCH   1  10
TORSDOF 2
ENDMDL
MODEL 4
REMARK VINA RESULT:    -5.209      9.362     10.405
REMARK INTER + INTRA:          -5.955
REMARK INTER:                  -5.774
REMARK INTRA:                  -0.181
REMARK UNBOUND:                -0.137
REMARK  Name = 1550473
REMARK  2 active torsions:
REMARK  status: ('A' for Active; 'I' for Inactive)
REMARK    1  A    between atoms: N_1  and  C_4
REMARK    2  A    between atoms: C_4  and  C_5
REMARK                            x       y       z     vdW  Elec       q    Type
REMARK                         _______ _______ _______ _____ _____    ______ ____
ROOT
ATOM      1  N   UNL     1       0.546  -9.508 -16.223  0.00  0.00    -0.354 N 
ATOM      2  N   UNL     1       0.150  -7.226 -16.242  0.00  0.00    -0.372 N 
ATOM      3  N   UNL     1      -0.383  -8.460 -18.102  0.00  0.00    -0.372 N 
ATOM      4  C   UNL     1       0.106  -8.413 -16.858  0.00  0.00    +0.166 C 
ATOM      5  H   UNL     1       0.933  -9.402 -15.293  0.00  0.00    +0.163 HD
ATOM      6  H   UNL     1      -0.177  -6.383 -16.695  0.00  0.00    +0.159 HD
ATOM      7  H   UNL     1       0.495  -7.130 -15.295  0.00  0.00    +0.159 HD
ATOM      8  H   UNL     1      -0.438  -9.324 -18.624  0.00  0.00    +0.159 HD
ATOM      9  H   UNL     1      -0.705  -7.625 -18.576  0.00  0.00    +0.159 HD
ENDROOT
BRANCH   1  10
ATOM     10  C   UNL     1       0.492 -10.857 -16.785  0.00  0.00    +0.151 C 
BRANCH  10  11
ATOM     11  C   UNL     1      -0.727 -11.560 -16.257  0.00  0.00    -0.028 A 
ATOM     12  C   UNL     1      -1.699 -12.059 -17.138  0.00  0.00    +0.005 A 
ATOM     13  C   UNL     1      -0.915 -11.737 -14.878  0.00  0.00    +0.005 A 
ATOM     14  C   UNL     1      -2.817 -12.739 -16.649  0.00  0.00    +0.000 A 
ATOM     15  C   UNL     1      -2.033 -12.416 -14.394  0.00  0.00    +0.000 A 
ATOM     16  C   UNL     1      -2.982 -12.919 -15.280  0.00  0.00    +0.000 A 
ENDBRANCH  10  11
ENDBRANCH   1  10
TORSDOF 2
ENDMDL
MODEL 5
REMARK VINA RESULT:    -5.076      9.755     10.929
REMARK INTER + INTRA:          -5.807
REMARK INTER:                  -5.626
REMARK INTRA:                  -0.182
REMARK UNBOUND:                -0.137
REMARK  Name = 1550473
REMARK  2 active torsions:
REMARK  status: ('A' for Active; 'I' for Inactive)
REMARK    1  A    between atoms: N_1  and  C_4
REMARK    2  A    between atoms: C_4  and  C_5
REMARK                            x       y       z     vdW  Elec       q    Type
REMARK                         _______ _______ _______ _____ _____    ______ ____
ROOT
ATOM      1  N   UNL     1      -0.944  -8.737 -16.537  0.00  0.00    -0.354 N 
ATOM      2  N   UNL     1       1.021  -7.567 -16.173  0.00  0.00    -0.372 N 
ATOM      3  N   UNL     1       1.142  -9.728 -16.935  0.00  0.00    -0.372 N 
ATOM      4  C   UNL     1       0.394  -8.687 -16.551  0.00  0.00    +0.166 C 
ATOM      5  H   UNL     1      -1.453  -7.924 -16.207  0.00  0.00    +0.163 HD
ATOM      6  H   UNL     1       2.030  -7.498 -16.177  0.00  0.00    +0.159 HD
ATOM      7  H   UNL     1       0.509  -6.740 -15.888  0.00  0.00    +0.159 HD
ATOM      8  H   UNL     1       0.730 -10.604 -17.226  0.00  0.00    +0.159 HD
ATOM      9  H   UNL     1       2.153  -9.683 -16.934  0.00  0.00    +0.159 HD
ENDROOT
BRANCH   1  10
ATOM     10  C   UNL     1      -1.724  -9.891 -16.981  0.00  0.00    +0.151 C 
BRANCH  10  11
ATOM     11  C   UNL     1      -2.219 -10.642 -15.775  0.00  0.00    -0.028 A 
ATOM     12  C   UNL     1      -1.595 -11.832 -15.373  0.00  0.00    +0.005 A 
ATOM     13  C   UNL     1      -3.308 -10.166 -15.029  0.00  0.00    +0.005 A 
ATOM     14  C   UNL     1      -2.035 -12.514 -14.236  0.00  0.00    +0.000 A 
ATOM     15  C   UNL     1      -3.745 -10.850 -13.895  0.00  0.00    +0.000 A 
ATOM     16  C   UNL     1      -3.107 -12.023 -13.497  0.00  0.00    +0.000 A 
ENDBRANCH  10  11
ENDBRANCH   1  10
TORSDOF 2
ENDMDL
MODEL 6
REMARK VINA RESULT:    -5.004     21.231     22.278
REMARK INTER + INTRA:          -5.727
REMARK INTER:                  -5.631
REMARK INTRA:                  -0.095
REMARK UNBOUND:                -0.137
REMARK  Name = 1550473
REMARK  2 active torsions:
REMARK  status: ('A' for Active; 'I' for Inactive)
REMARK    1  A    between atoms: N_1  and  C_4
REMARK    2  A    between atoms: C_4  and  C_5
REMARK                            x       y       z     vdW  Elec       q    Type
REMARK                         _______ _______ _______ _____ _____    ______ ____
ROOT
ATOM      1  N   UNL     1      11.955   6.494  -4.173  0.00  0.00    -0.354 N 
ATOM      2  N   UNL     1      12.006   8.670  -4.962  0.00  0.00    -0.372 N 
ATOM      3  N   UNL     1      10.157   7.379  -5.387  0.00  0.00    -0.372 N 
ATOM      4  C   UNL     1      11.370   7.499  -4.837  0.00  0.00    +0.166 C 
ATOM      5  H   UNL     1      12.888   6.639  -3.805  0.00  0.00    +0.163 HD
ATOM      6  H   UNL     1      11.588   9.448  -5.455  0.00  0.00    +0.159 HD
ATOM      7  H   UNL     1      12.919   8.827  -4.554  0.00  0.00    +0.159 HD
ATOM      8  H   UNL     1       9.627   6.520  -5.333  0.00  0.00    +0.159 HD
ATOM      9  H   UNL     1       9.727   8.143  -5.894  0.00  0.00    +0.159 HD
ENDROOT
BRANCH   1  10
ATOM     10  C   UNL     1      11.325   5.196  -3.933  0.00  0.00    +0.151 C 
BRANCH  10  11
ATOM     11  C   UNL     1      12.163   4.416  -2.958  0.00  0.00    -0.028 A 
ATOM     12  C   UNL     1      12.163   4.748  -1.595  0.00  0.00    +0.005 A 
ATOM     13  C   UNL     1      12.955   3.341  -3.389  0.00  0.00    +0.005 A 
ATOM     14  C   UNL     1      12.917   4.005  -0.684  0.00  0.00    +0.000 A 
ATOM     15  C   UNL     1      13.708   2.602  -2.477  0.00  0.00    +0.000 A 
ATOM     16  C   UNL     1      13.687   2.933  -1.124  0.00  0.00    +0.000 A 
ENDBRANCH  10  11
ENDBRANCH   1  10
TORSDOF 2
ENDMDL
MODEL 7
REMARK VINA RESULT:    -4.973     12.576     13.583
REMARK INTER + INTRA:          -5.691
REMARK INTER:                  -5.572
REMARK INTRA:                  -0.119
REMARK UNBOUND:                -0.137
REMARK  Name = 1550473
REMARK  2 active torsions:
REMARK  status: ('A' for Active; 'I' for Inactive)
REMARK    1  A    between atoms: N_1  and  C_4
REMARK    2  A    between atoms: C_4  and  C_5
REMARK                            x       y       z     vdW  Elec       q    Type
REMARK                         _______ _______ _______ _____ _____    ______ ____
ROOT
ATOM      1  N   UNL     1      -4.861 -12.025 -12.733  0.00  0.00    -0.354 N 
ATOM      2  N   UNL     1      -6.886 -11.754 -11.642  0.00  0.00    -0.372 N 
ATOM      3  N   UNL     1      -4.947 -11.249 -10.523  0.00  0.00    -0.372 N 
ATOM      4  C   UNL     1      -5.550 -11.677 -11.638  0.00  0.00    +0.166 C 
ATOM      5  H   UNL     1      -5.375 -12.371 -13.535  0.00  0.00    +0.163 HD
ATOM      6  H   UNL     1      -7.433 -11.495 -10.832  0.00  0.00    +0.159 HD
ATOM      7  H   UNL     1      -7.400 -12.056 -12.461  0.00  0.00    +0.159 HD
ATOM      8  H   UNL     1      -3.941 -11.174 -10.453  0.00  0.00    +0.159 HD
ATOM      9  H   UNL     1      -5.477 -10.996  -9.698  0.00  0.00    +0.159 HD
ENDROOT
BRANCH   1  10
ATOM     10  C   UNL     1      -3.407 -11.928 -12.850  0.00  0.00    +0.151 C 
BRANCH  10  11
ATOM     11  C   UNL     1      -3.019 -12.084 -14.294  0.00  0.00    -0.028 A 
ATOM     12  C   UNL     1      -1.775 -11.625 -14.751  0.00  0.00    +0.005 A 
ATOM     13  C   UNL     1      -3.889 -12.696 -15.210  0.00  0.00    +0.005 A 
ATOM     14  C   UNL     1      -1.402 -11.798 -16.086  0.00  0.00    +0.000 A 
ATOM     15  C   UNL     1      -3.513 -12.865 -16.543  0.00  0.00    +0.000 A 
ATOM     16  C   UNL     1      -2.269 -12.418 -16.980  0.00  0.00    +0.000 A 
ENDBRANCH  10  11
ENDBRANCH   1  10
TORSDOF 2
ENDMDL
MODEL 8
REMARK VINA RESULT:    -4.959     10.355     11.532
REMARK INTER + INTRA:          -5.676
REMARK INTER:                  -5.561
REMARK INTRA:                  -0.115
REMARK UNBOUND:                -0.137
REMARK  Name = 1550473
REMARK  2 active torsions:
REMARK  status: ('A' for Active; 'I' for Inactive)
REMARK    1  A    between atoms: N_1  and  C_4
REMARK    2  A    between atoms: C_4  and  C_5
REMARK                            x       y       z     vdW  Elec       q    Type
REMARK                         _______ _______ _______ _____ _____    ______ ____
ROOT
ATOM      1  N   UNL     1      -2.138  -8.713 -17.119  0.00  0.00    -0.354 N 
ATOM      2  N   UNL     1      -2.285  -6.402 -17.098  0.00  0.00    -0.372 N 
ATOM      3  N   UNL     1      -0.372  -7.399 -16.317  0.00  0.00    -0.372 N 
ATOM      4  C   UNL     1      -1.595  -7.520 -16.843  0.00  0.00    +0.166 C 
ATOM      5  H   UNL     1      -3.082  -8.739 -17.489  0.00  0.00    +0.163 HD
ATOM      6  H   UNL     1      -1.899  -5.487 -16.904  0.00  0.00    +0.159 HD
ATOM      7  H   UNL     1      -3.209  -6.429 -17.511  0.00  0.00    +0.159 HD
ATOM      8  H   UNL     1       0.198  -8.205 -16.096  0.00  0.00    +0.159 HD
ATOM      9  H   UNL     1       0.027  -6.493 -16.105  0.00  0.00    +0.159 HD
ENDROOT
BRANCH   1  10
ATOM     10  C   UNL     1      -1.450  -9.989 -16.929  0.00  0.00    +0.151 C 
BRANCH  10  11
ATOM     11  C   UNL     1      -2.027 -10.685 -15.727  0.00  0.00    -0.028 A 
ATOM     12  C   UNL     1      -3.177 -10.184 -15.099  0.00  0.00    +0.005 A 
ATOM     13  C   UNL     1      -1.432 -11.848 -15.216  0.00  0.00    +0.005 A 
ATOM     14  C   UNL     1      -3.730 -10.847 -14.001  0.00  0.00    +0.000 A 
ATOM     15  C   UNL     1      -1.987 -12.506 -14.119  0.00  0.00    +0.000 A 
ATOM     16  C   UNL     1      -3.138 -12.007 -13.513  0.00  0.00    +0.000 A 
ENDBRANCH  10  11
ENDBRANCH   1  10
TORSDOF 2
ENDMDL
MODEL 9
REMARK VINA RESULT:    -4.863     25.095     26.414
REMARK INTER + INTRA:          -5.568
REMARK INTER:                  -5.433
REMARK INTRA:                  -0.136
REMARK UNBOUND:                -0.137
REMARK  Name = 1550473
REMARK  2 active torsions:
REMARK  status: ('A' for Active; 'I' for Inactive)
REMARK    1  A    between atoms: N_1  and  C_4
REMARK    2  A    between atoms: C_4  and  C_5
REMARK                            x       y       z     vdW  Elec       q    Type
REMARK                         _______ _______ _______ _____ _____    ______ ____
ROOT
ATOM      1  N   UNL     1      -4.384  15.787 -16.676  0.00  0.00    -0.354 N 
ATOM      2  N   UNL     1      -2.896  17.018 -15.396  0.00  0.00    -0.372 N 
ATOM      3  N   UNL     1      -2.079  15.712 -17.097  0.00  0.00    -0.372 N 
ATOM      4  C   UNL     1      -3.128  16.163 -16.400  0.00  0.00    +0.166 C 
ATOM      5  H   UNL     1      -5.132  16.141 -16.090  0.00  0.00    +0.163 HD
ATOM      6  H   UNL     1      -1.960  17.322 -15.167  0.00  0.00    +0.159 HD
ATOM      7  H   UNL     1      -3.650  17.406 -14.842  0.00  0.00    +0.159 HD
ATOM      8  H   UNL     1      -2.186  15.061 -17.863  0.00  0.00    +0.159 HD
ATOM      9  H   UNL     1      -1.133  15.996 -16.875  0.00  0.00    +0.159 HD
ENDROOT
BRANCH   1  10
ATOM     10  C   UNL     1      -4.748  14.903 -17.781  0.00  0.00    +0.151 C 
BRANCH  10  11
ATOM     11  C   UNL     1      -5.195  13.579 -17.224  0.00  0.00    -0.028 A 
ATOM     12  C   UNL     1      -5.369  12.473 -18.069  0.00  0.00    +0.005 A 
ATOM     13  C   UNL     1      -5.441  13.423 -15.851  0.00  0.00    +0.005 A 
ATOM     14  C   UNL     1      -5.755  11.236 -17.548  0.00  0.00    +0.000 A 
ATOM     15  C   UNL     1      -5.828  12.186 -15.335  0.00  0.00    +0.000 A 
ATOM     16  C   UNL     1      -5.982  11.092 -16.184  0.00  0.00    +0.000 A 
ENDBRANCH  10  11
ENDBRANCH   1  10
TORSDOF 2
ENDMDL
