MODEL 1
REMARK VINA RESULT:    -6.066      0.000      0.000
REMARK INTER + INTRA:          -6.915
REMARK INTER:                  -6.775
REMARK INTRA:                  -0.140
REMARK UNBOUND:                -0.140
REMARK  Name = 1550473
REMARK  2 active torsions:
REMARK  status: ('A' for Active; 'I' for Inactive)
REMARK    1  A    between atoms: N_1  and  C_4
REMARK    2  A    between atoms: C_4  and  C_5
REMARK                            x       y       z     vdW  Elec       q    Type
REMARK                         _______ _______ _______ _____ _____    ______ ____
ROOT
ATOM      1  N   UNL     1      -4.743 -11.073  -0.918  0.00  0.00    -0.354 N 
ATOM      2  N   UNL     1      -2.734 -11.523  -1.978  0.00  0.00    -0.372 N 
ATOM      3  N   UNL     1      -4.450 -10.609  -3.196  0.00  0.00    -0.372 N 
ATOM      4  C   UNL     1      -3.990 -11.065  -2.026  0.00  0.00    +0.166 C 
ATOM      5  H   UNL     1      -4.345 -11.460  -0.069  0.00  0.00    +0.163 HD
ATOM      6  H   UNL     1      -2.141 -11.526  -2.797  0.00  0.00    +0.159 HD
ATOM      7  H   UNL     1      -2.324 -11.866  -1.118  0.00  0.00    +0.159 HD
ATOM      8  H   UNL     1      -5.392 -10.255  -3.300  0.00  0.00    +0.159 HD
ATOM      9  H   UNL     1      -3.876 -10.615  -4.030  0.00  0.00    +0.159 HD
ENDROOT
BRANCH   1  10
ATOM     10  C   UNL     1      -6.105 -10.547  -0.850  0.00  0.00    +0.151 C 
BRANCH  10  11
ATOM     11  C   UNL     1      -6.959 -11.497  -0.056  0.00  0.00    -0.028 A 
ATOM     12  C   UNL     1      -6.454 -12.741   0.347  0.00  0.00    +0.005 A 
ATOM     13  C   UNL     1      -8.273 -11.155   0.300  0.00  0.00    +0.005 A 
ATOM     14  C   UNL     1      -7.237 -13.611   1.110  0.00  0.00    +0.000 A 
ATOM     15  C   UNL     1      -9.052 -12.027   1.061  0.00  0.00    +0.000 A 
ATOM     16  C   UNL     1      -8.533 -13.253   1.468  0.00  0.00    +0.000 A 
ENDBRANCH  10  11
ENDBRANCH   1  10
TORSDOF 2
ENDMDL
MODEL 2
REMARK VINA RESULT:    -5.246     20.852     21.859
REMARK INTER + INTRA:          -5.999
REMARK INTER:                  -5.889
REMARK INTRA:                  -0.110
REMARK UNBOUND:                -0.140
REMARK  Name = 1550473
REMARK  2 active torsions:
REMARK  status: ('A' for Active; 'I' for Inactive)
REMARK    1  A    between atoms: N_1  and  C_4
REMARK    2  A    between atoms: C_4  and  C_5
REMARK                            x       y       z     vdW  Elec       q    Type
REMARK                         _______ _______ _______ _____ _____    ______ ____
ROOT
ATOM      1  N   UNL     1       0.286   7.547   5.150  0.00  0.00    -0.354 N 
ATOM      2  N   UNL     1       1.609   5.787   4.433  0.00  0.00    -0.372 N 
ATOM      3  N   UNL     1       2.472   7.278   5.948  0.00  0.00    -0.372 N 
ATOM      4  C   UNL     1       1.449   6.884   5.183  0.00  0.00    +0.166 C 
ATOM      5  H   UNL     1      -0.441   7.214   4.527  0.00  0.00    +0.163 HD
ATOM      6  H   UNL     1       2.474   5.264   4.440  0.00  0.00    +0.159 HD
ATOM      7  H   UNL     1       0.866   5.431   3.845  0.00  0.00    +0.159 HD
ATOM      8  H   UNL     1       2.417   8.101   6.534  0.00  0.00    +0.159 HD
ATOM      9  H   UNL     1       3.350   6.775   5.960  0.00  0.00    +0.159 HD
ENDROOT
BRANCH   1  10
ATOM     10  C   UNL     1      -0.010   8.722   5.969  0.00  0.00    +0.151 C 
BRANCH  10  11
ATOM     11  C   UNL     1      -1.439   9.132   5.743  0.00  0.00    -0.028 A 
ATOM     12  C   UNL     1      -1.986   9.124   4.451  0.00  0.00    +0.005 A 
ATOM     13  C   UNL     1      -2.253   9.524   6.817  0.00  0.00    +0.005 A 
ATOM     14  C   UNL     1      -3.322   9.475   4.244  0.00  0.00    +0.000 A 
ATOM     15  C   UNL     1      -3.586   9.875   6.605  0.00  0.00    +0.000 A 
ATOM     16  C   UNL     1      -4.121   9.849   5.320  0.00  0.00    +0.000 A 
ENDBRANCH  10  11
ENDBRANCH   1  10
TORSDOF 2
ENDMDL
MODEL 3
REMARK VINA RESULT:    -5.164      8.965     10.424
REMARK INTER + INTRA:          -5.908
REMARK INTER:                  -5.790
REMARK INTRA:                  -0.118
REMARK UNBOUND:                -0.140
REMARK  Name = 1550473
REMARK  2 active torsions:
REMARK  status: ('A' for Active; 'I' for Inactive)
REMARK    1  A    between atoms: N_1  and  C_4
REMARK    2  A    between atoms: C_4  and  C_5
REMARK                            x       y       z     vdW  Elec       q    Type
REMARK                         _______ _______ _______ _____ _____    ______ ____
ROOT
ATOM      1  N   UNL     1     -14.737  -9.955  -2.661  0.00  0.00    -0.354 N 
ATOM      2  N   UNL     1     -14.969 -11.341  -0.820  0.00  0.00    -0.372 N 
ATOM      3  N   UNL     1     -16.816 -10.880  -2.101  0.00  0.00    -0.372 N 
ATOM      4  C   UNL     1     -15.509 -10.716  -1.874  0.00  0.00    +0.166 C 
ATOM      5  H   UNL     1     -13.759  -9.847  -2.417  0.00  0.00    +0.163 HD
ATOM      6  H   UNL     1     -15.526 -11.924  -0.210  0.00  0.00    +0.159 HD
ATOM      7  H   UNL     1     -13.982 -11.268  -0.605  0.00  0.00    +0.159 HD
ATOM      8  H   UNL     1     -17.285 -10.431  -2.877  0.00  0.00    +0.159 HD
ATOM      9  H   UNL     1     -17.392 -11.451  -1.495  0.00  0.00    +0.159 HD
ENDROOT
BRANCH   1  10
ATOM     10  C   UNL     1     -15.215  -9.276  -3.864  0.00  0.00    +0.151 C 
BRANCH  10  11
ATOM     11  C   UNL     1     -14.222  -8.218  -4.259  0.00  0.00    -0.028 A 
ATOM     12  C   UNL     1     -14.631  -7.094  -4.990  0.00  0.00    +0.005 A 
ATOM     13  C   UNL     1     -12.870  -8.332  -3.899  0.00  0.00    +0.005 A 
ATOM     14  C   UNL     1     -13.715  -6.097  -5.331  0.00  0.00    +0.000 A 
ATOM     15  C   UNL     1     -11.958  -7.334  -4.242  0.00  0.00    +0.000 A 
ATOM     16  C   UNL     1     -12.381  -6.216  -4.955  0.00  0.00    +0.000 A 
ENDBRANCH  10  11
ENDBRANCH   1  10
TORSDOF 2
ENDMDL
MODEL 4
REMARK VINA RESULT:    -5.106     21.892     23.796
REMARK INTER + INTRA:          -5.843
REMARK INTER:                  -5.699
REMARK INTRA:                  -0.144
REMARK UNBOUND:                -0.140
REMARK  Name = 1550473
REMARK  2 active torsions:
REMARK  status: ('A' for Active; 'I' for Inactive)
REMARK    1  A    between atoms: N_1  and  C_4
REMARK    2  A    between atoms: C_4  and  C_5
REMARK                            x       y       z     vdW  Elec       q    Type
REMARK                         _______ _______ _______ _____ _____    ______ ____
ROOT
ATOM      1  N   UNL     1       7.298   5.056 -13.575  0.00  0.00    -0.354 N 
ATOM      2  N   UNL     1       6.408   6.912 -14.638  0.00  0.00    -0.372 N 
ATOM      3  N   UNL     1       7.408   5.280 -15.905  0.00  0.00    -0.372 N 
ATOM      4  C   UNL     1       7.045   5.736 -14.701  0.00  0.00    +0.166 C 
ATOM      5  H   UNL     1       7.024   5.470 -12.691  0.00  0.00    +0.163 HD
ATOM      6  H   UNL     1       6.201   7.446 -15.471  0.00  0.00    +0.159 HD
ATOM      7  H   UNL     1       6.095   7.301 -13.757  0.00  0.00    +0.159 HD
ATOM      8  H   UNL     1       7.896   4.403 -16.021  0.00  0.00    +0.159 HD
ATOM      9  H   UNL     1       7.219   5.806 -16.750  0.00  0.00    +0.159 HD
ENDROOT
BRANCH   1  10
ATOM     10  C   UNL     1       7.937   3.742 -13.539  0.00  0.00    +0.151 C 
BRANCH  10  11
ATOM     11  C   UNL     1       7.021   2.769 -12.849  0.00  0.00    -0.028 A 
ATOM     12  C   UNL     1       5.703   2.592 -13.295  0.00  0.00    +0.005 A 
ATOM     13  C   UNL     1       7.468   2.015 -11.753  0.00  0.00    +0.005 A 
ATOM     14  C   UNL     1       4.862   1.667 -12.674  0.00  0.00    +0.000 A 
ATOM     15  C   UNL     1       6.624   1.093 -11.134  0.00  0.00    +0.000 A 
ATOM     16  C   UNL     1       5.322   0.917 -11.597  0.00  0.00    +0.000 A 
ENDBRANCH  10  11
ENDBRANCH   1  10
TORSDOF 2
ENDMDL
MODEL 5
REMARK VINA RESULT:    -5.060     19.403     22.427
REMARK INTER + INTRA:          -5.791
REMARK INTER:                  -5.676
REMARK INTRA:                  -0.115
REMARK UNBOUND:                -0.140
REMARK  Name = 1550473
REMARK  2 active torsions:
REMARK  status: ('A' for Active; 'I' for Inactive)
REMARK    1  A    between atoms: N_1  and  C_4
REMARK    2  A    between atoms: C_4  and  C_5
REMARK                            x       y       z     vdW  Elec       q    Type
REMARK                         _______ _______ _______ _____ _____    ______ ____
ROOT
ATOM      1  N   UNL     1       5.934   0.917 -10.683  0.00  0.00    -0.354 N 
ATOM      2  N   UNL     1       4.939   0.524  -8.628  0.00  0.00    -0.372 N 
ATOM      3  N   UNL     1       3.780   0.004 -10.539  0.00  0.00    -0.372 N 
ATOM      4  C   UNL     1       4.889   0.483  -9.965  0.00  0.00    +0.166 C 
ATOM      5  H   UNL     1       6.733   1.297 -10.188  0.00  0.00    +0.163 HD
ATOM      6  H   UNL     1       4.167   0.201  -8.060  0.00  0.00    +0.159 HD
ATOM      7  H   UNL     1       5.757   0.862  -8.136  0.00  0.00    +0.159 HD
ATOM      8  H   UNL     1       3.677  -0.048 -11.544  0.00  0.00    +0.159 HD
ATOM      9  H   UNL     1       2.993  -0.313  -9.988  0.00  0.00    +0.159 HD
ENDROOT
BRANCH   1  10
ATOM     10  C   UNL     1       6.001   0.865 -12.142  0.00  0.00    +0.151 C 
BRANCH  10  11
ATOM     11  C   UNL     1       6.668   2.115 -12.647  0.00  0.00    -0.028 A 
ATOM     12  C   UNL     1       6.102   2.847 -13.701  0.00  0.00    +0.005 A 
ATOM     13  C   UNL     1       7.862   2.576 -12.071  0.00  0.00    +0.005 A 
ATOM     14  C   UNL     1       6.705   4.025 -14.151  0.00  0.00    +0.000 A 
ATOM     15  C   UNL     1       8.461   3.752 -12.524  0.00  0.00    +0.000 A 
ATOM     16  C   UNL     1       7.881   4.477 -13.562  0.00  0.00    +0.000 A 
ENDBRANCH  10  11
ENDBRANCH   1  10
TORSDOF 2
ENDMDL
MODEL 6
REMARK VINA RESULT:    -4.953      8.517      9.606
REMARK INTER + INTRA:          -5.672
REMARK INTER:                  -5.527
REMARK INTRA:                  -0.146
REMARK UNBOUND:                -0.140
REMARK  Name = 1550473
REMARK  2 active torsions:
REMARK  status: ('A' for Active; 'I' for Inactive)
REMARK    1  A    between atoms: N_1  and  C_4
REMARK    2  A    between atoms: C_4  and  C_5
REMARK                            x       y       z     vdW  Elec       q    Type
REMARK                         _______ _______ _______ _____ _____    ______ ____
ROOT
ATOM      1  N   UNL     1     -13.593  -7.215  -6.504  0.00  0.00    -0.354 N 
ATOM      2  N   UNL     1     -12.402  -7.980  -8.337  0.00  0.00    -0.372 N 
ATOM      3  N   UNL     1     -11.334  -7.810  -6.313  0.00  0.00    -0.372 N 
ATOM      4  C   UNL     1     -12.449  -7.663  -7.037  0.00  0.00    +0.166 C 
ATOM      5  H   UNL     1     -14.394  -7.097  -7.113  0.00  0.00    +0.163 HD
ATOM      6  H   UNL     1     -11.553  -8.324  -8.766  0.00  0.00    +0.159 HD
ATOM      7  H   UNL     1     -13.217  -7.905  -8.933  0.00  0.00    +0.159 HD
ATOM      8  H   UNL     1     -11.302  -7.583  -5.328  0.00  0.00    +0.159 HD
ATOM      9  H   UNL     1     -10.472  -8.142  -6.727  0.00  0.00    +0.159 HD
ENDROOT
BRANCH   1  10
ATOM     10  C   UNL     1     -13.764  -6.894  -5.088  0.00  0.00    +0.151 C 
BRANCH  10  11
ATOM     11  C   UNL     1     -14.230  -8.124  -4.358  0.00  0.00    -0.028 A 
ATOM     12  C   UNL     1     -15.548  -8.580  -4.500  0.00  0.00    +0.005 A 
ATOM     13  C   UNL     1     -13.355  -8.841  -3.527  0.00  0.00    +0.005 A 
ATOM     14  C   UNL     1     -15.972  -9.739  -3.846  0.00  0.00    +0.000 A 
ATOM     15  C   UNL     1     -13.782  -9.997  -2.875  0.00  0.00    +0.000 A 
ATOM     16  C   UNL     1     -15.090 -10.447  -3.037  0.00  0.00    +0.000 A 
ENDBRANCH  10  11
ENDBRANCH   1  10
TORSDOF 2
ENDMDL
MODEL 7
REMARK VINA RESULT:    -4.848      8.512      9.674
REMARK INTER + INTRA:          -5.555
REMARK INTER:                  -5.447
REMARK INTRA:                  -0.107
REMARK UNBOUND:                -0.140
REMARK  Name = 1550473
REMARK  2 active torsions:
REMARK  status: ('A' for Active; 'I' for Inactive)
REMARK    1  A    between atoms: N_1  and  C_4
REMARK    2  A    between atoms: C_4  and  C_5
REMARK                            x       y       z     vdW  Elec       q    Type
REMARK                         _______ _______ _______ _____ _____    ______ ____
ROOT
ATOM      1  N   UNL     1     -14.756  -7.364  -4.543  0.00  0.00    -0.354 N 
ATOM      2  N   UNL     1     -14.930  -5.063  -4.739  0.00  0.00    -0.372 N 
ATOM      3  N   UNL     1     -13.003  -6.094  -5.441  0.00  0.00    -0.372 N 
ATOM      4  C   UNL     1     -14.226  -6.189  -4.907  0.00  0.00    +0.166 C 
ATOM      5  H   UNL     1     -15.676  -7.366  -4.117  0.00  0.00    +0.163 HD
ATOM      6  H   UNL     1     -14.557  -4.162  -5.008  0.00  0.00    +0.159 HD
ATOM      7  H   UNL     1     -15.867  -5.072  -4.355  0.00  0.00    +0.159 HD
ATOM      8  H   UNL     1     -12.419  -6.906  -5.589  0.00  0.00    +0.159 HD
ATOM      9  H   UNL     1     -12.608  -5.200  -5.705  0.00  0.00    +0.159 HD
ENDROOT
BRANCH   1  10
ATOM     10  C   UNL     1     -14.095  -8.654  -4.734  0.00  0.00    +0.151 C 
BRANCH  10  11
ATOM     11  C   UNL     1     -14.356  -9.521  -3.534  0.00  0.00    -0.028 A 
ATOM     12  C   UNL     1     -15.658  -9.948  -3.233  0.00  0.00    +0.005 A 
ATOM     13  C   UNL     1     -13.305  -9.926  -2.696  0.00  0.00    +0.005 A 
ATOM     14  C   UNL     1     -15.897 -10.779  -2.136  0.00  0.00    +0.000 A 
ATOM     15  C   UNL     1     -13.548 -10.754  -1.601  0.00  0.00    +0.000 A 
ATOM     16  C   UNL     1     -14.844 -11.183  -1.323  0.00  0.00    +0.000 A 
ENDBRANCH  10  11
ENDBRANCH   1  10
TORSDOF 2
ENDMDL
MODEL 8
REMARK VINA RESULT:    -4.804     21.789     22.560
REMARK INTER + INTRA:          -5.506
REMARK INTER:                  -5.376
REMARK INTRA:                  -0.130
REMARK UNBOUND:                -0.140
REMARK  Name = 1550473
REMARK  2 active torsions:
REMARK  status: ('A' for Active; 'I' for Inactive)
REMARK    1  A    between atoms: N_1  and  C_4
REMARK    2  A    between atoms: C_4  and  C_5
REMARK                            x       y       z     vdW  Elec       q    Type
REMARK                         _______ _______ _______ _____ _____    ______ ____
ROOT
ATOM      1  N   UNL     1      -1.334   8.228   6.576  0.00  0.00    -0.354 N 
ATOM      2  N   UNL     1       0.519   7.580   7.805  0.00  0.00    -0.372 N 
ATOM      3  N   UNL     1       0.775   8.044   5.572  0.00  0.00    -0.372 N 
ATOM      4  C   UNL     1      -0.024   7.955   6.640  0.00  0.00    +0.166 C 
ATOM      5  H   UNL     1      -1.892   8.112   7.415  0.00  0.00    +0.163 HD
ATOM      6  H   UNL     1       1.505   7.371   7.885  0.00  0.00    +0.159 HD
ATOM      7  H   UNL     1      -0.032   7.509   8.651  0.00  0.00    +0.159 HD
ATOM      8  H   UNL     1       0.426   8.317   4.663  0.00  0.00    +0.159 HD
ATOM      9  H   UNL     1       1.762   7.828   5.630  0.00  0.00    +0.159 HD
ENDROOT
BRANCH   1  10
ATOM     10  C   UNL     1      -2.014   8.696   5.369  0.00  0.00    +0.151 C 
BRANCH  10  11
ATOM     11  C   UNL     1      -3.200   9.531   5.766  0.00  0.00    -0.028 A 
ATOM     12  C   UNL     1      -4.183   9.866   4.823  0.00  0.00    +0.005 A 
ATOM     13  C   UNL     1      -3.351   9.984   7.086  0.00  0.00    +0.005 A 
ATOM     14  C   UNL     1      -5.300  10.615   5.198  0.00  0.00    +0.000 A 
ATOM     15  C   UNL     1      -4.468  10.733   7.456  0.00  0.00    +0.000 A 
ATOM     16  C   UNL     1      -5.444  11.046   6.513  0.00  0.00    +0.000 A 
ENDBRANCH  10  11
ENDBRANCH   1  10
TORSDOF 2
ENDMDL
MODEL 9
REMARK VINA RESULT:    -4.769      8.474      9.607
REMARK INTER + INTRA:          -5.467
REMARK INTER:                  -5.321
REMARK INTRA:                  -0.146
REMARK UNBOUND:                -0.140
REMARK  Name = 1550473
REMARK  2 active torsions:
REMARK  status: ('A' for Active; 'I' for Inactive)
REMARK    1  A    between atoms: N_1  and  C_4
REMARK    2  A    between atoms: C_4  and  C_5
REMARK                            x       y       z     vdW  Elec       q    Type
REMARK                         _______ _______ _______ _____ _____    ______ ____
ROOT
ATOM      1  N   UNL     1     -14.847  -8.404  -5.557  0.00  0.00    -0.354 N 
ATOM      2  N   UNL     1     -13.806  -7.769  -7.526  0.00  0.00    -0.372 N 
ATOM      3  N   UNL     1     -14.850  -9.810  -7.432  0.00  0.00    -0.372 N 
ATOM      4  C   UNL     1     -14.509  -8.668  -6.826  0.00  0.00    +0.166 C 
ATOM      5  H   UNL     1     -14.532  -7.533  -5.146  0.00  0.00    +0.163 HD
ATOM      6  H   UNL     1     -13.539  -7.939  -8.487  0.00  0.00    +0.159 HD
ATOM      7  H   UNL     1     -13.532  -6.880  -7.128  0.00  0.00    +0.159 HD
ATOM      8  H   UNL     1     -15.375 -10.532  -6.956  0.00  0.00    +0.159 HD
ATOM      9  H   UNL     1     -14.582 -10.004  -8.388  0.00  0.00    +0.159 HD
ENDROOT
BRANCH   1  10
ATOM     10  C   UNL     1     -15.657  -9.292  -4.725  0.00  0.00    +0.151 C 
BRANCH  10  11
ATOM     11  C   UNL     1     -14.802  -9.843  -3.618  0.00  0.00    -0.028 A 
ATOM     12  C   UNL     1     -13.568  -9.251  -3.309  0.00  0.00    +0.005 A 
ATOM     13  C   UNL     1     -15.222 -10.954  -2.870  0.00  0.00    +0.005 A 
ATOM     14  C   UNL     1     -12.787  -9.744  -2.261  0.00  0.00    +0.000 A 
ATOM     15  C   UNL     1     -14.438 -11.443  -1.825  0.00  0.00    +0.000 A 
ATOM     16  C   UNL     1     -13.222 -10.837  -1.519  0.00  0.00    +0.000 A 
ENDBRANCH  10  11
ENDBRANCH   1  10
TORSDOF 2
ENDMDL
