MODEL 1
REMARK VINA RESULT:    -4.873      0.000      0.000
REMARK INTER + INTRA:          -5.556
REMARK INTER:                  -5.443
REMARK INTRA:                  -0.113
REMARK UNBOUND:                -0.113
REMARK  Name = 1550473
REMARK  2 active torsions:
REMARK  status: ('A' for Active; 'I' for Inactive)
REMARK    1  A    between atoms: N_1  and  C_4
REMARK    2  A    between atoms: C_4  and  C_5
REMARK                            x       y       z     vdW  Elec       q    Type
REMARK                         _______ _______ _______ _____ _____    ______ ____
ROOT
ATOM      1  N   UNL     1       1.248  -3.526  -3.660  0.00  0.00    -0.354 N 
ATOM      2  N   UNL     1       1.960  -1.334  -3.427  0.00  0.00    -0.372 N 
ATOM      3  N   UNL     1       0.072  -2.011  -2.313  0.00  0.00    -0.372 N 
ATOM      4  C   UNL     1       1.086  -2.305  -3.133  0.00  0.00    +0.166 C 
ATOM      5  H   UNL     1       2.020  -3.676  -4.299  0.00  0.00    +0.163 HD
ATOM      6  H   UNL     1       1.866  -0.404  -3.042  0.00  0.00    +0.159 HD
ATOM      7  H   UNL     1       2.757  -1.500  -4.030  0.00  0.00    +0.159 HD
ATOM      8  H   UNL     1      -0.625  -2.698  -2.056  0.00  0.00    +0.159 HD
ATOM      9  H   UNL     1      -0.046  -1.083  -1.926  0.00  0.00    +0.159 HD
ENDROOT
BRANCH   1  10
ATOM     10  C   UNL     1       0.383  -4.666  -3.362  0.00  0.00    +0.151 C 
BRANCH  10  11
ATOM     11  C   UNL     1       1.036  -5.923  -3.866  0.00  0.00    -0.028 A 
ATOM     12  C   UNL     1       2.400  -6.158  -3.637  0.00  0.00    +0.005 A 
ATOM     13  C   UNL     1       0.296  -6.886  -4.569  0.00  0.00    +0.005 A 
ATOM     14  C   UNL     1       3.000  -7.340  -4.079  0.00  0.00    +0.000 A 
ATOM     15  C   UNL     1       0.899  -8.064  -5.009  0.00  0.00    +0.000 A 
ATOM     16  C   UNL     1       2.251  -8.291  -4.762  0.00  0.00    +0.000 A 
ENDBRANCH  10  11
ENDBRANCH   1  10
TORSDOF 2
ENDMDL
MODEL 2
REMARK VINA RESULT:    -4.767      1.715      2.425
REMARK INTER + INTRA:          -5.437
REMARK INTER:                  -5.299
REMARK INTRA:                  -0.139
REMARK UNBOUND:                -0.113
REMARK  Name = 1550473
REMARK  2 active torsions:
REMARK  status: ('A' for Active; 'I' for Inactive)
REMARK    1  A    between atoms: N_1  and  C_4
REMARK    2  A    between atoms: C_4  and  C_5
REMARK                            x       y       z     vdW  Elec       q    Type
REMARK                         _______ _______ _______ _____ _____    ______ ____
ROOT
ATOM      1  N   UNL     1      -0.469  -3.646  -1.282  0.00  0.00    -0.354 N 
ATOM      2  N   UNL     1      -2.197  -2.155  -0.891  0.00  0.00    -0.372 N 
ATOM      3  N   UNL     1      -0.181  -1.347  -1.631  0.00  0.00    -0.372 N 
ATOM      4  C   UNL     1      -0.936  -2.391  -1.271  0.00  0.00    +0.166 C 
ATOM      5  H   UNL     1      -1.082  -4.390  -0.969  0.00  0.00    +0.163 HD
ATOM      6  H   UNL     1      -2.578  -1.218  -0.876  0.00  0.00    +0.159 HD
ATOM      7  H   UNL     1      -2.822  -2.905  -0.622  0.00  0.00    +0.159 HD
ATOM      8  H   UNL     1       0.781  -1.457  -1.922  0.00  0.00    +0.159 HD
ATOM      9  H   UNL     1      -0.541  -0.401  -1.611  0.00  0.00    +0.159 HD
ENDROOT
BRANCH   1  10
ATOM     10  C   UNL     1       0.872  -4.016  -1.730  0.00  0.00    +0.151 C 
BRANCH  10  11
ATOM     11  C   UNL     1       0.762  -5.098  -2.769  0.00  0.00    -0.028 A 
ATOM     12  C   UNL     1       1.650  -6.183  -2.765  0.00  0.00    +0.005 A 
ATOM     13  C   UNL     1      -0.232  -5.046  -3.758  0.00  0.00    +0.005 A 
ATOM     14  C   UNL     1       1.530  -7.203  -3.712  0.00  0.00    +0.000 A 
ATOM     15  C   UNL     1      -0.349  -6.065  -4.703  0.00  0.00    +0.000 A 
ATOM     16  C   UNL     1       0.530  -7.145  -4.678  0.00  0.00    +0.000 A 
ENDBRANCH  10  11
ENDBRANCH   1  10
TORSDOF 2
ENDMDL
MODEL 3
REMARK VINA RESULT:    -4.471      1.656      2.538
REMARK INTER + INTRA:          -5.107
REMARK INTER:                  -4.986
REMARK INTRA:                  -0.121
REMARK UNBOUND:                -0.113
REMARK  Name = 1550473
REMARK  2 active torsions:
REMARK  status: ('A' for Active; 'I' for Inactive)
REMARK    1  A    between atoms: N_1  and  C_4
REMARK    2  A    between atoms: C_4  and  C_5
REMARK                            x       y       z     vdW  Elec       q    Type
REMARK                         _______ _______ _______ _____ _____    ______ ____
ROOT
ATOM      1  N   UNL     1      -0.131  -3.600  -1.389  0.00  0.00    -0.354 N 
ATOM      2  N   UNL     1      -0.213  -2.378   0.577  0.00  0.00    -0.372 N 
ATOM      3  N   UNL     1      -0.284  -1.262  -1.426  0.00  0.00    -0.372 N 
ATOM      4  C   UNL     1      -0.209  -2.419  -0.761  0.00  0.00    +0.166 C 
ATOM      5  H   UNL     1      -0.047  -4.439  -0.827  0.00  0.00    +0.163 HD
ATOM      6  H   UNL     1      -0.274  -1.502   1.079  0.00  0.00    +0.159 HD
ATOM      7  H   UNL     1      -0.175  -3.222   1.136  0.00  0.00    +0.159 HD
ATOM      8  H   UNL     1      -0.279  -1.223  -2.436  0.00  0.00    +0.159 HD
ATOM      9  H   UNL     1      -0.333  -0.374  -0.942  0.00  0.00    +0.159 HD
ENDROOT
BRANCH   1  10
ATOM     10  C   UNL     1      -0.173  -3.757  -2.842  0.00  0.00    +0.151 C 
BRANCH  10  11
ATOM     11  C   UNL     1       0.391  -5.103  -3.206  0.00  0.00    -0.028 A 
ATOM     12  C   UNL     1      -0.109  -5.809  -4.310  0.00  0.00    +0.005 A 
ATOM     13  C   UNL     1       1.430  -5.674  -2.455  0.00  0.00    +0.005 A 
ATOM     14  C   UNL     1       0.436  -7.045  -4.667  0.00  0.00    +0.000 A 
ATOM     15  C   UNL     1       1.970  -6.909  -2.814  0.00  0.00    +0.000 A 
ATOM     16  C   UNL     1       1.474  -7.593  -3.922  0.00  0.00    +0.000 A 
ENDBRANCH  10  11
ENDBRANCH   1  10
TORSDOF 2
ENDMDL
MODEL 4
REMARK VINA RESULT:    -4.388     20.714     21.652
REMARK INTER + INTRA:          -5.014
REMARK INTER:                  -4.876
REMARK INTRA:                  -0.138
REMARK UNBOUND:                -0.113
REMARK  Name = 1550473
REMARK  2 active torsions:
REMARK  status: ('A' for Active; 'I' for Inactive)
REMARK    1  A    between atoms: N_1  and  C_4
REMARK    2  A    between atoms: C_4  and  C_5
REMARK                            x       y       z     vdW  Elec       q    Type
REMARK                         _______ _______ _______ _____ _____    ______ ____
ROOT
ATOM      1  N   UNL     1       6.949   2.405  14.376  0.00  0.00    -0.354 N 
ATOM      2  N   UNL     1       4.718   2.992  14.168  0.00  0.00    -0.372 N 
ATOM      3  N   UNL     1       5.539   2.473  16.247  0.00  0.00    -0.372 N 
ATOM      4  C   UNL     1       5.750   2.619  14.934  0.00  0.00    +0.166 C 
ATOM      5  H   UNL     1       7.036   2.503  13.371  0.00  0.00    +0.163 HD
ATOM      6  H   UNL     1       3.803   3.164  14.562  0.00  0.00    +0.159 HD
ATOM      7  H   UNL     1       4.819   3.135  13.171  0.00  0.00    +0.159 HD
ATOM      8  H   UNL     1       6.275   2.187  16.879  0.00  0.00    +0.159 HD
ATOM      9  H   UNL     1       4.627   2.629  16.658  0.00  0.00    +0.159 HD
ENDROOT
BRANCH   1  10
ATOM     10  C   UNL     1       8.150   2.047  15.129  0.00  0.00    +0.151 C 
BRANCH  10  11
ATOM     11  C   UNL     1       9.305   2.870  14.629  0.00  0.00    -0.028 A 
ATOM     12  C   UNL     1      10.535   2.853  15.304  0.00  0.00    +0.005 A 
ATOM     13  C   UNL     1       9.179   3.663  13.479  0.00  0.00    +0.005 A 
ATOM     14  C   UNL     1      11.618   3.593  14.824  0.00  0.00    +0.000 A 
ATOM     15  C   UNL     1      10.262   4.402  13.003  0.00  0.00    +0.000 A 
ATOM     16  C   UNL     1      11.482   4.364  13.674  0.00  0.00    +0.000 A 
ENDBRANCH  10  11
ENDBRANCH   1  10
TORSDOF 2
ENDMDL
MODEL 5
REMARK VINA RESULT:    -4.378     25.089     25.748
REMARK INTER + INTRA:          -5.002
REMARK INTER:                  -4.881
REMARK INTRA:                  -0.121
REMARK UNBOUND:                -0.113
REMARK  Name = 1550473
REMARK  2 active torsions:
REMARK  status: ('A' for Active; 'I' for Inactive)
REMARK    1  A    between atoms: N_1  and  C_4
REMARK    2  A    between atoms: C_4  and  C_5
REMARK                            x       y       z     vdW  Elec       q    Type
REMARK                         _______ _______ _______ _____ _____    ______ ____
ROOT
ATOM      1  N   UNL     1     -11.947  -5.344 -25.951  0.00  0.00    -0.354 N 
ATOM      2  N   UNL     1     -13.857  -4.211 -25.292  0.00  0.00    -0.372 N 
ATOM      3  N   UNL     1     -13.422  -6.274 -24.385  0.00  0.00    -0.372 N 
ATOM      4  C   UNL     1     -13.063  -5.286 -25.212  0.00  0.00    +0.166 C 
ATOM      5  H   UNL     1     -11.747  -4.576 -26.581  0.00  0.00    +0.163 HD
ATOM      6  H   UNL     1     -14.704  -4.138 -24.744  0.00  0.00    +0.159 HD
ATOM      7  H   UNL     1     -13.631  -3.425 -25.889  0.00  0.00    +0.159 HD
ATOM      8  H   UNL     1     -12.870  -7.114 -24.283  0.00  0.00    +0.159 HD
ATOM      9  H   UNL     1     -14.272  -6.224 -23.837  0.00  0.00    +0.159 HD
ENDROOT
BRANCH   1  10
ATOM     10  C   UNL     1     -10.988  -6.445 -25.897  0.00  0.00    +0.151 C 
BRANCH  10  11
ATOM     11  C   UNL     1      -9.757  -6.062 -26.672  0.00  0.00    -0.028 A 
ATOM     12  C   UNL     1      -8.573  -6.803 -26.539  0.00  0.00    +0.005 A 
ATOM     13  C   UNL     1      -9.770  -4.963 -27.544  0.00  0.00    +0.005 A 
ATOM     14  C   UNL     1      -7.438  -6.465 -27.281  0.00  0.00    +0.000 A 
ATOM     15  C   UNL     1      -8.634  -4.629 -28.283  0.00  0.00    +0.000 A 
ATOM     16  C   UNL     1      -7.470  -5.382 -28.152  0.00  0.00    +0.000 A 
ENDBRANCH  10  11
ENDBRANCH   1  10
TORSDOF 2
ENDMDL
MODEL 6
REMARK VINA RESULT:    -4.322      3.844      4.951
REMARK INTER + INTRA:          -4.940
REMARK INTER:                  -4.781
REMARK INTRA:                  -0.159
REMARK UNBOUND:                -0.113
REMARK  Name = 1550473
REMARK  2 active torsions:
REMARK  status: ('A' for Active; 'I' for Inactive)
REMARK    1  A    between atoms: N_1  and  C_4
REMARK    2  A    between atoms: C_4  and  C_5
REMARK                            x       y       z     vdW  Elec       q    Type
REMARK                         _______ _______ _______ _____ _____    ______ ____
ROOT
ATOM      1  N   UNL     1      -1.104  -3.117  -1.407  0.00  0.00    -0.354 N 
ATOM      2  N   UNL     1      -2.520  -1.969   0.021  0.00  0.00    -0.372 N 
ATOM      3  N   UNL     1      -0.728  -3.096   0.906  0.00  0.00    -0.372 N 
ATOM      4  C   UNL     1      -1.439  -2.736  -0.168  0.00  0.00    +0.166 C 
ATOM      5  H   UNL     1      -1.701  -2.836  -2.176  0.00  0.00    +0.163 HD
ATOM      6  H   UNL     1      -2.796  -1.663   0.944  0.00  0.00    +0.159 HD
ATOM      7  H   UNL     1      -3.090  -1.651  -0.754  0.00  0.00    +0.159 HD
ATOM      8  H   UNL     1       0.095  -3.679   0.832  0.00  0.00    +0.159 HD
ATOM      9  H   UNL     1      -0.995  -2.809   1.839  0.00  0.00    +0.159 HD
ENDROOT
BRANCH   1  10
ATOM     10  C   UNL     1       0.084  -3.908  -1.726  0.00  0.00    +0.151 C 
BRANCH  10  11
ATOM     11  C   UNL     1       1.237  -2.978  -1.987  0.00  0.00    -0.028 A 
ATOM     12  C   UNL     1       2.345  -2.959  -1.127  0.00  0.00    +0.005 A 
ATOM     13  C   UNL     1       1.231  -2.119  -3.096  0.00  0.00    +0.005 A 
ATOM     14  C   UNL     1       3.430  -2.118  -1.385  0.00  0.00    +0.000 A 
ATOM     15  C   UNL     1       2.316  -1.280  -3.351  0.00  0.00    +0.000 A 
ATOM     16  C   UNL     1       3.416  -1.281  -2.497  0.00  0.00    +0.000 A 
ENDBRANCH  10  11
ENDBRANCH   1  10
TORSDOF 2
ENDMDL
MODEL 7
REMARK VINA RESULT:    -4.293      4.830      6.559
REMARK INTER + INTRA:          -4.908
REMARK INTER:                  -4.786
REMARK INTRA:                  -0.122
REMARK UNBOUND:                -0.113
REMARK  Name = 1550473
REMARK  2 active torsions:
REMARK  status: ('A' for Active; 'I' for Inactive)
REMARK    1  A    between atoms: N_1  and  C_4
REMARK    2  A    between atoms: C_4  and  C_5
REMARK                            x       y       z     vdW  Elec       q    Type
REMARK                         _______ _______ _______ _____ _____    ______ ____
ROOT
ATOM      1  N   UNL     1       3.909 -10.396  -4.654  0.00  0.00    -0.354 N 
ATOM      2  N   UNL     1       4.462 -12.570  -5.228  0.00  0.00    -0.372 N 
ATOM      3  N   UNL     1       5.910 -11.367  -3.916  0.00  0.00    -0.372 N 
ATOM      4  C   UNL     1       4.759 -11.429  -4.594  0.00  0.00    +0.166 C 
ATOM      5  H   UNL     1       3.067 -10.496  -5.210  0.00  0.00    +0.163 HD
ATOM      6  H   UNL     1       5.082 -13.368  -5.198  0.00  0.00    +0.159 HD
ATOM      7  H   UNL     1       3.599 -12.683  -5.745  0.00  0.00    +0.159 HD
ATOM      8  H   UNL     1       6.195 -10.532  -3.421  0.00  0.00    +0.159 HD
ATOM      9  H   UNL     1       6.549 -12.151  -3.884  0.00  0.00    +0.159 HD
ENDROOT
BRANCH   1  10
ATOM     10  C   UNL     1       4.112  -9.128  -3.956  0.00  0.00    +0.151 C 
BRANCH  10  11
ATOM     11  C   UNL     1       2.864  -8.297  -4.072  0.00  0.00    -0.028 A 
ATOM     12  C   UNL     1       2.717  -7.125  -3.316  0.00  0.00    +0.005 A 
ATOM     13  C   UNL     1       1.828  -8.674  -4.940  0.00  0.00    +0.005 A 
ATOM     14  C   UNL     1       1.570  -6.337  -3.446  0.00  0.00    +0.000 A 
ATOM     15  C   UNL     1       0.685  -7.885  -5.066  0.00  0.00    +0.000 A 
ATOM     16  C   UNL     1       0.558  -6.715  -4.321  0.00  0.00    +0.000 A 
ENDBRANCH  10  11
ENDBRANCH   1  10
TORSDOF 2
ENDMDL
MODEL 8
REMARK VINA RESULT:    -4.173      3.405      4.891
REMARK INTER + INTRA:          -4.774
REMARK INTER:                  -4.651
REMARK INTRA:                  -0.123
REMARK UNBOUND:                -0.113
REMARK  Name = 1550473
REMARK  2 active torsions:
REMARK  status: ('A' for Active; 'I' for Inactive)
REMARK    1  A    between atoms: N_1  and  C_4
REMARK    2  A    between atoms: C_4  and  C_5
REMARK                            x       y       z     vdW  Elec       q    Type
REMARK                         _______ _______ _______ _____ _____    ______ ____
ROOT
ATOM      1  N   UNL     1       3.120  -3.081  -4.160  0.00  0.00    -0.354 N 
ATOM      2  N   UNL     1       4.566  -4.145  -5.623  0.00  0.00    -0.372 N 
ATOM      3  N   UNL     1       5.088  -2.035  -4.886  0.00  0.00    -0.372 N 
ATOM      4  C   UNL     1       4.250  -3.077  -4.880  0.00  0.00    +0.166 C 
ATOM      5  H   UNL     1       2.512  -3.889  -4.223  0.00  0.00    +0.163 HD
ATOM      6  H   UNL     1       5.414  -4.172  -6.174  0.00  0.00    +0.159 HD
ATOM      7  H   UNL     1       3.980  -4.970  -5.648  0.00  0.00    +0.159 HD
ATOM      8  H   UNL     1       4.904  -1.197  -4.351  0.00  0.00    +0.159 HD
ATOM      9  H   UNL     1       5.935  -2.039  -5.440  0.00  0.00    +0.159 HD
ENDROOT
BRANCH   1  10
ATOM     10  C   UNL     1       2.710  -1.991  -3.276  0.00  0.00    +0.151 C 
BRANCH  10  11
ATOM     11  C   UNL     1       1.464  -2.398  -2.539  0.00  0.00    -0.028 A 
ATOM     12  C   UNL     1       0.925  -1.572  -1.542  0.00  0.00    +0.005 A 
ATOM     13  C   UNL     1       0.816  -3.607  -2.837  0.00  0.00    +0.005 A 
ATOM     14  C   UNL     1      -0.249  -1.936  -0.878  0.00  0.00    +0.000 A 
ATOM     15  C   UNL     1      -0.356  -3.967  -2.171  0.00  0.00    +0.000 A 
ATOM     16  C   UNL     1      -0.889  -3.130  -1.193  0.00  0.00    +0.000 A 
ENDBRANCH  10  11
ENDBRANCH   1  10
TORSDOF 2
ENDMDL
MODEL 9
REMARK VINA RESULT:    -4.101     19.329     20.897
REMARK INTER + INTRA:          -4.694
REMARK INTER:                  -4.559
REMARK INTRA:                  -0.135
REMARK UNBOUND:                -0.113
REMARK  Name = 1550473
REMARK  2 active torsions:
REMARK  status: ('A' for Active; 'I' for Inactive)
REMARK    1  A    between atoms: N_1  and  C_4
REMARK    2  A    between atoms: C_4  and  C_5
REMARK                            x       y       z     vdW  Elec       q    Type
REMARK                         _______ _______ _______ _____ _____    ______ ____
ROOT
ATOM      1  N   UNL     1       8.837   2.780  12.867  0.00  0.00    -0.354 N 
ATOM      2  N   UNL     1      10.222   4.498  12.163  0.00  0.00    -0.372 N 
ATOM      3  N   UNL     1       8.084   4.387  11.337  0.00  0.00    -0.372 N 
ATOM      4  C   UNL     1       9.036   3.877  12.125  0.00  0.00    +0.166 C 
ATOM      5  H   UNL     1       9.609   2.426  13.421  0.00  0.00    +0.163 HD
ATOM      6  H   UNL     1      10.400   5.330  11.617  0.00  0.00    +0.159 HD
ATOM      7  H   UNL     1      10.977   4.169  12.752  0.00  0.00    +0.159 HD
ATOM      8  H   UNL     1       7.169   3.962  11.259  0.00  0.00    +0.159 HD
ATOM      9  H   UNL     1       8.247   5.212  10.774  0.00  0.00    +0.159 HD
ENDROOT
BRANCH   1  10
ATOM     10  C   UNL     1       7.567   2.060  12.939  0.00  0.00    +0.151 C 
BRANCH  10  11
ATOM     11  C   UNL     1       7.047   2.121  14.349  0.00  0.00    -0.028 A 
ATOM     12  C   UNL     1       5.814   1.539  14.678  0.00  0.00    +0.005 A 
ATOM     13  C   UNL     1       7.786   2.753  15.361  0.00  0.00    +0.005 A 
ATOM     14  C   UNL     1       5.345   1.568  15.994  0.00  0.00    +0.000 A 
ATOM     15  C   UNL     1       7.314   2.781  16.673  0.00  0.00    +0.000 A 
ATOM     16  C   UNL     1       6.095   2.186  16.989  0.00  0.00    +0.000 A 
ENDBRANCH  10  11
ENDBRANCH   1  10
TORSDOF 2
ENDMDL
