MODEL 1
REMARK VINA RESULT:    -5.829      0.000      0.000
REMARK INTER + INTRA:          -6.682
REMARK INTER:                  -6.511
REMARK INTRA:                  -0.171
REMARK UNBOUND:                -0.171
REMARK  Name = 1550473
REMARK  2 active torsions:
REMARK  status: ('A' for Active; 'I' for Inactive)
REMARK    1  A    between atoms: N_1  and  C_4
REMARK    2  A    between atoms: C_4  and  C_5
REMARK                            x       y       z     vdW  Elec       q    Type
REMARK                         _______ _______ _______ _____ _____    ______ ____
ROOT
ATOM      1  N   UNL     1      -7.626   5.850   7.305  0.00  0.00    -0.354 N 
ATOM      2  N   UNL     1      -7.840   4.035   5.881  0.00  0.00    -0.372 N 
ATOM      3  N   UNL     1      -9.667   5.371   6.257  0.00  0.00    -0.372 N 
ATOM      4  C   UNL     1      -8.379   5.098   6.490  0.00  0.00    +0.166 C 
ATOM      5  H   UNL     1      -6.665   5.572   7.463  0.00  0.00    +0.163 HD
ATOM      6  H   UNL     1      -8.383   3.452   5.258  0.00  0.00    +0.159 HD
ATOM      7  H   UNL     1      -6.866   3.787   6.005  0.00  0.00    +0.159 HD
ATOM      8  H   UNL     1     -10.136   6.155   6.691  0.00  0.00    +0.159 HD
ATOM      9  H   UNL     1     -10.230   4.792   5.647  0.00  0.00    +0.159 HD
ENDROOT
BRANCH   1  10
ATOM     10  C   UNL     1      -8.103   7.059   7.974  0.00  0.00    +0.151 C 
BRANCH  10  11
ATOM     11  C   UNL     1      -7.475   8.260   7.323  0.00  0.00    -0.028 A 
ATOM     12  C   UNL     1      -6.336   8.859   7.882  0.00  0.00    +0.005 A 
ATOM     13  C   UNL     1      -8.012   8.801   6.145  0.00  0.00    +0.005 A 
ATOM     14  C   UNL     1      -5.735   9.957   7.261  0.00  0.00    +0.000 A 
ATOM     15  C   UNL     1      -7.409   9.898   5.529  0.00  0.00    +0.000 A 
ATOM     16  C   UNL     1      -6.270  10.474   6.086  0.00  0.00    +0.000 A 
ENDBRANCH  10  11
ENDBRANCH   1  10
TORSDOF 2
ENDMDL
MODEL 2
REMARK VINA RESULT:    -5.458      7.500      9.279
REMARK INTER + INTRA:          -6.267
REMARK INTER:                  -6.143
REMARK INTRA:                  -0.124
REMARK UNBOUND:                -0.171
REMARK  Name = 1550473
REMARK  2 active torsions:
REMARK  status: ('A' for Active; 'I' for Inactive)
REMARK    1  A    between atoms: N_1  and  C_4
REMARK    2  A    between atoms: C_4  and  C_5
REMARK                            x       y       z     vdW  Elec       q    Type
REMARK                         _______ _______ _______ _____ _____    ______ ____
ROOT
ATOM      1  N   UNL     1      -7.046  -0.461   2.360  0.00  0.00    -0.354 N 
ATOM      2  N   UNL     1      -5.032  -0.246   1.237  0.00  0.00    -0.372 N 
ATOM      3  N   UNL     1      -6.007  -2.318   1.379  0.00  0.00    -0.372 N 
ATOM      4  C   UNL     1      -6.041  -1.013   1.666  0.00  0.00    +0.166 C 
ATOM      5  H   UNL     1      -6.998   0.529   2.571  0.00  0.00    +0.163 HD
ATOM      6  H   UNL     1      -4.262  -0.633   0.708  0.00  0.00    +0.159 HD
ATOM      7  H   UNL     1      -5.010   0.752   1.409  0.00  0.00    +0.159 HD
ATOM      8  H   UNL     1      -6.735  -2.952   1.679  0.00  0.00    +0.159 HD
ATOM      9  H   UNL     1      -5.239  -2.727   0.861  0.00  0.00    +0.159 HD
ENDROOT
BRANCH   1  10
ATOM     10  C   UNL     1      -8.219  -1.198   2.827  0.00  0.00    +0.151 C 
BRANCH  10  11
ATOM     11  C   UNL     1      -8.988  -0.337   3.790  0.00  0.00    -0.028 A 
ATOM     12  C   UNL     1     -10.174  -0.807   4.374  0.00  0.00    +0.005 A 
ATOM     13  C   UNL     1      -8.534   0.947   4.128  0.00  0.00    +0.005 A 
ATOM     14  C   UNL     1     -10.873  -0.019   5.292  0.00  0.00    +0.000 A 
ATOM     15  C   UNL     1      -9.235   1.730   5.045  0.00  0.00    +0.000 A 
ATOM     16  C   UNL     1     -10.403   1.246   5.628  0.00  0.00    +0.000 A 
ENDBRANCH  10  11
ENDBRANCH   1  10
TORSDOF 2
ENDMDL
MODEL 3
REMARK VINA RESULT:    -5.120      3.413      6.739
REMARK INTER + INTRA:          -5.889
REMARK INTER:                  -5.766
REMARK INTRA:                  -0.123
REMARK UNBOUND:                -0.171
REMARK  Name = 1550473
REMARK  2 active torsions:
REMARK  status: ('A' for Active; 'I' for Inactive)
REMARK    1  A    between atoms: N_1  and  C_4
REMARK    2  A    between atoms: C_4  and  C_5
REMARK                            x       y       z     vdW  Elec       q    Type
REMARK                         _______ _______ _______ _____ _____    ______ ____
ROOT
ATOM      1  N   UNL     1      -8.028   4.390   5.956  0.00  0.00    -0.354 N 
ATOM      2  N   UNL     1      -7.724   5.504   7.963  0.00  0.00    -0.372 N 
ATOM      3  N   UNL     1      -8.852   6.561   6.268  0.00  0.00    -0.372 N 
ATOM      4  C   UNL     1      -8.205   5.480   6.714  0.00  0.00    +0.166 C 
ATOM      5  H   UNL     1      -7.502   3.614   6.343  0.00  0.00    +0.163 HD
ATOM      6  H   UNL     1      -7.845   6.312   8.560  0.00  0.00    +0.159 HD
ATOM      7  H   UNL     1      -7.239   4.711   8.363  0.00  0.00    +0.159 HD
ATOM      8  H   UNL     1      -9.234   6.609   5.332  0.00  0.00    +0.159 HD
ATOM      9  H   UNL     1      -8.973   7.383   6.846  0.00  0.00    +0.159 HD
ENDROOT
BRANCH   1  10
ATOM     10  C   UNL     1      -8.559   4.241   4.602  0.00  0.00    +0.151 C 
BRANCH  10  11
ATOM     11  C   UNL     1      -9.335   2.956   4.517  0.00  0.00    -0.028 A 
ATOM     12  C   UNL     1      -8.670   1.721   4.505  0.00  0.00    +0.005 A 
ATOM     13  C   UNL     1     -10.737   2.966   4.455  0.00  0.00    +0.005 A 
ATOM     14  C   UNL     1      -9.392   0.527   4.456  0.00  0.00    +0.000 A 
ATOM     15  C   UNL     1     -11.455   1.771   4.406  0.00  0.00    +0.000 A 
ATOM     16  C   UNL     1     -10.782   0.552   4.409  0.00  0.00    +0.000 A 
ENDBRANCH  10  11
ENDBRANCH   1  10
TORSDOF 2
ENDMDL
MODEL 4
REMARK VINA RESULT:    -5.001      6.471      7.989
REMARK INTER + INTRA:          -5.756
REMARK INTER:                  -5.633
REMARK INTRA:                  -0.123
REMARK UNBOUND:                -0.171
REMARK  Name = 1550473
REMARK  2 active torsions:
REMARK  status: ('A' for Active; 'I' for Inactive)
REMARK    1  A    between atoms: N_1  and  C_4
REMARK    2  A    between atoms: C_4  and  C_5
REMARK                            x       y       z     vdW  Elec       q    Type
REMARK                         _______ _______ _______ _____ _____    ______ ____
ROOT
ATOM      1  N   UNL     1      -9.518   2.130   4.837  0.00  0.00    -0.354 N 
ATOM      2  N   UNL     1      -7.310   2.736   5.188  0.00  0.00    -0.372 N 
ATOM      3  N   UNL     1      -7.870   0.512   5.234  0.00  0.00    -0.372 N 
ATOM      4  C   UNL     1      -8.247   1.786   5.085  0.00  0.00    +0.166 C 
ATOM      5  H   UNL     1      -9.744   3.115   4.764  0.00  0.00    +0.163 HD
ATOM      6  H   UNL     1      -6.343   2.507   5.371  0.00  0.00    +0.159 HD
ATOM      7  H   UNL     1      -7.531   3.717   5.069  0.00  0.00    +0.159 HD
ATOM      8  H   UNL     1      -8.530  -0.253   5.174  0.00  0.00    +0.159 HD
ATOM      9  H   UNL     1      -6.909   0.262   5.429  0.00  0.00    +0.159 HD
ENDROOT
BRANCH   1  10
ATOM     10  C   UNL     1     -10.604   1.169   4.653  0.00  0.00    +0.151 C 
BRANCH  10  11
ATOM     11  C   UNL     1     -11.811   1.889   4.116  0.00  0.00    -0.028 A 
ATOM     12  C   UNL     1     -12.943   1.171   3.703  0.00  0.00    +0.005 A 
ATOM     13  C   UNL     1     -11.830   3.289   4.023  0.00  0.00    +0.005 A 
ATOM     14  C   UNL     1     -14.075   1.841   3.233  0.00  0.00    +0.000 A 
ATOM     15  C   UNL     1     -12.962   3.954   3.551  0.00  0.00    +0.000 A 
ATOM     16  C   UNL     1     -14.085   3.229   3.159  0.00  0.00    +0.000 A 
ENDBRANCH  10  11
ENDBRANCH   1  10
TORSDOF 2
ENDMDL
MODEL 5
REMARK VINA RESULT:    -4.811      1.938      2.319
REMARK INTER + INTRA:          -5.545
REMARK INTER:                  -5.366
REMARK INTRA:                  -0.179
REMARK UNBOUND:                -0.171
REMARK  Name = 1550473
REMARK  2 active torsions:
REMARK  status: ('A' for Active; 'I' for Inactive)
REMARK    1  A    between atoms: N_1  and  C_4
REMARK    2  A    between atoms: C_4  and  C_5
REMARK                            x       y       z     vdW  Elec       q    Type
REMARK                         _______ _______ _______ _____ _____    ______ ____
ROOT
ATOM      1  N   UNL     1     -10.175   7.176   6.526  0.00  0.00    -0.354 N 
ATOM      2  N   UNL     1     -10.801   5.791   4.779  0.00  0.00    -0.372 N 
ATOM      3  N   UNL     1     -11.296   8.027   4.653  0.00  0.00    -0.372 N 
ATOM      4  C   UNL     1     -10.754   7.010   5.330  0.00  0.00    +0.166 C 
ATOM      5  H   UNL     1      -9.810   6.359   7.002  0.00  0.00    +0.163 HD
ATOM      6  H   UNL     1     -11.228   5.635   3.876  0.00  0.00    +0.159 HD
ATOM      7  H   UNL     1     -10.394   4.984   5.236  0.00  0.00    +0.159 HD
ATOM      8  H   UNL     1     -11.299   8.971   5.016  0.00  0.00    +0.159 HD
ATOM      9  H   UNL     1     -11.739   7.889   3.753  0.00  0.00    +0.159 HD
ENDROOT
BRANCH   1  10
ATOM     10  C   UNL     1     -10.025   8.471   7.189  0.00  0.00    +0.151 C 
BRANCH  10  11
ATOM     11  C   UNL     1      -8.598   8.926   7.059  0.00  0.00    -0.028 A 
ATOM     12  C   UNL     1      -7.631   8.512   7.988  0.00  0.00    +0.005 A 
ATOM     13  C   UNL     1      -8.204   9.767   6.007  0.00  0.00    +0.005 A 
ATOM     14  C   UNL     1      -6.299   8.911   7.851  0.00  0.00    +0.000 A 
ATOM     15  C   UNL     1      -6.873  10.163   5.874  0.00  0.00    +0.000 A 
ATOM     16  C   UNL     1      -5.921   9.733   6.795  0.00  0.00    +0.000 A 
ENDBRANCH  10  11
ENDBRANCH   1  10
TORSDOF 2
ENDMDL
MODEL 6
REMARK VINA RESULT:    -4.750     19.566     21.475
REMARK INTER + INTRA:          -5.476
REMARK INTER:                  -5.302
REMARK INTRA:                  -0.173
REMARK UNBOUND:                -0.171
REMARK  Name = 1550473
REMARK  2 active torsions:
REMARK  status: ('A' for Active; 'I' for Inactive)
REMARK    1  A    between atoms: N_1  and  C_4
REMARK    2  A    between atoms: C_4  and  C_5
REMARK                            x       y       z     vdW  Elec       q    Type
REMARK                         _______ _______ _______ _____ _____    ______ ____
ROOT
ATOM      1  N   UNL     1       1.590 -10.573   9.996  0.00  0.00    -0.354 N 
ATOM      2  N   UNL     1       1.578  -9.494   7.947  0.00  0.00    -0.372 N 
ATOM      3  N   UNL     1       1.197  -8.268   9.848  0.00  0.00    -0.372 N 
ATOM      4  C   UNL     1       1.454  -9.450   9.279  0.00  0.00    +0.166 C 
ATOM      5  H   UNL     1       1.755 -11.443   9.502  0.00  0.00    +0.163 HD
ATOM      6  H   UNL     1       1.484  -8.662   7.380  0.00  0.00    +0.159 HD
ATOM      7  H   UNL     1       1.789 -10.356   7.459  0.00  0.00    +0.159 HD
ATOM      8  H   UNL     1       1.086  -8.168  10.848  0.00  0.00    +0.159 HD
ATOM      9  H   UNL     1       1.088  -7.426   9.297  0.00  0.00    +0.159 HD
ENDROOT
BRANCH   1  10
ATOM     10  C   UNL     1       1.527 -10.624  11.455  0.00  0.00    +0.151 C 
BRANCH  10  11
ATOM     11  C   UNL     1       2.926 -10.666  12.006  0.00  0.00    -0.028 A 
ATOM     12  C   UNL     1       3.876 -11.547  11.470  0.00  0.00    +0.005 A 
ATOM     13  C   UNL     1       3.309  -9.822  13.061  0.00  0.00    +0.005 A 
ATOM     14  C   UNL     1       5.184 -11.565  11.962  0.00  0.00    +0.000 A 
ATOM     15  C   UNL     1       4.615  -9.844  13.549  0.00  0.00    +0.000 A 
ATOM     16  C   UNL     1       5.553 -10.713  12.998  0.00  0.00    +0.000 A 
ENDBRANCH  10  11
ENDBRANCH   1  10
TORSDOF 2
ENDMDL
MODEL 7
REMARK VINA RESULT:    -4.730      6.873      9.900
REMARK INTER + INTRA:          -5.454
REMARK INTER:                  -5.311
REMARK INTRA:                  -0.143
REMARK UNBOUND:                -0.171
REMARK  Name = 1550473
REMARK  2 active torsions:
REMARK  status: ('A' for Active; 'I' for Inactive)
REMARK    1  A    between atoms: N_1  and  C_4
REMARK    2  A    between atoms: C_4  and  C_5
REMARK                            x       y       z     vdW  Elec       q    Type
REMARK                         _______ _______ _______ _____ _____    ______ ____
ROOT
ATOM      1  N   UNL     1      -7.827   0.344   4.469  0.00  0.00    -0.354 N 
ATOM      2  N   UNL     1      -7.416   2.542   5.074  0.00  0.00    -0.372 N 
ATOM      3  N   UNL     1      -9.588   1.855   4.800  0.00  0.00    -0.372 N 
ATOM      4  C   UNL     1      -8.282   1.566   4.777  0.00  0.00    +0.166 C 
ATOM      5  H   UNL     1      -6.824   0.197   4.439  0.00  0.00    +0.163 HD
ATOM      6  H   UNL     1      -7.730   3.472   5.314  0.00  0.00    +0.159 HD
ATOM      7  H   UNL     1      -6.416   2.380   5.089  0.00  0.00    +0.159 HD
ATOM      8  H   UNL     1     -10.293   1.164   4.579  0.00  0.00    +0.159 HD
ATOM      9  H   UNL     1      -9.921   2.783   5.026  0.00  0.00    +0.159 HD
ENDROOT
BRANCH   1  10
ATOM     10  C   UNL     1      -8.688  -0.801   4.182  0.00  0.00    +0.151 C 
BRANCH  10  11
ATOM     11  C   UNL     1      -8.487  -1.222   2.752  0.00  0.00    -0.028 A 
ATOM     12  C   UNL     1      -9.334  -2.172   2.163  0.00  0.00    +0.005 A 
ATOM     13  C   UNL     1      -7.454  -0.669   1.979  0.00  0.00    +0.005 A 
ATOM     14  C   UNL     1      -9.165  -2.541   0.826  0.00  0.00    +0.000 A 
ATOM     15  C   UNL     1      -7.289  -1.041   0.645  0.00  0.00    +0.000 A 
ATOM     16  C   UNL     1      -8.146  -1.974   0.068  0.00  0.00    +0.000 A 
ENDBRANCH  10  11
ENDBRANCH   1  10
TORSDOF 2
ENDMDL
MODEL 8
REMARK VINA RESULT:    -4.614     24.700     25.989
REMARK INTER + INTRA:          -5.324
REMARK INTER:                  -5.212
REMARK INTRA:                  -0.112
REMARK UNBOUND:                -0.171
REMARK  Name = 1550473
REMARK  2 active torsions:
REMARK  status: ('A' for Active; 'I' for Inactive)
REMARK    1  A    between atoms: N_1  and  C_4
REMARK    2  A    between atoms: C_4  and  C_5
REMARK                            x       y       z     vdW  Elec       q    Type
REMARK                         _______ _______ _______ _____ _____    ______ ____
ROOT
ATOM      1  N   UNL     1       9.892   2.939  23.711  0.00  0.00    -0.354 N 
ATOM      2  N   UNL     1       9.971   2.738  21.405  0.00  0.00    -0.372 N 
ATOM      3  N   UNL     1      11.366   4.240  22.435  0.00  0.00    -0.372 N 
ATOM      4  C   UNL     1      10.411   3.309  22.532  0.00  0.00    +0.166 C 
ATOM      5  H   UNL     1       9.149   2.250  23.714  0.00  0.00    +0.163 HD
ATOM      6  H   UNL     1      10.346   2.995  20.501  0.00  0.00    +0.159 HD
ATOM      7  H   UNL     1       9.260   2.016  21.415  0.00  0.00    +0.159 HD
ATOM      8  H   UNL     1      11.737   4.713  23.249  0.00  0.00    +0.159 HD
ATOM      9  H   UNL     1      11.746   4.518  21.539  0.00  0.00    +0.159 HD
ENDROOT
BRANCH   1  10
ATOM     10  C   UNL     1      10.339   3.460  25.001  0.00  0.00    +0.151 C 
BRANCH  10  11
ATOM     11  C   UNL     1       9.571   2.778  26.099  0.00  0.00    -0.028 A 
ATOM     12  C   UNL     1      10.193   2.472  27.319  0.00  0.00    +0.005 A 
ATOM     13  C   UNL     1       8.220   2.439  25.929  0.00  0.00    +0.005 A 
ATOM     14  C   UNL     1       9.472   1.865  28.350  0.00  0.00    +0.000 A 
ATOM     15  C   UNL     1       7.504   1.833  26.961  0.00  0.00    +0.000 A 
ATOM     16  C   UNL     1       8.130   1.548  28.172  0.00  0.00    +0.000 A 
ENDBRANCH  10  11
ENDBRANCH   1  10
TORSDOF 2
ENDMDL
MODEL 9
REMARK VINA RESULT:    -4.557     16.439     17.515
REMARK INTER + INTRA:          -5.261
REMARK INTER:                  -5.136
REMARK INTRA:                  -0.124
REMARK UNBOUND:                -0.171
REMARK  Name = 1550473
REMARK  2 active torsions:
REMARK  status: ('A' for Active; 'I' for Inactive)
REMARK    1  A    between atoms: N_1  and  C_4
REMARK    2  A    between atoms: C_4  and  C_5
REMARK                            x       y       z     vdW  Elec       q    Type
REMARK                         _______ _______ _______ _____ _____    ______ ____
ROOT
ATOM      1  N   UNL     1       2.604  21.299  10.260  0.00  0.00    -0.354 N 
ATOM      2  N   UNL     1       4.510  21.765   9.028  0.00  0.00    -0.372 N 
ATOM      3  N   UNL     1       2.639  21.010   7.934  0.00  0.00    -0.372 N 
ATOM      4  C   UNL     1       3.237  21.354   9.080  0.00  0.00    +0.166 C 
ATOM      5  H   UNL     1       3.122  21.544  11.096  0.00  0.00    +0.163 HD
ATOM      6  H   UNL     1       5.012  21.820   8.152  0.00  0.00    +0.159 HD
ATOM      7  H   UNL     1       5.011  22.053   9.860  0.00  0.00    +0.159 HD
ATOM      8  H   UNL     1       1.682  20.686   7.906  0.00  0.00    +0.159 HD
ATOM      9  H   UNL     1       3.129  21.047   7.049  0.00  0.00    +0.159 HD
ENDROOT
BRANCH   1  10
ATOM     10  C   UNL     1       1.202  20.917  10.419  0.00  0.00    +0.151 C 
BRANCH  10  11
ATOM     11  C   UNL     1       0.784  21.165  11.842  0.00  0.00    -0.028 A 
ATOM     12  C   UNL     1       1.672  21.755  12.752  0.00  0.00    +0.005 A 
ATOM     13  C   UNL     1      -0.502  20.817  12.284  0.00  0.00    +0.005 A 
ATOM     14  C   UNL     1       1.274  22.013  14.066  0.00  0.00    +0.000 A 
ATOM     15  C   UNL     1      -0.895  21.075  13.597  0.00  0.00    +0.000 A 
ATOM     16  C   UNL     1      -0.008  21.676  14.487  0.00  0.00    +0.000 A 
ENDBRANCH  10  11
ENDBRANCH   1  10
TORSDOF 2
ENDMDL
