MODEL 1
REMARK VINA RESULT:    -5.191      0.000      0.000
REMARK INTER + INTRA:          -5.894
REMARK INTER:                  -5.798
REMARK INTRA:                  -0.096
REMARK UNBOUND:                -0.096
REMARK  Name = 1550473
REMARK  2 active torsions:
REMARK  status: ('A' for Active; 'I' for Inactive)
REMARK    1  A    between atoms: N_1  and  C_4
REMARK    2  A    between atoms: C_4  and  C_5
REMARK                            x       y       z     vdW  Elec       q    Type
REMARK                         _______ _______ _______ _____ _____    ______ ____
ROOT
ATOM      1  N   UNL     1       3.453 -12.676 -12.836  0.00  0.00    -0.354 N 
ATOM      2  N   UNL     1       1.851 -13.794 -11.592  0.00  0.00    -0.372 N 
ATOM      3  N   UNL     1       2.112 -14.333 -13.807  0.00  0.00    -0.372 N 
ATOM      4  C   UNL     1       2.482 -13.595 -12.756  0.00  0.00    +0.166 C 
ATOM      5  H   UNL     1       3.666 -12.127 -12.010  0.00  0.00    +0.163 HD
ATOM      6  H   UNL     1       1.117 -14.483 -11.501  0.00  0.00    +0.159 HD
ATOM      7  H   UNL     1       2.097 -13.277 -10.757  0.00  0.00    +0.159 HD
ATOM      8  H   UNL     1       2.545 -14.227 -14.715  0.00  0.00    +0.159 HD
ATOM      9  H   UNL     1       1.371 -15.020 -13.738  0.00  0.00    +0.159 HD
ENDROOT
BRANCH   1  10
ATOM     10  C   UNL     1       4.239 -12.419 -14.042  0.00  0.00    +0.151 C 
BRANCH  10  11
ATOM     11  C   UNL     1       5.555 -11.807 -13.649  0.00  0.00    -0.028 A 
ATOM     12  C   UNL     1       6.676 -12.617 -13.417  0.00  0.00    +0.005 A 
ATOM     13  C   UNL     1       5.690 -10.416 -13.513  0.00  0.00    +0.005 A 
ATOM     14  C   UNL     1       7.907 -12.047 -13.082  0.00  0.00    +0.000 A 
ATOM     15  C   UNL     1       6.920  -9.851 -13.178  0.00  0.00    +0.000 A 
ATOM     16  C   UNL     1       8.029 -10.666 -12.965  0.00  0.00    +0.000 A 
ENDBRANCH  10  11
ENDBRANCH   1  10
TORSDOF 2
ENDMDL
MODEL 2
REMARK VINA RESULT:    -5.149     11.397     13.148
REMARK INTER + INTRA:          -5.847
REMARK INTER:                  -5.672
REMARK INTRA:                  -0.175
REMARK UNBOUND:                -0.096
REMARK  Name = 1550473
REMARK  2 active torsions:
REMARK  status: ('A' for Active; 'I' for Inactive)
REMARK    1  A    between atoms: N_1  and  C_4
REMARK    2  A    between atoms: C_4  and  C_5
REMARK                            x       y       z     vdW  Elec       q    Type
REMARK                         _______ _______ _______ _____ _____    ______ ____
ROOT
ATOM      1  N   UNL     1      -1.143 -11.544  -3.453  0.00  0.00    -0.354 N 
ATOM      2  N   UNL     1      -1.736 -13.782  -3.482  0.00  0.00    -0.372 N 
ATOM      3  N   UNL     1      -2.723 -12.353  -4.982  0.00  0.00    -0.372 N 
ATOM      4  C   UNL     1      -1.865 -12.544  -3.974  0.00  0.00    +0.166 C 
ATOM      5  H   UNL     1      -0.532 -11.748  -2.670  0.00  0.00    +0.163 HD
ATOM      6  H   UNL     1      -2.266 -14.557  -3.858  0.00  0.00    +0.159 HD
ATOM      7  H   UNL     1      -1.091 -13.992  -2.730  0.00  0.00    +0.159 HD
ATOM      8  H   UNL     1      -2.871 -11.441  -5.394  0.00  0.00    +0.159 HD
ATOM      9  H   UNL     1      -3.271 -13.114  -5.363  0.00  0.00    +0.159 HD
ENDROOT
BRANCH   1  10
ATOM     10  C   UNL     1      -1.169 -10.169  -3.951  0.00  0.00    +0.151 C 
BRANCH  10  11
ATOM     11  C   UNL     1      -2.093  -9.353  -3.090  0.00  0.00    -0.028 A 
ATOM     12  C   UNL     1      -3.127  -8.602  -3.669  0.00  0.00    +0.005 A 
ATOM     13  C   UNL     1      -1.944  -9.330  -1.695  0.00  0.00    +0.005 A 
ATOM     14  C   UNL     1      -4.004  -7.867  -2.868  0.00  0.00    +0.000 A 
ATOM     15  C   UNL     1      -2.821  -8.594  -0.899  0.00  0.00    +0.000 A 
ATOM     16  C   UNL     1      -3.852  -7.865  -1.485  0.00  0.00    +0.000 A 
ENDBRANCH  10  11
ENDBRANCH   1  10
TORSDOF 2
ENDMDL
MODEL 3
REMARK VINA RESULT:    -5.130     19.149     20.027
REMARK INTER + INTRA:          -5.825
REMARK INTER:                  -5.658
REMARK INTRA:                  -0.168
REMARK UNBOUND:                -0.096
REMARK  Name = 1550473
REMARK  2 active torsions:
REMARK  status: ('A' for Active; 'I' for Inactive)
REMARK    1  A    between atoms: N_1  and  C_4
REMARK    2  A    between atoms: C_4  and  C_5
REMARK                            x       y       z     vdW  Elec       q    Type
REMARK                         _______ _______ _______ _____ _____    ______ ____
ROOT
ATOM      1  N   UNL     1     -12.431 -11.968  -3.081  0.00  0.00    -0.354 N 
ATOM      2  N   UNL     1     -14.683 -12.497  -2.952  0.00  0.00    -0.372 N 
ATOM      3  N   UNL     1     -13.133 -14.161  -2.643  0.00  0.00    -0.372 N 
ATOM      4  C   UNL     1     -13.400 -12.874  -2.893  0.00  0.00    +0.166 C 
ATOM      5  H   UNL     1     -12.700 -11.015  -3.297  0.00  0.00    +0.163 HD
ATOM      6  H   UNL     1     -15.435 -13.158  -2.811  0.00  0.00    +0.159 HD
ATOM      7  H   UNL     1     -14.948 -11.535  -3.122  0.00  0.00    +0.159 HD
ATOM      8  H   UNL     1     -12.185 -14.511  -2.591  0.00  0.00    +0.159 HD
ATOM      9  H   UNL     1     -13.872 -14.840  -2.510  0.00  0.00    +0.159 HD
ENDROOT
BRANCH   1  10
ATOM     10  C   UNL     1     -11.003 -12.265  -2.984  0.00  0.00    +0.151 C 
BRANCH  10  11
ATOM     11  C   UNL     1     -10.448 -11.608  -1.750  0.00  0.00    -0.028 A 
ATOM     12  C   UNL     1     -10.622 -12.199  -0.490  0.00  0.00    +0.005 A 
ATOM     13  C   UNL     1      -9.743 -10.398  -1.835  0.00  0.00    +0.005 A 
ATOM     14  C   UNL     1     -10.080 -11.605   0.653  0.00  0.00    +0.000 A 
ATOM     15  C   UNL     1      -9.205  -9.807  -0.692  0.00  0.00    +0.000 A 
ATOM     16  C   UNL     1      -9.372 -10.412   0.552  0.00  0.00    +0.000 A 
ENDBRANCH  10  11
ENDBRANCH   1  10
TORSDOF 2
ENDMDL
MODEL 4
REMARK VINA RESULT:    -5.008      1.230      2.229
REMARK INTER + INTRA:          -5.690
REMARK INTER:                  -5.556
REMARK INTRA:                  -0.134
REMARK UNBOUND:                -0.096
REMARK  Name = 1550473
REMARK  2 active torsions:
REMARK  status: ('A' for Active; 'I' for Inactive)
REMARK    1  A    between atoms: N_1  and  C_4
REMARK    2  A    between atoms: C_4  and  C_5
REMARK                            x       y       z     vdW  Elec       q    Type
REMARK                         _______ _______ _______ _____ _____    ______ ____
ROOT
ATOM      1  N   UNL     1       4.209 -12.229 -12.740  0.00  0.00    -0.354 N 
ATOM      2  N   UNL     1       2.281 -13.439 -12.316  0.00  0.00    -0.372 N 
ATOM      3  N   UNL     1       2.781 -12.874 -14.482  0.00  0.00    -0.372 N 
ATOM      4  C   UNL     1       3.102 -12.839 -13.185  0.00  0.00    +0.166 C 
ATOM      5  H   UNL     1       4.381 -12.212 -11.741  0.00  0.00    +0.163 HD
ATOM      6  H   UNL     1       1.440 -13.910 -12.622  0.00  0.00    +0.159 HD
ATOM      7  H   UNL     1       2.478 -13.460 -11.323  0.00  0.00    +0.159 HD
ATOM      8  H   UNL     1       3.356 -12.434 -15.189  0.00  0.00    +0.159 HD
ATOM      9  H   UNL     1       1.938 -13.330 -14.808  0.00  0.00    +0.159 HD
ENDROOT
BRANCH   1  10
ATOM     10  C   UNL     1       5.197 -11.592 -13.609  0.00  0.00    +0.151 C 
BRANCH  10  11
ATOM     11  C   UNL     1       6.511 -12.311 -13.468  0.00  0.00    -0.028 A 
ATOM     12  C   UNL     1       7.686 -11.599 -13.187  0.00  0.00    +0.005 A 
ATOM     13  C   UNL     1       6.586 -13.705 -13.610  0.00  0.00    +0.005 A 
ATOM     14  C   UNL     1       8.901 -12.270 -13.027  0.00  0.00    +0.000 A 
ATOM     15  C   UNL     1       7.801 -14.371 -13.450  0.00  0.00    +0.000 A 
ATOM     16  C   UNL     1       8.958 -13.653 -13.156  0.00  0.00    +0.000 A 
ENDBRANCH  10  11
ENDBRANCH   1  10
TORSDOF 2
ENDMDL
MODEL 5
REMARK VINA RESULT:    -4.920      2.246      5.229
REMARK INTER + INTRA:          -5.591
REMARK INTER:                  -5.491
REMARK INTRA:                  -0.099
REMARK UNBOUND:                -0.096
REMARK  Name = 1550473
REMARK  2 active torsions:
REMARK  status: ('A' for Active; 'I' for Inactive)
REMARK    1  A    between atoms: N_1  and  C_4
REMARK    2  A    between atoms: C_4  and  C_5
REMARK                            x       y       z     vdW  Elec       q    Type
REMARK                         _______ _______ _______ _____ _____    ______ ____
ROOT
ATOM      1  N   UNL     1       4.829 -13.262 -13.697  0.00  0.00    -0.354 N 
ATOM      2  N   UNL     1       6.103 -12.118 -12.137  0.00  0.00    -0.372 N 
ATOM      3  N   UNL     1       5.223 -10.962 -13.913  0.00  0.00    -0.372 N 
ATOM      4  C   UNL     1       5.376 -12.119 -13.261  0.00  0.00    +0.166 C 
ATOM      5  H   UNL     1       5.007 -14.111 -13.173  0.00  0.00    +0.163 HD
ATOM      6  H   UNL     1       6.525 -11.271 -11.782  0.00  0.00    +0.159 HD
ATOM      7  H   UNL     1       6.241 -12.960 -11.591  0.00  0.00    +0.159 HD
ATOM      8  H   UNL     1       4.691 -10.896 -14.770  0.00  0.00    +0.159 HD
ATOM      9  H   UNL     1       5.648 -10.105 -13.580  0.00  0.00    +0.159 HD
ENDROOT
BRANCH   1  10
ATOM     10  C   UNL     1       3.976 -13.360 -14.880  0.00  0.00    +0.151 C 
BRANCH  10  11
ATOM     11  C   UNL     1       2.535 -13.291 -14.453  0.00  0.00    -0.028 A 
ATOM     12  C   UNL     1       2.170 -13.572 -13.129  0.00  0.00    +0.005 A 
ATOM     13  C   UNL     1       1.531 -12.938 -15.368  0.00  0.00    +0.005 A 
ATOM     14  C   UNL     1       0.836 -13.478 -12.725  0.00  0.00    +0.000 A 
ATOM     15  C   UNL     1       0.200 -12.846 -14.962  0.00  0.00    +0.000 A 
ATOM     16  C   UNL     1      -0.147 -13.114 -13.640  0.00  0.00    +0.000 A 
ENDBRANCH  10  11
ENDBRANCH   1  10
TORSDOF 2
ENDMDL
MODEL 6
REMARK VINA RESULT:    -4.895     18.723     19.419
REMARK INTER + INTRA:          -5.564
REMARK INTER:                  -5.443
REMARK INTRA:                  -0.121
REMARK UNBOUND:                -0.096
REMARK  Name = 1550473
REMARK  2 active torsions:
REMARK  status: ('A' for Active; 'I' for Inactive)
REMARK    1  A    between atoms: N_1  and  C_4
REMARK    2  A    between atoms: C_4  and  C_5
REMARK                            x       y       z     vdW  Elec       q    Type
REMARK                         _______ _______ _______ _____ _____    ______ ____
ROOT
ATOM      1  N   UNL     1       2.749  -1.415   2.183  0.00  0.00    -0.354 N 
ATOM      2  N   UNL     1       4.924  -1.097   2.912  0.00  0.00    -0.372 N 
ATOM      3  N   UNL     1       4.014   0.415   1.446  0.00  0.00    -0.372 N 
ATOM      4  C   UNL     1       3.881  -0.699   2.174  0.00  0.00    +0.166 C 
ATOM      5  H   UNL     1       2.723  -2.266   2.732  0.00  0.00    +0.163 HD
ATOM      6  H   UNL     1       5.790  -0.575   2.928  0.00  0.00    +0.159 HD
ATOM      7  H   UNL     1       4.879  -1.923   3.496  0.00  0.00    +0.159 HD
ATOM      8  H   UNL     1       3.266   0.766   0.862  0.00  0.00    +0.159 HD
ATOM      9  H   UNL     1       4.876   0.945   1.439  0.00  0.00    +0.159 HD
ENDROOT
BRANCH   1  10
ATOM     10  C   UNL     1       1.538  -1.039   1.456  0.00  0.00    +0.151 C 
BRANCH  10  11
ATOM     11  C   UNL     1       0.447  -2.023   1.778  0.00  0.00    -0.028 A 
ATOM     12  C   UNL     1      -0.672  -2.144   0.940  0.00  0.00    +0.005 A 
ATOM     13  C   UNL     1       0.529  -2.841   2.915  0.00  0.00    +0.005 A 
ATOM     14  C   UNL     1      -1.671  -3.079   1.222  0.00  0.00    +0.000 A 
ATOM     15  C   UNL     1      -0.471  -3.773   3.193  0.00  0.00    +0.000 A 
ATOM     16  C   UNL     1      -1.569  -3.893   2.345  0.00  0.00    +0.000 A 
ENDBRANCH  10  11
ENDBRANCH   1  10
TORSDOF 2
ENDMDL
MODEL 7
REMARK VINA RESULT:    -4.784     22.025     22.716
REMARK INTER + INTRA:          -5.440
REMARK INTER:                  -5.315
REMARK INTRA:                  -0.125
REMARK UNBOUND:                -0.096
REMARK  Name = 1550473
REMARK  2 active torsions:
REMARK  status: ('A' for Active; 'I' for Inactive)
REMARK    1  A    between atoms: N_1  and  C_4
REMARK    2  A    between atoms: C_4  and  C_5
REMARK                            x       y       z     vdW  Elec       q    Type
REMARK                         _______ _______ _______ _____ _____    ______ ____
ROOT
ATOM      1  N   UNL     1     -10.667 -10.844 -27.870  0.00  0.00    -0.354 N 
ATOM      2  N   UNL     1     -12.343 -11.328 -26.347  0.00  0.00    -0.372 N 
ATOM      3  N   UNL     1     -12.842 -10.026 -28.169  0.00  0.00    -0.372 N 
ATOM      4  C   UNL     1     -11.941 -10.728 -27.474  0.00  0.00    +0.166 C 
ATOM      5  H   UNL     1     -10.026 -11.364 -27.283  0.00  0.00    +0.163 HD
ATOM      6  H   UNL     1     -13.299 -11.262 -26.025  0.00  0.00    +0.159 HD
ATOM      7  H   UNL     1     -11.711 -11.886 -25.786  0.00  0.00    +0.159 HD
ATOM      8  H   UNL     1     -12.601  -9.544 -29.025  0.00  0.00    +0.159 HD
ATOM      9  H   UNL     1     -13.801  -9.938 -27.857  0.00  0.00    +0.159 HD
ENDROOT
BRANCH   1  10
ATOM     10  C   UNL     1     -10.140 -10.273 -29.109  0.00  0.00    +0.151 C 
BRANCH  10  11
ATOM     11  C   UNL     1      -9.815 -11.389 -30.064  0.00  0.00    -0.028 A 
ATOM     12  C   UNL     1      -9.398 -11.107 -31.373  0.00  0.00    +0.005 A 
ATOM     13  C   UNL     1      -9.915 -12.730 -29.663  0.00  0.00    +0.005 A 
ATOM     14  C   UNL     1      -9.066 -12.142 -32.250  0.00  0.00    +0.000 A 
ATOM     15  C   UNL     1      -9.584 -13.761 -30.543  0.00  0.00    +0.000 A 
ATOM     16  C   UNL     1      -9.157 -13.466 -31.835  0.00  0.00    +0.000 A 
ENDBRANCH  10  11
ENDBRANCH   1  10
TORSDOF 2
ENDMDL
MODEL 8
REMARK VINA RESULT:    -4.751     19.683     20.866
REMARK INTER + INTRA:          -5.403
REMARK INTER:                  -5.305
REMARK INTRA:                  -0.098
REMARK UNBOUND:                -0.096
REMARK  Name = 1550473
REMARK  2 active torsions:
REMARK  status: ('A' for Active; 'I' for Inactive)
REMARK    1  A    between atoms: N_1  and  C_4
REMARK    2  A    between atoms: C_4  and  C_5
REMARK                            x       y       z     vdW  Elec       q    Type
REMARK                         _______ _______ _______ _____ _____    ______ ____
ROOT
ATOM      1  N   UNL     1     -14.401 -12.707  -2.842  0.00  0.00    -0.354 N 
ATOM      2  N   UNL     1     -16.715 -12.789  -2.782  0.00  0.00    -0.372 N 
ATOM      3  N   UNL     1     -15.624 -13.598  -4.632  0.00  0.00    -0.372 N 
ATOM      4  C   UNL     1     -15.564 -13.032  -3.422  0.00  0.00    +0.166 C 
ATOM      5  H   UNL     1     -14.425 -12.253  -1.936  0.00  0.00    +0.163 HD
ATOM      6  H   UNL     1     -17.608 -13.027  -3.193  0.00  0.00    +0.159 HD
ATOM      7  H   UNL     1     -16.734 -12.377  -1.857  0.00  0.00    +0.159 HD
ATOM      8  H   UNL     1     -14.792 -13.801  -5.169  0.00  0.00    +0.159 HD
ATOM      9  H   UNL     1     -16.509 -13.832  -5.065  0.00  0.00    +0.159 HD
ENDROOT
BRANCH   1  10
ATOM     10  C   UNL     1     -13.091 -12.978  -3.431  0.00  0.00    +0.151 C 
BRANCH  10  11
ATOM     11  C   UNL     1     -12.031 -12.313  -2.597  0.00  0.00    -0.028 A 
ATOM     12  C   UNL     1     -11.224 -11.304  -3.143  0.00  0.00    +0.005 A 
ATOM     13  C   UNL     1     -11.832 -12.683  -1.258  0.00  0.00    +0.005 A 
ATOM     14  C   UNL     1     -10.259 -10.665  -2.360  0.00  0.00    +0.000 A 
ATOM     15  C   UNL     1     -10.867 -12.043  -0.480  0.00  0.00    +0.000 A 
ATOM     16  C   UNL     1     -10.083 -11.033  -1.031  0.00  0.00    +0.000 A 
ENDBRANCH  10  11
ENDBRANCH   1  10
TORSDOF 2
ENDMDL
MODEL 9
REMARK VINA RESULT:    -4.750     18.629     19.442
REMARK INTER + INTRA:          -5.401
REMARK INTER:                  -5.290
REMARK INTRA:                  -0.111
REMARK UNBOUND:                -0.096
REMARK  Name = 1550473
REMARK  2 active torsions:
REMARK  status: ('A' for Active; 'I' for Inactive)
REMARK    1  A    between atoms: N_1  and  C_4
REMARK    2  A    between atoms: C_4  and  C_5
REMARK                            x       y       z     vdW  Elec       q    Type
REMARK                         _______ _______ _______ _____ _____    ______ ____
ROOT
ATOM      1  N   UNL     1      -8.453 -10.123   0.427  0.00  0.00    -0.354 N 
ATOM      2  N   UNL     1      -7.067  -8.429  -0.331  0.00  0.00    -0.372 N 
ATOM      3  N   UNL     1      -9.255  -8.463  -1.019  0.00  0.00    -0.372 N 
ATOM      4  C   UNL     1      -8.270  -9.016  -0.304  0.00  0.00    +0.166 C 
ATOM      5  H   UNL     1      -7.658 -10.510   0.922  0.00  0.00    +0.163 HD
ATOM      6  H   UNL     1      -6.899  -7.591  -0.870  0.00  0.00    +0.159 HD
ATOM      7  H   UNL     1      -6.285  -8.792   0.202  0.00  0.00    +0.159 HD
ATOM      8  H   UNL     1     -10.185  -8.860  -1.046  0.00  0.00    +0.159 HD
ATOM      9  H   UNL     1      -9.104  -7.630  -1.575  0.00  0.00    +0.159 HD
ENDROOT
BRANCH   1  10
ATOM     10  C   UNL     1      -9.737 -10.808   0.566  0.00  0.00    +0.151 C 
BRANCH  10  11
ATOM     11  C   UNL     1      -9.862 -11.843  -0.519  0.00  0.00    -0.028 A 
ATOM     12  C   UNL     1     -10.699 -11.620  -1.622  0.00  0.00    +0.005 A 
ATOM     13  C   UNL     1      -9.141 -13.045  -0.452  0.00  0.00    +0.005 A 
ATOM     14  C   UNL     1     -10.792 -12.568  -2.644  0.00  0.00    +0.000 A 
ATOM     15  C   UNL     1      -9.238 -13.989  -1.474  0.00  0.00    +0.000 A 
ATOM     16  C   UNL     1     -10.062 -13.749  -2.571  0.00  0.00    +0.000 A 
ENDBRANCH  10  11
ENDBRANCH   1  10
TORSDOF 2
ENDMDL
