MODEL 1
REMARK VINA RESULT:    -5.153      0.000      0.000
REMARK INTER + INTRA:          -5.856
REMARK INTER:                  -5.756
REMARK INTRA:                  -0.101
REMARK UNBOUND:                -0.101
REMARK  Name = 1550473
REMARK  2 active torsions:
REMARK  status: ('A' for Active; 'I' for Inactive)
REMARK    1  A    between atoms: N_1  and  C_4
REMARK    2  A    between atoms: C_4  and  C_5
REMARK                            x       y       z     vdW  Elec       q    Type
REMARK                         _______ _______ _______ _____ _____    ______ ____
ROOT
ATOM      1  N   UNL     1      10.015  -4.312   9.151  0.00  0.00    -0.354 N 
ATOM      2  N   UNL     1       8.612  -5.325   7.613  0.00  0.00    -0.372 N 
ATOM      3  N   UNL     1       7.989  -3.314   8.525  0.00  0.00    -0.372 N 
ATOM      4  C   UNL     1       8.880  -4.308   8.441  0.00  0.00    +0.166 C 
ATOM      5  H   UNL     1      10.634  -5.109   9.065  0.00  0.00    +0.163 HD
ATOM      6  H   UNL     1       7.765  -5.349   7.061  0.00  0.00    +0.159 HD
ATOM      7  H   UNL     1       9.254  -6.099   7.494  0.00  0.00    +0.159 HD
ATOM      8  H   UNL     1       8.129  -2.520   9.135  0.00  0.00    +0.159 HD
ATOM      9  H   UNL     1       7.130  -3.325   7.989  0.00  0.00    +0.159 HD
ENDROOT
BRANCH   1  10
ATOM     10  C   UNL     1      10.427  -3.226  10.040  0.00  0.00    +0.151 C 
BRANCH  10  11
ATOM     11  C   UNL     1      11.819  -3.500  10.538  0.00  0.00    -0.028 A 
ATOM     12  C   UNL     1      12.837  -2.552  10.362  0.00  0.00    +0.005 A 
ATOM     13  C   UNL     1      12.126  -4.704  11.190  0.00  0.00    +0.005 A 
ATOM     14  C   UNL     1      14.124  -2.793  10.851  0.00  0.00    +0.000 A 
ATOM     15  C   UNL     1      13.412  -4.942  11.676  0.00  0.00    +0.000 A 
ATOM     16  C   UNL     1      14.410  -3.985  11.508  0.00  0.00    +0.000 A 
ENDBRANCH  10  11
ENDBRANCH   1  10
TORSDOF 2
ENDMDL
MODEL 2
REMARK VINA RESULT:    -5.132     19.501     20.999
REMARK INTER + INTRA:          -5.832
REMARK INTER:                  -5.707
REMARK INTRA:                  -0.126
REMARK UNBOUND:                -0.101
REMARK  Name = 1550473
REMARK  2 active torsions:
REMARK  status: ('A' for Active; 'I' for Inactive)
REMARK    1  A    between atoms: N_1  and  C_4
REMARK    2  A    between atoms: C_4  and  C_5
REMARK                            x       y       z     vdW  Elec       q    Type
REMARK                         _______ _______ _______ _____ _____    ______ ____
ROOT
ATOM      1  N   UNL     1       2.725  14.065  11.353  0.00  0.00    -0.354 N 
ATOM      2  N   UNL     1       3.401  14.360  13.549  0.00  0.00    -0.372 N 
ATOM      3  N   UNL     1       4.186  12.548  12.380  0.00  0.00    -0.372 N 
ATOM      4  C   UNL     1       3.434  13.653  12.412  0.00  0.00    +0.166 C 
ATOM      5  H   UNL     1       2.151  14.895  11.451  0.00  0.00    +0.163 HD
ATOM      6  H   UNL     1       3.928  14.076  14.363  0.00  0.00    +0.159 HD
ATOM      7  H   UNL     1       2.863  15.214  13.629  0.00  0.00    +0.159 HD
ATOM      8  H   UNL     1       4.249  11.967  11.555  0.00  0.00    +0.159 HD
ATOM      9  H   UNL     1       4.711  12.240  13.189  0.00  0.00    +0.159 HD
ENDROOT
BRANCH   1  10
ATOM     10  C   UNL     1       2.735  13.398  10.053  0.00  0.00    +0.151 C 
BRANCH  10  11
ATOM     11  C   UNL     1       2.296  14.373   8.996  0.00  0.00    -0.028 A 
ATOM     12  C   UNL     1       2.354  14.027   7.638  0.00  0.00    +0.005 A 
ATOM     13  C   UNL     1       1.814  15.644   9.346  0.00  0.00    +0.005 A 
ATOM     14  C   UNL     1       1.918  14.921   6.658  0.00  0.00    +0.000 A 
ATOM     15  C   UNL     1       1.381  16.535   8.365  0.00  0.00    +0.000 A 
ATOM     16  C   UNL     1       1.431  16.172   7.021  0.00  0.00    +0.000 A 
ENDBRANCH  10  11
ENDBRANCH   1  10
TORSDOF 2
ENDMDL
MODEL 3
REMARK VINA RESULT:    -4.998     19.314     20.730
REMARK INTER + INTRA:          -5.683
REMARK INTER:                  -5.608
REMARK INTRA:                  -0.075
REMARK UNBOUND:                -0.101
REMARK  Name = 1550473
REMARK  2 active torsions:
REMARK  status: ('A' for Active; 'I' for Inactive)
REMARK    1  A    between atoms: N_1  and  C_4
REMARK    2  A    between atoms: C_4  and  C_5
REMARK                            x       y       z     vdW  Elec       q    Type
REMARK                         _______ _______ _______ _____ _____    ______ ____
ROOT
ATOM      1  N   UNL     1       2.966  13.828  12.445  0.00  0.00    -0.354 N 
ATOM      2  N   UNL     1       2.984  15.138  14.355  0.00  0.00    -0.372 N 
ATOM      3  N   UNL     1       4.928  14.888  13.163  0.00  0.00    -0.372 N 
ATOM      4  C   UNL     1       3.629  14.610  13.308  0.00  0.00    +0.166 C 
ATOM      5  H   UNL     1       1.988  13.631  12.628  0.00  0.00    +0.163 HD
ATOM      6  H   UNL     1       3.457  15.734  15.021  0.00  0.00    +0.159 HD
ATOM      7  H   UNL     1       1.996  14.976  14.510  0.00  0.00    +0.159 HD
ATOM      8  H   UNL     1       5.474  14.516  12.397  0.00  0.00    +0.159 HD
ATOM      9  H   UNL     1       5.422  15.473  13.825  0.00  0.00    +0.159 HD
ENDROOT
BRANCH   1  10
ATOM     10  C   UNL     1       3.562  13.248  11.243  0.00  0.00    +0.151 C 
BRANCH  10  11
ATOM     11  C   UNL     1       2.981  13.923  10.032  0.00  0.00    -0.028 A 
ATOM     12  C   UNL     1       2.273  15.127  10.158  0.00  0.00    +0.005 A 
ATOM     13  C   UNL     1       3.139  13.366   8.753  0.00  0.00    +0.005 A 
ATOM     14  C   UNL     1       1.759  15.770   9.030  0.00  0.00    +0.000 A 
ATOM     15  C   UNL     1       2.624  14.011   7.629  0.00  0.00    +0.000 A 
ATOM     16  C   UNL     1       1.936  15.214   7.767  0.00  0.00    +0.000 A 
ENDBRANCH  10  11
ENDBRANCH   1  10
TORSDOF 2
ENDMDL
MODEL 4
REMARK VINA RESULT:    -4.907     20.464     22.405
REMARK INTER + INTRA:          -5.581
REMARK INTER:                  -5.462
REMARK INTRA:                  -0.119
REMARK UNBOUND:                -0.101
REMARK  Name = 1550473
REMARK  2 active torsions:
REMARK  status: ('A' for Active; 'I' for Inactive)
REMARK    1  A    between atoms: N_1  and  C_4
REMARK    2  A    between atoms: C_4  and  C_5
REMARK                            x       y       z     vdW  Elec       q    Type
REMARK                         _______ _______ _______ _____ _____    ______ ____
ROOT
ATOM      1  N   UNL     1       4.741  10.827  -2.434  0.00  0.00    -0.354 N 
ATOM      2  N   UNL     1       6.062   9.402  -1.172  0.00  0.00    -0.372 N 
ATOM      3  N   UNL     1       6.624  11.624  -1.289  0.00  0.00    -0.372 N 
ATOM      4  C   UNL     1       5.802  10.629  -1.640  0.00  0.00    +0.166 C 
ATOM      5  H   UNL     1       4.174  10.026  -2.687  0.00  0.00    +0.163 HD
ATOM      6  H   UNL     1       6.853   9.224  -0.568  0.00  0.00    +0.159 HD
ATOM      7  H   UNL     1       5.467   8.612  -1.390  0.00  0.00    +0.159 HD
ATOM      8  H   UNL     1       6.487  12.572  -1.613  0.00  0.00    +0.159 HD
ATOM      9  H   UNL     1       7.428  11.463  -0.695  0.00  0.00    +0.159 HD
ENDROOT
BRANCH   1  10
ATOM     10  C   UNL     1       4.340  12.133  -2.952  0.00  0.00    +0.151 C 
BRANCH  10  11
ATOM     11  C   UNL     1       3.619  11.943  -4.259  0.00  0.00    -0.028 A 
ATOM     12  C   UNL     1       2.373  12.548  -4.479  0.00  0.00    +0.005 A 
ATOM     13  C   UNL     1       4.180  11.164  -5.282  0.00  0.00    +0.005 A 
ATOM     14  C   UNL     1       1.717  12.396  -5.703  0.00  0.00    +0.000 A 
ATOM     15  C   UNL     1       3.522  11.014  -6.503  0.00  0.00    +0.000 A 
ATOM     16  C   UNL     1       2.291  11.632  -6.713  0.00  0.00    +0.000 A 
ENDBRANCH  10  11
ENDBRANCH   1  10
TORSDOF 2
ENDMDL
MODEL 5
REMARK VINA RESULT:    -4.839     15.857     17.502
REMARK INTER + INTRA:          -5.506
REMARK INTER:                  -5.357
REMARK INTRA:                  -0.149
REMARK UNBOUND:                -0.101
REMARK  Name = 1550473
REMARK  2 active torsions:
REMARK  status: ('A' for Active; 'I' for Inactive)
REMARK    1  A    between atoms: N_1  and  C_4
REMARK    2  A    between atoms: C_4  and  C_5
REMARK                            x       y       z     vdW  Elec       q    Type
REMARK                         _______ _______ _______ _____ _____    ______ ____
ROOT
ATOM      1  N   UNL     1       6.100   1.547  -7.090  0.00  0.00    -0.354 N 
ATOM      2  N   UNL     1       5.530  -0.053  -8.664  0.00  0.00    -0.372 N 
ATOM      3  N   UNL     1       6.925   1.662  -9.280  0.00  0.00    -0.372 N 
ATOM      4  C   UNL     1       6.190   1.064  -8.336  0.00  0.00    +0.166 C 
ATOM      5  H   UNL     1       5.502   1.064  -6.429  0.00  0.00    +0.163 HD
ATOM      6  H   UNL     1       5.582  -0.443  -9.596  0.00  0.00    +0.159 HD
ATOM      7  H   UNL     1       4.971  -0.560  -7.989  0.00  0.00    +0.159 HD
ATOM      8  H   UNL     1       7.442   2.512  -9.098  0.00  0.00    +0.159 HD
ATOM      9  H   UNL     1       6.980   1.294 -10.221  0.00  0.00    +0.159 HD
ENDROOT
BRANCH   1  10
ATOM     10  C   UNL     1       6.821   2.726  -6.615  0.00  0.00    +0.151 C 
BRANCH  10  11
ATOM     11  C   UNL     1       7.806   2.308  -5.559  0.00  0.00    -0.028 A 
ATOM     12  C   UNL     1       9.053   2.942  -5.456  0.00  0.00    +0.005 A 
ATOM     13  C   UNL     1       7.496   1.282  -4.653  0.00  0.00    +0.005 A 
ATOM     14  C   UNL     1       9.956   2.574  -4.456  0.00  0.00    +0.000 A 
ATOM     15  C   UNL     1       8.401   0.917  -3.656  0.00  0.00    +0.000 A 
ATOM     16  C   UNL     1       9.629   1.565  -3.556  0.00  0.00    +0.000 A 
ENDBRANCH  10  11
ENDBRANCH   1  10
TORSDOF 2
ENDMDL
MODEL 6
REMARK VINA RESULT:    -4.833     16.573     18.417
REMARK INTER + INTRA:          -5.499
REMARK INTER:                  -5.364
REMARK INTRA:                  -0.135
REMARK UNBOUND:                -0.101
REMARK  Name = 1550473
REMARK  2 active torsions:
REMARK  status: ('A' for Active; 'I' for Inactive)
REMARK    1  A    between atoms: N_1  and  C_4
REMARK    2  A    between atoms: C_4  and  C_5
REMARK                            x       y       z     vdW  Elec       q    Type
REMARK                         _______ _______ _______ _____ _____    ______ ____
ROOT
ATOM      1  N   UNL     1       7.165   3.729  -7.709  0.00  0.00    -0.354 N 
ATOM      2  N   UNL     1       6.867   5.939  -8.333  0.00  0.00    -0.372 N 
ATOM      3  N   UNL     1       5.250   4.405  -8.878  0.00  0.00    -0.372 N 
ATOM      4  C   UNL     1       6.427   4.676  -8.304  0.00  0.00    +0.166 C 
ATOM      5  H   UNL     1       8.063   3.993  -7.319  0.00  0.00    +0.163 HD
ATOM      6  H   UNL     1       6.330   6.676  -8.771  0.00  0.00    +0.159 HD
ATOM      7  H   UNL     1       7.743   6.209  -7.902  0.00  0.00    +0.159 HD
ATOM      8  H   UNL     1       4.865   3.470  -8.895  0.00  0.00    +0.159 HD
ATOM      9  H   UNL     1       4.703   5.127  -9.331  0.00  0.00    +0.159 HD
ENDROOT
BRANCH   1  10
ATOM     10  C   UNL     1       6.752   2.333  -7.576  0.00  0.00    +0.151 C 
BRANCH  10  11
ATOM     11  C   UNL     1       7.210   1.811  -6.242  0.00  0.00    -0.028 A 
ATOM     12  C   UNL     1       7.075   0.451  -5.926  0.00  0.00    +0.005 A 
ATOM     13  C   UNL     1       7.785   2.669  -5.292  0.00  0.00    +0.005 A 
ATOM     14  C   UNL     1       7.528  -0.041  -4.699  0.00  0.00    +0.000 A 
ATOM     15  C   UNL     1       8.235   2.175  -4.068  0.00  0.00    +0.000 A 
ATOM     16  C   UNL     1       8.108   0.820  -3.773  0.00  0.00    +0.000 A 
ENDBRANCH  10  11
ENDBRANCH   1  10
TORSDOF 2
ENDMDL
MODEL 7
REMARK VINA RESULT:    -4.749     14.563     16.103
REMARK INTER + INTRA:          -5.405
REMARK INTER:                  -5.290
REMARK INTRA:                  -0.114
REMARK UNBOUND:                -0.101
REMARK  Name = 1550473
REMARK  2 active torsions:
REMARK  status: ('A' for Active; 'I' for Inactive)
REMARK    1  A    between atoms: N_1  and  C_4
REMARK    2  A    between atoms: C_4  and  C_5
REMARK                            x       y       z     vdW  Elec       q    Type
REMARK                         _______ _______ _______ _____ _____    ______ ____
ROOT
ATOM      1  N   UNL     1      12.017   1.594  -3.669  0.00  0.00    -0.354 N 
ATOM      2  N   UNL     1      13.925   0.524  -2.909  0.00  0.00    -0.372 N 
ATOM      3  N   UNL     1      13.956   2.805  -3.152  0.00  0.00    -0.372 N 
ATOM      4  C   UNL     1      13.288   1.651  -3.249  0.00  0.00    +0.166 C 
ATOM      5  H   UNL     1      11.577   0.685  -3.749  0.00  0.00    +0.163 HD
ATOM      6  H   UNL     1      14.883   0.536  -2.585  0.00  0.00    +0.159 HD
ATOM      7  H   UNL     1      13.468  -0.379  -2.946  0.00  0.00    +0.159 HD
ATOM      8  H   UNL     1      13.533   3.691  -3.399  0.00  0.00    +0.159 HD
ATOM      9  H   UNL     1      14.919   2.836  -2.841  0.00  0.00    +0.159 HD
ENDROOT
BRANCH   1  10
ATOM     10  C   UNL     1      11.216   2.768  -4.011  0.00  0.00    +0.151 C 
BRANCH  10  11
ATOM     11  C   UNL     1       9.821   2.327  -4.358  0.00  0.00    -0.028 A 
ATOM     12  C   UNL     1       9.225   1.253  -3.680  0.00  0.00    +0.005 A 
ATOM     13  C   UNL     1       9.087   2.982  -5.359  0.00  0.00    +0.005 A 
ATOM     14  C   UNL     1       7.918   0.862  -3.981  0.00  0.00    +0.000 A 
ATOM     15  C   UNL     1       7.783   2.588  -5.656  0.00  0.00    +0.000 A 
ATOM     16  C   UNL     1       7.198   1.530  -4.966  0.00  0.00    +0.000 A 
ENDBRANCH  10  11
ENDBRANCH   1  10
TORSDOF 2
ENDMDL
MODEL 8
REMARK VINA RESULT:    -4.726     15.162     16.524
REMARK INTER + INTRA:          -5.379
REMARK INTER:                  -5.228
REMARK INTRA:                  -0.151
REMARK UNBOUND:                -0.101
REMARK  Name = 1550473
REMARK  2 active torsions:
REMARK  status: ('A' for Active; 'I' for Inactive)
REMARK    1  A    between atoms: N_1  and  C_4
REMARK    2  A    between atoms: C_4  and  C_5
REMARK                            x       y       z     vdW  Elec       q    Type
REMARK                         _______ _______ _______ _____ _____    ______ ____
ROOT
ATOM      1  N   UNL     1      10.982   4.093  -4.688  0.00  0.00    -0.354 N 
ATOM      2  N   UNL     1      11.853   5.741  -3.313  0.00  0.00    -0.372 N 
ATOM      3  N   UNL     1      13.009   3.774  -3.556  0.00  0.00    -0.372 N 
ATOM      4  C   UNL     1      11.944   4.523  -3.861  0.00  0.00    +0.166 C 
ATOM      5  H   UNL     1      10.185   4.698  -4.854  0.00  0.00    +0.163 HD
ATOM      6  H   UNL     1      12.566   6.094  -2.688  0.00  0.00    +0.159 HD
ATOM      7  H   UNL     1      11.079   6.361  -3.518  0.00  0.00    +0.159 HD
ATOM      8  H   UNL     1      13.134   2.843  -3.932  0.00  0.00    +0.159 HD
ATOM      9  H   UNL     1      13.727   4.104  -2.923  0.00  0.00    +0.159 HD
ENDROOT
BRANCH   1  10
ATOM     10  C   UNL     1      11.012   2.805  -5.378  0.00  0.00    +0.151 C 
BRANCH  10  11
ATOM     11  C   UNL     1       9.821   1.992  -4.952  0.00  0.00    -0.028 A 
ATOM     12  C   UNL     1       9.624   1.671  -3.601  0.00  0.00    +0.005 A 
ATOM     13  C   UNL     1       8.883   1.542  -5.895  0.00  0.00    +0.005 A 
ATOM     14  C   UNL     1       8.503   0.941  -3.201  0.00  0.00    +0.000 A 
ATOM     15  C   UNL     1       7.765   0.812  -5.492  0.00  0.00    +0.000 A 
ATOM     16  C   UNL     1       7.574   0.514  -4.145  0.00  0.00    +0.000 A 
ENDBRANCH  10  11
ENDBRANCH   1  10
TORSDOF 2
ENDMDL
MODEL 9
REMARK VINA RESULT:    -4.609      2.368      5.153
REMARK INTER + INTRA:          -5.249
REMARK INTER:                  -5.103
REMARK INTRA:                  -0.145
REMARK UNBOUND:                -0.101
REMARK  Name = 1550473
REMARK  2 active torsions:
REMARK  status: ('A' for Active; 'I' for Inactive)
REMARK    1  A    between atoms: N_1  and  C_4
REMARK    2  A    between atoms: C_4  and  C_5
REMARK                            x       y       z     vdW  Elec       q    Type
REMARK                         _______ _______ _______ _____ _____    ______ ____
ROOT
ATOM      1  N   UNL     1      12.097  -3.142   9.478  0.00  0.00    -0.354 N 
ATOM      2  N   UNL     1      14.406  -3.280   9.362  0.00  0.00    -0.372 N 
ATOM      3  N   UNL     1      13.347  -3.992  11.269  0.00  0.00    -0.372 N 
ATOM      4  C   UNL     1      13.267  -3.471  10.040  0.00  0.00    +0.166 C 
ATOM      5  H   UNL     1      12.106  -2.723   8.555  0.00  0.00    +0.163 HD
ATOM      6  H   UNL     1      15.304  -3.522   9.758  0.00  0.00    +0.159 HD
ATOM      7  H   UNL     1      14.409  -2.904   8.422  0.00  0.00    +0.159 HD
ATOM      8  H   UNL     1      12.525  -4.156  11.835  0.00  0.00    +0.159 HD
ATOM      9  H   UNL     1      14.237  -4.230  11.688  0.00  0.00    +0.159 HD
ENDROOT
BRANCH   1  10
ATOM     10  C   UNL     1      10.797  -3.360  10.110  0.00  0.00    +0.151 C 
BRANCH  10  11
ATOM     11  C   UNL     1       9.923  -4.152   9.177  0.00  0.00    -0.028 A 
ATOM     12  C   UNL     1      10.288  -5.450   8.791  0.00  0.00    +0.005 A 
ATOM     13  C   UNL     1       8.727  -3.612   8.680  0.00  0.00    +0.005 A 
ATOM     14  C   UNL     1       9.462  -6.198   7.948  0.00  0.00    +0.000 A 
ATOM     15  C   UNL     1       7.905  -4.362   7.838  0.00  0.00    +0.000 A 
ATOM     16  C   UNL     1       8.272  -5.655   7.474  0.00  0.00    +0.000 A 
ENDBRANCH  10  11
ENDBRANCH   1  10
TORSDOF 2
ENDMDL
