MODEL 1
REMARK VINA RESULT:    -5.758      0.000      0.000
REMARK INTER + INTRA:          -6.603
REMARK INTER:                  -6.431
REMARK INTRA:                  -0.172
REMARK UNBOUND:                -0.172
REMARK  Name = 1550473
REMARK  2 active torsions:
REMARK  status: ('A' for Active; 'I' for Inactive)
REMARK    1  A    between atoms: N_1  and  C_4
REMARK    2  A    between atoms: C_4  and  C_5
REMARK                            x       y       z     vdW  Elec       q    Type
REMARK                         _______ _______ _______ _____ _____    ______ ____
ROOT
ATOM      1  N   UNL     1     -10.403   0.282  -8.178  0.00  0.00    -0.354 N 
ATOM      2  N   UNL     1     -12.450   0.844  -9.106  0.00  0.00    -0.372 N 
ATOM      3  N   UNL     1     -11.650  -1.287  -9.393  0.00  0.00    -0.372 N 
ATOM      4  C   UNL     1     -11.487  -0.060  -8.887  0.00  0.00    +0.166 C 
ATOM      5  H   UNL     1     -10.326   1.237  -7.847  0.00  0.00    +0.163 HD
ATOM      6  H   UNL     1     -13.281   0.615  -9.634  0.00  0.00    +0.159 HD
ATOM      7  H   UNL     1     -12.391   1.785  -8.735  0.00  0.00    +0.159 HD
ATOM      8  H   UNL     1     -10.957  -2.013  -9.269  0.00  0.00    +0.159 HD
ATOM      9  H   UNL     1     -12.469  -1.533  -9.935  0.00  0.00    +0.159 HD
ENDROOT
BRANCH   1  10
ATOM     10  C   UNL     1      -9.323  -0.642  -7.838  0.00  0.00    +0.151 C 
BRANCH  10  11
ATOM     11  C   UNL     1      -9.537  -1.155  -6.441  0.00  0.00    -0.028 A 
ATOM     12  C   UNL     1     -10.206  -2.369  -6.223  0.00  0.00    +0.005 A 
ATOM     13  C   UNL     1      -9.069  -0.435  -5.331  0.00  0.00    +0.005 A 
ATOM     14  C   UNL     1     -10.378  -2.861  -4.926  0.00  0.00    +0.000 A 
ATOM     15  C   UNL     1      -9.244  -0.929  -4.038  0.00  0.00    +0.000 A 
ATOM     16  C   UNL     1      -9.897  -2.143  -3.837  0.00  0.00    +0.000 A 
ENDBRANCH  10  11
ENDBRANCH   1  10
TORSDOF 2
ENDMDL
MODEL 2
REMARK VINA RESULT:    -5.171      3.324      4.047
REMARK INTER + INTRA:          -5.948
REMARK INTER:                  -5.836
REMARK INTRA:                  -0.111
REMARK UNBOUND:                -0.172
REMARK  Name = 1550473
REMARK  2 active torsions:
REMARK  status: ('A' for Active; 'I' for Inactive)
REMARK    1  A    between atoms: N_1  and  C_4
REMARK    2  A    between atoms: C_4  and  C_5
REMARK                            x       y       z     vdW  Elec       q    Type
REMARK                         _______ _______ _______ _____ _____    ______ ____
ROOT
ATOM      1  N   UNL     1      -7.199   1.746  -7.724  0.00  0.00    -0.354 N 
ATOM      2  N   UNL     1      -9.249   2.234  -8.685  0.00  0.00    -0.372 N 
ATOM      3  N   UNL     1      -8.270   0.208  -9.131  0.00  0.00    -0.372 N 
ATOM      4  C   UNL     1      -8.226   1.390  -8.508  0.00  0.00    +0.166 C 
ATOM      5  H   UNL     1      -7.212   2.669  -7.305  0.00  0.00    +0.163 HD
ATOM      6  H   UNL     1     -10.039   1.992  -9.268  0.00  0.00    +0.159 HD
ATOM      7  H   UNL     1      -9.281   3.137  -8.228  0.00  0.00    +0.159 HD
ATOM      8  H   UNL     1      -7.526  -0.471  -9.043  0.00  0.00    +0.159 HD
ATOM      9  H   UNL     1      -9.046  -0.048  -9.728  0.00  0.00    +0.159 HD
ENDROOT
BRANCH   1  10
ATOM     10  C   UNL     1      -6.061   0.880  -7.423  0.00  0.00    +0.151 C 
BRANCH  10  11
ATOM     11  C   UNL     1      -6.027   0.609  -5.944  0.00  0.00    -0.028 A 
ATOM     12  C   UNL     1      -7.219   0.498  -5.213  0.00  0.00    +0.005 A 
ATOM     13  C   UNL     1      -4.807   0.458  -5.269  0.00  0.00    +0.005 A 
ATOM     14  C   UNL     1      -7.189   0.217  -3.845  0.00  0.00    +0.000 A 
ATOM     15  C   UNL     1      -4.781   0.178  -3.903  0.00  0.00    +0.000 A 
ATOM     16  C   UNL     1      -5.972   0.056  -3.192  0.00  0.00    +0.000 A 
ENDBRANCH  10  11
ENDBRANCH   1  10
TORSDOF 2
ENDMDL
MODEL 3
REMARK VINA RESULT:    -5.158      2.394      3.666
REMARK INTER + INTRA:          -5.933
REMARK INTER:                  -5.817
REMARK INTRA:                  -0.116
REMARK UNBOUND:                -0.172
REMARK  Name = 1550473
REMARK  2 active torsions:
REMARK  status: ('A' for Active; 'I' for Inactive)
REMARK    1  A    between atoms: N_1  and  C_4
REMARK    2  A    between atoms: C_4  and  C_5
REMARK                            x       y       z     vdW  Elec       q    Type
REMARK                         _______ _______ _______ _____ _____    ______ ____
ROOT
ATOM      1  N   UNL     1     -10.617   0.618  -8.447  0.00  0.00    -0.354 N 
ATOM      2  N   UNL     1     -12.654   0.675  -9.548  0.00  0.00    -0.372 N 
ATOM      3  N   UNL     1     -11.652  -1.355  -9.173  0.00  0.00    -0.372 N 
ATOM      4  C   UNL     1     -11.627  -0.024  -9.049  0.00  0.00    +0.166 C 
ATOM      5  H   UNL     1     -10.643   1.630  -8.412  0.00  0.00    +0.163 HD
ATOM      6  H   UNL     1     -13.432   0.218 -10.005  0.00  0.00    +0.159 HD
ATOM      7  H   UNL     1     -12.699   1.683  -9.471  0.00  0.00    +0.159 HD
ATOM      8  H   UNL     1     -10.905  -1.940  -8.823  0.00  0.00    +0.159 HD
ATOM      9  H   UNL     1     -12.416  -1.830  -9.637  0.00  0.00    +0.159 HD
ENDROOT
BRANCH   1  10
ATOM     10  C   UNL     1      -9.478  -0.053  -7.823  0.00  0.00    +0.151 C 
BRANCH  10  11
ATOM     11  C   UNL     1      -8.512   0.984  -7.321  0.00  0.00    -0.028 A 
ATOM     12  C   UNL     1      -8.359   2.202  -7.999  0.00  0.00    +0.005 A 
ATOM     13  C   UNL     1      -7.750   0.757  -6.165  0.00  0.00    +0.005 A 
ATOM     14  C   UNL     1      -7.484   3.178  -7.516  0.00  0.00    +0.000 A 
ATOM     15  C   UNL     1      -6.876   1.733  -5.686  0.00  0.00    +0.000 A 
ATOM     16  C   UNL     1      -6.745   2.945  -6.361  0.00  0.00    +0.000 A 
ENDBRANCH  10  11
ENDBRANCH   1  10
TORSDOF 2
ENDMDL
MODEL 4
REMARK VINA RESULT:    -5.149      3.989      5.681
REMARK INTER + INTRA:          -5.923
REMARK INTER:                  -5.790
REMARK INTRA:                  -0.133
REMARK UNBOUND:                -0.172
REMARK  Name = 1550473
REMARK  2 active torsions:
REMARK  status: ('A' for Active; 'I' for Inactive)
REMARK    1  A    between atoms: N_1  and  C_4
REMARK    2  A    between atoms: C_4  and  C_5
REMARK                            x       y       z     vdW  Elec       q    Type
REMARK                         _______ _______ _______ _____ _____    ______ ____
ROOT
ATOM      1  N   UNL     1      -8.131   0.166  -2.492  0.00  0.00    -0.354 N 
ATOM      2  N   UNL     1      -6.403   1.607  -1.942  0.00  0.00    -0.372 N 
ATOM      3  N   UNL     1      -6.066  -0.654  -1.747  0.00  0.00    -0.372 N 
ATOM      4  C   UNL     1      -6.877   0.361  -2.063  0.00  0.00    +0.166 C 
ATOM      5  H   UNL     1      -8.704   0.979  -2.687  0.00  0.00    +0.163 HD
ATOM      6  H   UNL     1      -5.459   1.785  -1.624  0.00  0.00    +0.159 HD
ATOM      7  H   UNL     1      -6.963   2.416  -2.181  0.00  0.00    +0.159 HD
ATOM      8  H   UNL     1      -6.365  -1.618  -1.811  0.00  0.00    +0.159 HD
ATOM      9  H   UNL     1      -5.123  -0.496  -1.416  0.00  0.00    +0.159 HD
ENDROOT
BRANCH   1  10
ATOM     10  C   UNL     1      -8.725  -1.151  -2.710  0.00  0.00    +0.151 C 
BRANCH  10  11
ATOM     11  C   UNL     1      -9.196  -1.248  -4.135  0.00  0.00    -0.028 A 
ATOM     12  C   UNL     1      -8.889  -0.236  -5.057  0.00  0.00    +0.005 A 
ATOM     13  C   UNL     1      -9.945  -2.352  -4.571  0.00  0.00    +0.005 A 
ATOM     14  C   UNL     1      -9.301  -0.340  -6.388  0.00  0.00    +0.000 A 
ATOM     15  C   UNL     1     -10.354  -2.452  -5.901  0.00  0.00    +0.000 A 
ATOM     16  C   UNL     1     -10.030  -1.447  -6.809  0.00  0.00    +0.000 A 
ENDBRANCH  10  11
ENDBRANCH   1  10
TORSDOF 2
ENDMDL
MODEL 5
REMARK VINA RESULT:    -4.954      3.015      4.044
REMARK INTER + INTRA:          -5.706
REMARK INTER:                  -5.602
REMARK INTRA:                  -0.104
REMARK UNBOUND:                -0.172
REMARK  Name = 1550473
REMARK  2 active torsions:
REMARK  status: ('A' for Active; 'I' for Inactive)
REMARK    1  A    between atoms: N_1  and  C_4
REMARK    2  A    between atoms: C_4  and  C_5
REMARK                            x       y       z     vdW  Elec       q    Type
REMARK                         _______ _______ _______ _____ _____    ______ ____
ROOT
ATOM      1  N   UNL     1      -6.689   0.646  -6.889  0.00  0.00    -0.354 N 
ATOM      2  N   UNL     1      -4.514   0.681  -7.684  0.00  0.00    -0.372 N 
ATOM      3  N   UNL     1      -6.091   1.994  -8.710  0.00  0.00    -0.372 N 
ATOM      4  C   UNL     1      -5.780   1.108  -7.758  0.00  0.00    +0.166 C 
ATOM      5  H   UNL     1      -6.396  -0.047  -6.209  0.00  0.00    +0.163 HD
ATOM      6  H   UNL     1      -3.806   1.015  -8.324  0.00  0.00    +0.159 HD
ATOM      7  H   UNL     1      -4.214   0.023  -6.975  0.00  0.00    +0.159 HD
ATOM      8  H   UNL     1      -7.030   2.351  -8.823  0.00  0.00    +0.159 HD
ATOM      9  H   UNL     1      -5.399   2.331  -9.367  0.00  0.00    +0.159 HD
ENDROOT
BRANCH   1  10
ATOM     10  C   UNL     1      -8.082   1.088  -6.850  0.00  0.00    +0.151 C 
BRANCH  10  11
ATOM     11  C   UNL     1      -8.954  -0.071  -6.455  0.00  0.00    -0.028 A 
ATOM     12  C   UNL     1      -9.600  -0.842  -7.433  0.00  0.00    +0.005 A 
ATOM     13  C   UNL     1      -9.135  -0.408  -5.105  0.00  0.00    +0.005 A 
ATOM     14  C   UNL     1     -10.386  -1.938  -7.068  0.00  0.00    +0.000 A 
ATOM     15  C   UNL     1      -9.922  -1.502  -4.745  0.00  0.00    +0.000 A 
ATOM     16  C   UNL     1     -10.545  -2.268  -5.727  0.00  0.00    +0.000 A 
ENDBRANCH  10  11
ENDBRANCH   1  10
TORSDOF 2
ENDMDL
MODEL 6
REMARK VINA RESULT:    -4.934      4.781      5.764
REMARK INTER + INTRA:          -5.683
REMARK INTER:                  -5.547
REMARK INTRA:                  -0.136
REMARK UNBOUND:                -0.172
REMARK  Name = 1550473
REMARK  2 active torsions:
REMARK  status: ('A' for Active; 'I' for Inactive)
REMARK    1  A    between atoms: N_1  and  C_4
REMARK    2  A    between atoms: C_4  and  C_5
REMARK                            x       y       z     vdW  Elec       q    Type
REMARK                         _______ _______ _______ _____ _____    ______ ____
ROOT
ATOM      1  N   UNL     1      -4.919   0.564  -7.885  0.00  0.00    -0.354 N 
ATOM      2  N   UNL     1      -3.011   0.930  -9.147  0.00  0.00    -0.372 N 
ATOM      3  N   UNL     1      -4.536   2.630  -8.923  0.00  0.00    -0.372 N 
ATOM      4  C   UNL     1      -4.169   1.375  -8.644  0.00  0.00    +0.166 C 
ATOM      5  H   UNL     1      -4.600  -0.386  -7.736  0.00  0.00    +0.163 HD
ATOM      6  H   UNL     1      -2.423   1.520  -9.720  0.00  0.00    +0.159 HD
ATOM      7  H   UNL     1      -2.672  -0.005  -8.958  0.00  0.00    +0.159 HD
ATOM      8  H   UNL     1      -5.401   3.024  -8.579  0.00  0.00    +0.159 HD
ATOM      9  H   UNL     1      -3.966   3.232  -9.504  0.00  0.00    +0.159 HD
ENDROOT
BRANCH   1  10
ATOM     10  C   UNL     1      -6.170   0.968  -7.246  0.00  0.00    +0.151 C 
BRANCH  10  11
ATOM     11  C   UNL     1      -6.111   0.614  -5.785  0.00  0.00    -0.028 A 
ATOM     12  C   UNL     1      -7.289   0.374  -5.063  0.00  0.00    +0.005 A 
ATOM     13  C   UNL     1      -4.880   0.511  -5.119  0.00  0.00    +0.005 A 
ATOM     14  C   UNL     1      -7.234   0.016  -3.714  0.00  0.00    +0.000 A 
ATOM     15  C   UNL     1      -4.830   0.154  -3.772  0.00  0.00    +0.000 A 
ATOM     16  C   UNL     1      -6.007  -0.096  -3.070  0.00  0.00    +0.000 A 
ENDBRANCH  10  11
ENDBRANCH   1  10
TORSDOF 2
ENDMDL
MODEL 7
REMARK VINA RESULT:    -4.904     16.534     17.931
REMARK INTER + INTRA:          -5.649
REMARK INTER:                  -5.508
REMARK INTRA:                  -0.141
REMARK UNBOUND:                -0.172
REMARK  Name = 1550473
REMARK  2 active torsions:
REMARK  status: ('A' for Active; 'I' for Inactive)
REMARK    1  A    between atoms: N_1  and  C_4
REMARK    2  A    between atoms: C_4  and  C_5
REMARK                            x       y       z     vdW  Elec       q    Type
REMARK                         _______ _______ _______ _____ _____    ______ ____
ROOT
ATOM      1  N   UNL     1       5.893  -0.832   1.694  0.00  0.00    -0.354 N 
ATOM      2  N   UNL     1       7.493   0.190   3.020  0.00  0.00    -0.372 N 
ATOM      3  N   UNL     1       8.178  -1.190   1.320  0.00  0.00    -0.372 N 
ATOM      4  C   UNL     1       7.179  -0.619   2.001  0.00  0.00    +0.166 C 
ATOM      5  H   UNL     1       5.182  -0.393   2.267  0.00  0.00    +0.163 HD
ATOM      6  H   UNL     1       8.455   0.373   3.274  0.00  0.00    +0.159 HD
ATOM      7  H   UNL     1       6.781   0.664   3.563  0.00  0.00    +0.159 HD
ATOM      8  H   UNL     1       8.009  -1.816   0.544  0.00  0.00    +0.159 HD
ATOM      9  H   UNL     1       9.147  -1.029   1.566  0.00  0.00    +0.159 HD
ENDROOT
BRANCH   1  10
ATOM     10  C   UNL     1       5.446  -1.652   0.569  0.00  0.00    +0.151 C 
BRANCH  10  11
ATOM     11  C   UNL     1       4.450  -2.664   1.065  0.00  0.00    -0.028 A 
ATOM     12  C   UNL     1       4.254  -2.855   2.441  0.00  0.00    +0.005 A 
ATOM     13  C   UNL     1       3.695  -3.431   0.164  0.00  0.00    +0.005 A 
ATOM     14  C   UNL     1       3.308  -3.774   2.901  0.00  0.00    +0.000 A 
ATOM     15  C   UNL     1       2.752  -4.348   0.628  0.00  0.00    +0.000 A 
ATOM     16  C   UNL     1       2.557  -4.517   1.997  0.00  0.00    +0.000 A 
ENDBRANCH  10  11
ENDBRANCH   1  10
TORSDOF 2
ENDMDL
MODEL 8
REMARK VINA RESULT:    -4.836      4.297      5.887
REMARK INTER + INTRA:          -5.573
REMARK INTER:                  -5.474
REMARK INTRA:                  -0.100
REMARK UNBOUND:                -0.172
REMARK  Name = 1550473
REMARK  2 active torsions:
REMARK  status: ('A' for Active; 'I' for Inactive)
REMARK    1  A    between atoms: N_1  and  C_4
REMARK    2  A    between atoms: C_4  and  C_5
REMARK                            x       y       z     vdW  Elec       q    Type
REMARK                         _______ _______ _______ _____ _____    ______ ____
ROOT
ATOM      1  N   UNL     1      -7.574   1.302  -2.826  0.00  0.00    -0.354 N 
ATOM      2  N   UNL     1      -7.119   2.979  -1.295  0.00  0.00    -0.372 N 
ATOM      3  N   UNL     1      -6.745   0.796  -0.693  0.00  0.00    -0.372 N 
ATOM      4  C   UNL     1      -7.149   1.679  -1.613  0.00  0.00    +0.166 C 
ATOM      5  H   UNL     1      -7.896   2.018  -3.467  0.00  0.00    +0.163 HD
ATOM      6  H   UNL     1      -6.800   3.294  -0.388  0.00  0.00    +0.159 HD
ATOM      7  H   UNL     1      -7.397   3.695  -1.954  0.00  0.00    +0.159 HD
ATOM      8  H   UNL     1      -6.749  -0.200  -0.869  0.00  0.00    +0.159 HD
ATOM      9  H   UNL     1      -6.433   1.091   0.224  0.00  0.00    +0.159 HD
ENDROOT
BRANCH   1  10
ATOM     10  C   UNL     1      -7.595  -0.084  -3.291  0.00  0.00    +0.151 C 
BRANCH  10  11
ATOM     11  C   UNL     1      -8.211  -0.133  -4.662  0.00  0.00    -0.028 A 
ATOM     12  C   UNL     1      -9.371  -0.886  -4.895  0.00  0.00    +0.005 A 
ATOM     13  C   UNL     1      -7.642   0.576  -5.731  0.00  0.00    +0.005 A 
ATOM     14  C   UNL     1      -9.960  -0.908  -6.161  0.00  0.00    +0.000 A 
ATOM     15  C   UNL     1      -8.233   0.551  -6.994  0.00  0.00    +0.000 A 
ATOM     16  C   UNL     1      -9.393  -0.189  -7.208  0.00  0.00    +0.000 A 
ENDBRANCH  10  11
ENDBRANCH   1  10
TORSDOF 2
ENDMDL
MODEL 9
REMARK VINA RESULT:    -4.825      5.453      6.961
REMARK INTER + INTRA:          -5.561
REMARK INTER:                  -5.428
REMARK INTRA:                  -0.133
REMARK UNBOUND:                -0.172
REMARK  Name = 1550473
REMARK  2 active torsions:
REMARK  status: ('A' for Active; 'I' for Inactive)
REMARK    1  A    between atoms: N_1  and  C_4
REMARK    2  A    between atoms: C_4  and  C_5
REMARK                            x       y       z     vdW  Elec       q    Type
REMARK                         _______ _______ _______ _____ _____    ______ ____
ROOT
ATOM      1  N   UNL     1      -7.179  -0.154  -1.420  0.00  0.00    -0.354 N 
ATOM      2  N   UNL     1      -6.688   0.966   0.546  0.00  0.00    -0.372 N 
ATOM      3  N   UNL     1      -8.162   1.917  -0.933  0.00  0.00    -0.372 N 
ATOM      4  C   UNL     1      -7.348   0.904  -0.616  0.00  0.00    +0.166 C 
ATOM      5  H   UNL     1      -6.525  -0.874  -1.137  0.00  0.00    +0.163 HD
ATOM      6  H   UNL     1      -6.797   1.751   1.175  0.00  0.00    +0.159 HD
ATOM      7  H   UNL     1      -6.069   0.223   0.848  0.00  0.00    +0.159 HD
ATOM      8  H   UNL     1      -8.684   1.934  -1.799  0.00  0.00    +0.159 HD
ATOM      9  H   UNL     1      -8.276   2.716  -0.323  0.00  0.00    +0.159 HD
ENDROOT
BRANCH   1  10
ATOM     10  C   UNL     1      -7.891  -0.344  -2.682  0.00  0.00    +0.151 C 
BRANCH  10  11
ATOM     11  C   UNL     1      -6.977   0.015  -3.821  0.00  0.00    -0.028 A 
ATOM     12  C   UNL     1      -5.586   0.029  -3.640  0.00  0.00    +0.005 A 
ATOM     13  C   UNL     1      -7.495   0.336  -5.085  0.00  0.00    +0.005 A 
ATOM     14  C   UNL     1      -4.735   0.333  -4.706  0.00  0.00    +0.000 A 
ATOM     15  C   UNL     1      -6.642   0.639  -6.146  0.00  0.00    +0.000 A 
ATOM     16  C   UNL     1      -5.263   0.635  -5.957  0.00  0.00    +0.000 A 
ENDBRANCH  10  11
ENDBRANCH   1  10
TORSDOF 2
ENDMDL
