MODEL 1
REMARK VINA RESULT:    -5.121      0.000      0.000
REMARK INTER + INTRA:          -5.889
REMARK INTER:                  -5.720
REMARK INTRA:                  -0.169
REMARK UNBOUND:                -0.169
REMARK  Name = 1550473
REMARK  2 active torsions:
REMARK  status: ('A' for Active; 'I' for Inactive)
REMARK    1  A    between atoms: N_1  and  C_4
REMARK    2  A    between atoms: C_4  and  C_5
REMARK                            x       y       z     vdW  Elec       q    Type
REMARK                         _______ _______ _______ _____ _____    ______ ____
ROOT
ATOM      1  N   UNL     1      14.060   0.515  -0.045  0.00  0.00    -0.354 N 
ATOM      2  N   UNL     1      12.772   1.976   1.208  0.00  0.00    -0.372 N 
ATOM      3  N   UNL     1      14.262   0.604   2.288  0.00  0.00    -0.372 N 
ATOM      4  C   UNL     1      13.708   1.021   1.144  0.00  0.00    +0.166 C 
ATOM      5  H   UNL     1      13.580   0.852  -0.873  0.00  0.00    +0.163 HD
ATOM      6  H   UNL     1      12.488   2.379   2.091  0.00  0.00    +0.159 HD
ATOM      7  H   UNL     1      12.327   2.343   0.376  0.00  0.00    +0.159 HD
ATOM      8  H   UNL     1      14.969  -0.118   2.308  0.00  0.00    +0.159 HD
ATOM      9  H   UNL     1      13.983   0.987   3.182  0.00  0.00    +0.159 HD
ENDROOT
BRANCH   1  10
ATOM     10  C   UNL     1      15.105  -0.490  -0.230  0.00  0.00    +0.151 C 
BRANCH  10  11
ATOM     11  C   UNL     1      14.473  -1.853  -0.284  0.00  0.00    -0.028 A 
ATOM     12  C   UNL     1      13.785  -2.273  -1.432  0.00  0.00    +0.005 A 
ATOM     13  C   UNL     1      14.563  -2.732   0.806  0.00  0.00    +0.005 A 
ATOM     14  C   UNL     1      13.223  -3.550  -1.495  0.00  0.00    +0.000 A 
ATOM     15  C   UNL     1      14.000  -4.006   0.740  0.00  0.00    +0.000 A 
ATOM     16  C   UNL     1      13.332  -4.416  -0.412  0.00  0.00    +0.000 A 
ENDBRANCH  10  11
ENDBRANCH   1  10
TORSDOF 2
ENDMDL
MODEL 2
REMARK VINA RESULT:    -5.010     21.037     22.133
REMARK INTER + INTRA:          -5.765
REMARK INTER:                  -5.608
REMARK INTRA:                  -0.157
REMARK UNBOUND:                -0.169
REMARK  Name = 1550473
REMARK  2 active torsions:
REMARK  status: ('A' for Active; 'I' for Inactive)
REMARK    1  A    between atoms: N_1  and  C_4
REMARK    2  A    between atoms: C_4  and  C_5
REMARK                            x       y       z     vdW  Elec       q    Type
REMARK                         _______ _______ _______ _____ _____    ______ ____
ROOT
ATOM      1  N   UNL     1      -5.296  -8.384   2.620  0.00  0.00    -0.354 N 
ATOM      2  N   UNL     1      -3.928  -6.806   1.620  0.00  0.00    -0.372 N 
ATOM      3  N   UNL     1      -6.197  -6.465   1.622  0.00  0.00    -0.372 N 
ATOM      4  C   UNL     1      -5.152  -7.227   1.960  0.00  0.00    +0.166 C 
ATOM      5  H   UNL     1      -4.466  -8.930   2.821  0.00  0.00    +0.163 HD
ATOM      6  H   UNL     1      -3.788  -5.936   1.124  0.00  0.00    +0.159 HD
ATOM      7  H   UNL     1      -3.097  -7.332   1.861  0.00  0.00    +0.159 HD
ATOM      8  H   UNL     1      -7.147  -6.730   1.844  0.00  0.00    +0.159 HD
ATOM      9  H   UNL     1      -6.078  -5.596   1.115  0.00  0.00    +0.159 HD
ENDROOT
BRANCH   1  10
ATOM     10  C   UNL     1      -6.580  -8.906   3.084  0.00  0.00    +0.151 C 
BRANCH  10  11
ATOM     11  C   UNL     1      -6.915 -10.148   2.306  0.00  0.00    -0.028 A 
ATOM     12  C   UNL     1      -6.137 -11.307   2.444  0.00  0.00    +0.005 A 
ATOM     13  C   UNL     1      -8.014 -10.176   1.434  0.00  0.00    +0.005 A 
ATOM     14  C   UNL     1      -6.465 -12.470   1.745  0.00  0.00    +0.000 A 
ATOM     15  C   UNL     1      -8.338 -11.339   0.736  0.00  0.00    +0.000 A 
ATOM     16  C   UNL     1      -7.565 -12.487   0.894  0.00  0.00    +0.000 A 
ENDBRANCH  10  11
ENDBRANCH   1  10
TORSDOF 2
ENDMDL
MODEL 3
REMARK VINA RESULT:    -5.007     20.548     21.641
REMARK INTER + INTRA:          -5.762
REMARK INTER:                  -5.663
REMARK INTRA:                  -0.099
REMARK UNBOUND:                -0.169
REMARK  Name = 1550473
REMARK  2 active torsions:
REMARK  status: ('A' for Active; 'I' for Inactive)
REMARK    1  A    between atoms: N_1  and  C_4
REMARK    2  A    between atoms: C_4  and  C_5
REMARK                            x       y       z     vdW  Elec       q    Type
REMARK                         _______ _______ _______ _____ _____    ______ ____
ROOT
ATOM      1  N   UNL     1      -0.183   2.262 -13.619  0.00  0.00    -0.354 N 
ATOM      2  N   UNL     1       0.340   2.116 -11.367  0.00  0.00    -0.372 N 
ATOM      3  N   UNL     1      -0.226   4.159 -12.244  0.00  0.00    -0.372 N 
ATOM      4  C   UNL     1      -0.027   2.850 -12.425  0.00  0.00    +0.166 C 
ATOM      5  H   UNL     1       0.013   1.270 -13.696  0.00  0.00    +0.163 HD
ATOM      6  H   UNL     1       0.462   2.531 -10.453  0.00  0.00    +0.159 HD
ATOM      7  H   UNL     1       0.490   1.117 -11.438  0.00  0.00    +0.159 HD
ATOM      8  H   UNL     1      -0.499   4.769 -13.003  0.00  0.00    +0.159 HD
ATOM      9  H   UNL     1      -0.098   4.595 -11.340  0.00  0.00    +0.159 HD
ENDROOT
BRANCH   1  10
ATOM     10  C   UNL     1      -0.632   2.961 -14.822  0.00  0.00    +0.151 C 
BRANCH  10  11
ATOM     11  C   UNL     1      -1.096   1.949 -15.833  0.00  0.00    -0.028 A 
ATOM     12  C   UNL     1      -0.209   0.986 -16.336  0.00  0.00    +0.005 A 
ATOM     13  C   UNL     1      -2.424   1.945 -16.288  0.00  0.00    +0.005 A 
ATOM     14  C   UNL     1      -0.647   0.028 -17.253  0.00  0.00    +0.000 A 
ATOM     15  C   UNL     1      -2.857   0.986 -17.204  0.00  0.00    +0.000 A 
ATOM     16  C   UNL     1      -1.970   0.027 -17.684  0.00  0.00    +0.000 A 
ENDBRANCH  10  11
ENDBRANCH   1  10
TORSDOF 2
ENDMDL
MODEL 4
REMARK VINA RESULT:    -4.964     21.479     22.560
REMARK INTER + INTRA:          -5.713
REMARK INTER:                  -5.616
REMARK INTRA:                  -0.097
REMARK UNBOUND:                -0.169
REMARK  Name = 1550473
REMARK  2 active torsions:
REMARK  status: ('A' for Active; 'I' for Inactive)
REMARK    1  A    between atoms: N_1  and  C_4
REMARK    2  A    between atoms: C_4  and  C_5
REMARK                            x       y       z     vdW  Elec       q    Type
REMARK                         _______ _______ _______ _____ _____    ______ ____
ROOT
ATOM      1  N   UNL     1      -5.816 -11.756   2.808  0.00  0.00    -0.354 N 
ATOM      2  N   UNL     1      -5.733 -13.824   3.849  0.00  0.00    -0.372 N 
ATOM      3  N   UNL     1      -6.172 -13.732   1.599  0.00  0.00    -0.372 N 
ATOM      4  C   UNL     1      -5.908 -13.091   2.743  0.00  0.00    +0.166 C 
ATOM      5  H   UNL     1      -5.644 -11.330   3.712  0.00  0.00    +0.163 HD
ATOM      6  H   UNL     1      -5.793 -14.833   3.830  0.00  0.00    +0.159 HD
ATOM      7  H   UNL     1      -5.515 -13.397   4.741  0.00  0.00    +0.159 HD
ATOM      8  H   UNL     1      -6.321 -13.236   0.730  0.00  0.00    +0.159 HD
ATOM      9  H   UNL     1      -6.248 -14.741   1.561  0.00  0.00    +0.159 HD
ENDROOT
BRANCH   1  10
ATOM     10  C   UNL     1      -5.937 -10.870   1.652  0.00  0.00    +0.151 C 
BRANCH  10  11
ATOM     11  C   UNL     1      -6.125  -9.458   2.133  0.00  0.00    -0.028 A 
ATOM     12  C   UNL     1      -5.080  -8.528   2.034  0.00  0.00    +0.005 A 
ATOM     13  C   UNL     1      -7.347  -9.042   2.683  0.00  0.00    +0.005 A 
ATOM     14  C   UNL     1      -5.263  -7.207   2.452  0.00  0.00    +0.000 A 
ATOM     15  C   UNL     1      -7.525  -7.723   3.101  0.00  0.00    +0.000 A 
ATOM     16  C   UNL     1      -6.484  -6.806   2.983  0.00  0.00    +0.000 A 
ENDBRANCH  10  11
ENDBRANCH   1  10
TORSDOF 2
ENDMDL
MODEL 5
REMARK VINA RESULT:    -4.952     21.561     22.630
REMARK INTER + INTRA:          -5.700
REMARK INTER:                  -5.562
REMARK INTRA:                  -0.139
REMARK UNBOUND:                -0.169
REMARK  Name = 1550473
REMARK  2 active torsions:
REMARK  status: ('A' for Active; 'I' for Inactive)
REMARK    1  A    between atoms: N_1  and  C_4
REMARK    2  A    between atoms: C_4  and  C_5
REMARK                            x       y       z     vdW  Elec       q    Type
REMARK                         _______ _______ _______ _____ _____    ______ ____
ROOT
ATOM      1  N   UNL     1      -6.305  -8.325   2.895  0.00  0.00    -0.354 N 
ATOM      2  N   UNL     1      -6.975  -6.179   3.448  0.00  0.00    -0.372 N 
ATOM      3  N   UNL     1      -5.805  -6.508   1.502  0.00  0.00    -0.372 N 
ATOM      4  C   UNL     1      -6.356  -7.017   2.609  0.00  0.00    +0.166 C 
ATOM      5  H   UNL     1      -6.715  -8.644   3.765  0.00  0.00    +0.163 HD
ATOM      6  H   UNL     1      -7.033  -5.187   3.258  0.00  0.00    +0.159 HD
ATOM      7  H   UNL     1      -7.425  -6.507   4.294  0.00  0.00    +0.159 HD
ATOM      8  H   UNL     1      -5.317  -7.086   0.832  0.00  0.00    +0.159 HD
ATOM      9  H   UNL     1      -5.842  -5.516   1.300  0.00  0.00    +0.159 HD
ENDROOT
BRANCH   1  10
ATOM     10  C   UNL     1      -5.701  -9.330   2.021  0.00  0.00    +0.151 C 
BRANCH  10  11
ATOM     11  C   UNL     1      -6.787 -10.195   1.444  0.00  0.00    -0.028 A 
ATOM     12  C   UNL     1      -6.851 -11.561   1.758  0.00  0.00    +0.005 A 
ATOM     13  C   UNL     1      -7.757  -9.655   0.587  0.00  0.00    +0.005 A 
ATOM     14  C   UNL     1      -7.877 -12.359   1.246  0.00  0.00    +0.000 A 
ATOM     15  C   UNL     1      -8.780 -10.455   0.077  0.00  0.00    +0.000 A 
ATOM     16  C   UNL     1      -8.841 -11.806   0.409  0.00  0.00    +0.000 A 
ENDBRANCH  10  11
ENDBRANCH   1  10
TORSDOF 2
ENDMDL
MODEL 6
REMARK VINA RESULT:    -4.839     16.637     18.181
REMARK INTER + INTRA:          -5.573
REMARK INTER:                  -5.463
REMARK INTRA:                  -0.110
REMARK UNBOUND:                -0.169
REMARK  Name = 1550473
REMARK  2 active torsions:
REMARK  status: ('A' for Active; 'I' for Inactive)
REMARK    1  A    between atoms: N_1  and  C_4
REMARK    2  A    between atoms: C_4  and  C_5
REMARK                            x       y       z     vdW  Elec       q    Type
REMARK                         _______ _______ _______ _____ _____    ______ ____
ROOT
ATOM      1  N   UNL     1      -1.975   9.139  -1.686  0.00  0.00    -0.354 N 
ATOM      2  N   UNL     1      -4.032  10.180  -1.903  0.00  0.00    -0.372 N 
ATOM      3  N   UNL     1      -2.877  10.407   0.066  0.00  0.00    -0.372 N 
ATOM      4  C   UNL     1      -2.947   9.902  -1.170  0.00  0.00    +0.166 C 
ATOM      5  H   UNL     1      -2.102   8.762  -2.618  0.00  0.00    +0.163 HD
ATOM      6  H   UNL     1      -4.781  10.756  -1.542  0.00  0.00    +0.159 HD
ATOM      7  H   UNL     1      -4.136   9.839  -2.851  0.00  0.00    +0.159 HD
ATOM      8  H   UNL     1      -2.088  10.230   0.673  0.00  0.00    +0.159 HD
ATOM      9  H   UNL     1      -3.621  10.976   0.450  0.00  0.00    +0.159 HD
ENDROOT
BRANCH   1  10
ATOM     10  C   UNL     1      -0.729   8.822  -0.990  0.00  0.00    +0.151 C 
BRANCH  10  11
ATOM     11  C   UNL     1       0.401   8.817  -1.983  0.00  0.00    -0.028 A 
ATOM     12  C   UNL     1       1.041  10.013  -2.339  0.00  0.00    +0.005 A 
ATOM     13  C   UNL     1       0.839   7.619  -2.568  0.00  0.00    +0.005 A 
ATOM     14  C   UNL     1       2.109  10.006  -3.239  0.00  0.00    +0.000 A 
ATOM     15  C   UNL     1       1.906   7.616  -3.466  0.00  0.00    +0.000 A 
ATOM     16  C   UNL     1       2.542   8.809  -3.800  0.00  0.00    +0.000 A 
ENDBRANCH  10  11
ENDBRANCH   1  10
TORSDOF 2
ENDMDL
MODEL 7
REMARK VINA RESULT:    -4.710     18.370     20.240
REMARK INTER + INTRA:          -5.429
REMARK INTER:                  -5.318
REMARK INTRA:                  -0.112
REMARK UNBOUND:                -0.169
REMARK  Name = 1550473
REMARK  2 active torsions:
REMARK  status: ('A' for Active; 'I' for Inactive)
REMARK    1  A    between atoms: N_1  and  C_4
REMARK    2  A    between atoms: C_4  and  C_5
REMARK                            x       y       z     vdW  Elec       q    Type
REMARK                         _______ _______ _______ _____ _____    ______ ____
ROOT
ATOM      1  N   UNL     1      -1.002   8.678  -2.334  0.00  0.00    -0.354 N 
ATOM      2  N   UNL     1       0.596   7.007  -2.205  0.00  0.00    -0.372 N 
ATOM      3  N   UNL     1       0.687   8.497  -3.948  0.00  0.00    -0.372 N 
ATOM      4  C   UNL     1       0.084   8.073  -2.832  0.00  0.00    +0.166 C 
ATOM      5  H   UNL     1      -1.431   8.289  -1.502  0.00  0.00    +0.163 HD
ATOM      6  H   UNL     1       1.417   6.532  -2.556  0.00  0.00    +0.159 HD
ATOM      7  H   UNL     1       0.193   6.648  -1.348  0.00  0.00    +0.159 HD
ATOM      8  H   UNL     1       0.347   9.292  -4.472  0.00  0.00    +0.159 HD
ATOM      9  H   UNL     1       1.503   8.027  -4.321  0.00  0.00    +0.159 HD
ENDROOT
BRANCH   1  10
ATOM     10  C   UNL     1      -1.607   9.877  -2.911  0.00  0.00    +0.151 C 
BRANCH  10  11
ATOM     11  C   UNL     1      -2.866  10.205  -2.156  0.00  0.00    -0.028 A 
ATOM     12  C   UNL     1      -2.930  10.026  -0.767  0.00  0.00    +0.005 A 
ATOM     13  C   UNL     1      -3.997  10.699  -2.824  0.00  0.00    +0.005 A 
ATOM     14  C   UNL     1      -4.089  10.358  -0.061  0.00  0.00    +0.000 A 
ATOM     15  C   UNL     1      -5.152  11.028  -2.116  0.00  0.00    +0.000 A 
ATOM     16  C   UNL     1      -5.197  10.860  -0.734  0.00  0.00    +0.000 A 
ENDBRANCH  10  11
ENDBRANCH   1  10
TORSDOF 2
ENDMDL
MODEL 8
REMARK VINA RESULT:    -4.695     17.716     19.421
REMARK INTER + INTRA:          -5.413
REMARK INTER:                  -5.365
REMARK INTRA:                  -0.048
REMARK UNBOUND:                -0.169
REMARK  Name = 1550473
REMARK  2 active torsions:
REMARK  status: ('A' for Active; 'I' for Inactive)
REMARK    1  A    between atoms: N_1  and  C_4
REMARK    2  A    between atoms: C_4  and  C_5
REMARK                            x       y       z     vdW  Elec       q    Type
REMARK                         _______ _______ _______ _____ _____    ______ ____
ROOT
ATOM      1  N   UNL     1      -3.475  10.001  -1.544  0.00  0.00    -0.354 N 
ATOM      2  N   UNL     1      -4.441  10.371   0.528  0.00  0.00    -0.372 N 
ATOM      3  N   UNL     1      -2.995  11.939  -0.316  0.00  0.00    -0.372 N 
ATOM      4  C   UNL     1      -3.629  10.770  -0.457  0.00  0.00    +0.166 C 
ATOM      5  H   UNL     1      -3.960   9.112  -1.577  0.00  0.00    +0.163 HD
ATOM      6  H   UNL     1      -4.580  10.932   1.358  0.00  0.00    +0.159 HD
ATOM      7  H   UNL     1      -4.961   9.503   0.472  0.00  0.00    +0.159 HD
ATOM      8  H   UNL     1      -2.363  12.294  -1.021  0.00  0.00    +0.159 HD
ATOM      9  H   UNL     1      -3.112  12.509   0.513  0.00  0.00    +0.159 HD
ENDROOT
BRANCH   1  10
ATOM     10  C   UNL     1      -2.655  10.370  -2.697  0.00  0.00    +0.151 C 
BRANCH  10  11
ATOM     11  C   UNL     1      -1.374   9.583  -2.661  0.00  0.00    -0.028 A 
ATOM     12  C   UNL     1      -1.030   8.835  -1.526  0.00  0.00    +0.005 A 
ATOM     13  C   UNL     1      -0.503   9.577  -3.761  0.00  0.00    +0.005 A 
ATOM     14  C   UNL     1       0.145   8.079  -1.503  0.00  0.00    +0.000 A 
ATOM     15  C   UNL     1       0.669   8.822  -3.734  0.00  0.00    +0.000 A 
ATOM     16  C   UNL     1       0.992   8.072  -2.606  0.00  0.00    +0.000 A 
ENDBRANCH  10  11
ENDBRANCH   1  10
TORSDOF 2
ENDMDL
MODEL 9
REMARK VINA RESULT:    -4.232      1.443      2.178
REMARK INTER + INTRA:          -4.896
REMARK INTER:                  -4.828
REMARK INTRA:                  -0.068
REMARK UNBOUND:                -0.169
REMARK  Name = 1550473
REMARK  2 active torsions:
REMARK  status: ('A' for Active; 'I' for Inactive)
REMARK    1  A    between atoms: N_1  and  C_4
REMARK    2  A    between atoms: C_4  and  C_5
REMARK                            x       y       z     vdW  Elec       q    Type
REMARK                         _______ _______ _______ _____ _____    ______ ____
ROOT
ATOM      1  N   UNL     1      14.827   1.459   0.619  0.00  0.00    -0.354 N 
ATOM      2  N   UNL     1      14.382   3.267   1.996  0.00  0.00    -0.372 N 
ATOM      3  N   UNL     1      12.624   2.091   1.107  0.00  0.00    -0.372 N 
ATOM      4  C   UNL     1      13.945   2.260   1.231  0.00  0.00    +0.166 C 
ATOM      5  H   UNL     1      15.815   1.659   0.729  0.00  0.00    +0.163 HD
ATOM      6  H   UNL     1      13.740   3.886   2.473  0.00  0.00    +0.159 HD
ATOM      7  H   UNL     1      15.370   3.436   2.141  0.00  0.00    +0.159 HD
ATOM      8  H   UNL     1      12.229   1.353   0.539  0.00  0.00    +0.159 HD
ATOM      9  H   UNL     1      11.965   2.707   1.567  0.00  0.00    +0.159 HD
ENDROOT
BRANCH   1  10
ATOM     10  C   UNL     1      14.455   0.302  -0.193  0.00  0.00    +0.151 C 
BRANCH  10  11
ATOM     11  C   UNL     1      14.663  -0.951   0.613  0.00  0.00    -0.028 A 
ATOM     12  C   UNL     1      14.353  -2.206   0.071  0.00  0.00    +0.005 A 
ATOM     13  C   UNL     1      15.175  -0.889   1.918  0.00  0.00    +0.005 A 
ATOM     14  C   UNL     1      14.574  -3.372   0.808  0.00  0.00    +0.000 A 
ATOM     15  C   UNL     1      15.394  -2.055   2.652  0.00  0.00    +0.000 A 
ATOM     16  C   UNL     1      15.095  -3.297   2.095  0.00  0.00    +0.000 A 
ENDBRANCH  10  11
ENDBRANCH   1  10
TORSDOF 2
ENDMDL
