MODEL 1
REMARK VINA RESULT:    -4.935      0.000      0.000
REMARK INTER + INTRA:          -5.619
REMARK INTER:                  -5.512
REMARK INTRA:                  -0.107
REMARK UNBOUND:                -0.107
REMARK  Name = 1550473
REMARK  2 active torsions:
REMARK  status: ('A' for Active; 'I' for Inactive)
REMARK    1  A    between atoms: N_1  and  C_4
REMARK    2  A    between atoms: C_4  and  C_5
REMARK                            x       y       z     vdW  Elec       q    Type
REMARK                         _______ _______ _______ _____ _____    ______ ____
ROOT
ATOM      1  N   UNL     1      -8.606  15.481  12.163  0.00  0.00    -0.354 N 
ATOM      2  N   UNL     1     -10.454  16.409  13.206  0.00  0.00    -0.372 N 
ATOM      3  N   UNL     1      -8.514  16.157  14.405  0.00  0.00    -0.372 N 
ATOM      4  C   UNL     1      -9.178  16.009  13.253  0.00  0.00    +0.166 C 
ATOM      5  H   UNL     1      -9.172  15.368  11.330  0.00  0.00    +0.163 HD
ATOM      6  H   UNL     1     -10.911  16.815  14.011  0.00  0.00    +0.159 HD
ATOM      7  H   UNL     1     -11.004  16.337  12.358  0.00  0.00    +0.159 HD
ATOM      8  H   UNL     1      -7.550  15.870  14.508  0.00  0.00    +0.159 HD
ATOM      9  H   UNL     1      -8.958  16.550  15.226  0.00  0.00    +0.159 HD
ENDROOT
BRANCH   1  10
ATOM     10  C   UNL     1      -7.206  15.064  12.094  0.00  0.00    +0.151 C 
BRANCH  10  11
ATOM     11  C   UNL     1      -7.111  13.793  11.296  0.00  0.00    -0.028 A 
ATOM     12  C   UNL     1      -7.460  13.777   9.938  0.00  0.00    +0.005 A 
ATOM     13  C   UNL     1      -6.667  12.602  11.891  0.00  0.00    +0.005 A 
ATOM     14  C   UNL     1      -7.343  12.604   9.189  0.00  0.00    +0.000 A 
ATOM     15  C   UNL     1      -6.553  11.432  11.140  0.00  0.00    +0.000 A 
ATOM     16  C   UNL     1      -6.888  11.434   9.788  0.00  0.00    +0.000 A 
ENDBRANCH  10  11
ENDBRANCH   1  10
TORSDOF 2
ENDMDL
MODEL 2
REMARK VINA RESULT:    -4.631     62.481     64.101
REMARK INTER + INTRA:          -5.280
REMARK INTER:                  -5.188
REMARK INTRA:                  -0.092
REMARK UNBOUND:                -0.107
REMARK  Name = 1550473
REMARK  2 active torsions:
REMARK  status: ('A' for Active; 'I' for Inactive)
REMARK    1  A    between atoms: N_1  and  C_4
REMARK    2  A    between atoms: C_4  and  C_5
REMARK                            x       y       z     vdW  Elec       q    Type
REMARK                         _______ _______ _______ _____ _____    ______ ____
ROOT
ATOM      1  N   UNL     1      13.350 -25.473 -32.866  0.00  0.00    -0.354 N 
ATOM      2  N   UNL     1      11.400 -25.537 -31.619  0.00  0.00    -0.372 N 
ATOM      3  N   UNL     1      11.254 -25.266 -33.892  0.00  0.00    -0.372 N 
ATOM      4  C   UNL     1      12.013 -25.424 -32.803  0.00  0.00    +0.166 C 
ATOM      5  H   UNL     1      13.870 -25.565 -32.001  0.00  0.00    +0.163 HD
ATOM      6  H   UNL     1      10.392 -25.508 -31.540  0.00  0.00    +0.159 HD
ATOM      7  H   UNL     1      11.920 -25.675 -30.761  0.00  0.00    +0.159 HD
ATOM      8  H   UNL     1      11.655 -25.168 -34.815  0.00  0.00    +0.159 HD
ATOM      9  H   UNL     1      10.244 -25.222 -33.833  0.00  0.00    +0.159 HD
ENDROOT
BRANCH   1  10
ATOM     10  C   UNL     1      14.113 -25.414 -34.112  0.00  0.00    +0.151 C 
BRANCH  10  11
ATOM     11  C   UNL     1      15.581 -25.475 -33.793  0.00  0.00    -0.028 A 
ATOM     12  C   UNL     1      16.343 -24.300 -33.719  0.00  0.00    +0.005 A 
ATOM     13  C   UNL     1      16.215 -26.705 -33.558  0.00  0.00    +0.005 A 
ATOM     14  C   UNL     1      17.700 -24.354 -33.393  0.00  0.00    +0.000 A 
ATOM     15  C   UNL     1      17.571 -26.755 -33.234  0.00  0.00    +0.000 A 
ATOM     16  C   UNL     1      18.312 -25.579 -33.149  0.00  0.00    +0.000 A 
ENDBRANCH  10  11
ENDBRANCH   1  10
TORSDOF 2
ENDMDL
MODEL 3
REMARK VINA RESULT:    -4.584     39.552     41.485
REMARK INTER + INTRA:          -5.227
REMARK INTER:                  -5.110
REMARK INTRA:                  -0.116
REMARK UNBOUND:                -0.107
REMARK  Name = 1550473
REMARK  2 active torsions:
REMARK  status: ('A' for Active; 'I' for Inactive)
REMARK    1  A    between atoms: N_1  and  C_4
REMARK    2  A    between atoms: C_4  and  C_5
REMARK                            x       y       z     vdW  Elec       q    Type
REMARK                         _______ _______ _______ _____ _____    ______ ____
ROOT
ATOM      1  N   UNL     1       9.544 -13.115 -11.914  0.00  0.00    -0.354 N 
ATOM      2  N   UNL     1       8.022 -12.107 -10.488  0.00  0.00    -0.372 N 
ATOM      3  N   UNL     1       8.131 -11.404 -12.670  0.00  0.00    -0.372 N 
ATOM      4  C   UNL     1       8.575 -12.214 -11.703  0.00  0.00    +0.166 C 
ATOM      5  H   UNL     1       9.857 -13.678 -11.132  0.00  0.00    +0.163 HD
ATOM      6  H   UNL     1       7.288 -11.438 -10.300  0.00  0.00    +0.159 HD
ATOM      7  H   UNL     1       8.305 -12.702  -9.720  0.00  0.00    +0.159 HD
ATOM      8  H   UNL     1       8.511 -11.431 -13.607  0.00  0.00    +0.159 HD
ATOM      9  H   UNL     1       7.405 -10.721 -12.498  0.00  0.00    +0.159 HD
ENDROOT
BRANCH   1  10
ATOM     10  C   UNL     1      10.174 -13.348 -13.212  0.00  0.00    +0.151 C 
BRANCH  10  11
ATOM     11  C   UNL     1      11.239 -14.399 -13.060  0.00  0.00    -0.028 A 
ATOM     12  C   UNL     1      11.574 -15.235 -14.135  0.00  0.00    +0.005 A 
ATOM     13  C   UNL     1      11.921 -14.560 -11.844  0.00  0.00    +0.005 A 
ATOM     14  C   UNL     1      12.584 -16.191 -14.003  0.00  0.00    +0.000 A 
ATOM     15  C   UNL     1      12.928 -15.516 -11.715  0.00  0.00    +0.000 A 
ATOM     16  C   UNL     1      13.261 -16.330 -12.796  0.00  0.00    +0.000 A 
ENDBRANCH  10  11
ENDBRANCH   1  10
TORSDOF 2
ENDMDL
MODEL 4
REMARK VINA RESULT:    -4.408     61.335     63.273
REMARK INTER + INTRA:          -5.030
REMARK INTER:                  -4.914
REMARK INTRA:                  -0.116
REMARK UNBOUND:                -0.107
REMARK  Name = 1550473
REMARK  2 active torsions:
REMARK  status: ('A' for Active; 'I' for Inactive)
REMARK    1  A    between atoms: N_1  and  C_4
REMARK    2  A    between atoms: C_4  and  C_5
REMARK                            x       y       z     vdW  Elec       q    Type
REMARK                         _______ _______ _______ _____ _____    ______ ____
ROOT
ATOM      1  N   UNL     1      14.730 -21.020 -34.109  0.00  0.00    -0.354 N 
ATOM      2  N   UNL     1      13.301 -19.207 -33.915  0.00  0.00    -0.372 N 
ATOM      3  N   UNL     1      14.644 -19.755 -32.138  0.00  0.00    -0.372 N 
ATOM      4  C   UNL     1      14.235 -20.006 -33.386  0.00  0.00    +0.166 C 
ATOM      5  H   UNL     1      14.356 -21.175 -35.038  0.00  0.00    +0.163 HD
ATOM      6  H   UNL     1      12.912 -18.432 -33.395  0.00  0.00    +0.159 HD
ATOM      7  H   UNL     1      12.962 -19.337 -34.861  0.00  0.00    +0.159 HD
ATOM      8  H   UNL     1      15.343 -20.325 -31.679  0.00  0.00    +0.159 HD
ATOM      9  H   UNL     1      14.258 -18.992 -31.597  0.00  0.00    +0.159 HD
ENDROOT
BRANCH   1  10
ATOM     10  C   UNL     1      15.788 -21.915 -33.645  0.00  0.00    +0.151 C 
BRANCH  10  11
ATOM     11  C   UNL     1      15.838 -23.122 -34.541  0.00  0.00    -0.028 A 
ATOM     12  C   UNL     1      16.263 -24.362 -34.042  0.00  0.00    +0.005 A 
ATOM     13  C   UNL     1      15.457 -23.033 -35.889  0.00  0.00    +0.005 A 
ATOM     14  C   UNL     1      16.281 -25.489 -34.867  0.00  0.00    +0.000 A 
ATOM     15  C   UNL     1      15.478 -24.161 -36.709  0.00  0.00    +0.000 A 
ATOM     16  C   UNL     1      15.887 -25.389 -36.197  0.00  0.00    +0.000 A 
ENDBRANCH  10  11
ENDBRANCH   1  10
TORSDOF 2
ENDMDL
MODEL 5
REMARK VINA RESULT:    -4.286     67.194     69.175
REMARK INTER + INTRA:          -4.894
REMARK INTER:                  -4.768
REMARK INTRA:                  -0.126
REMARK UNBOUND:                -0.107
REMARK  Name = 1550473
REMARK  2 active torsions:
REMARK  status: ('A' for Active; 'I' for Inactive)
REMARK    1  A    between atoms: N_1  and  C_4
REMARK    2  A    between atoms: C_4  and  C_5
REMARK                            x       y       z     vdW  Elec       q    Type
REMARK                         _______ _______ _______ _____ _____    ______ ____
ROOT
ATOM      1  N   UNL     1      19.345 -33.184 -28.797  0.00  0.00    -0.354 N 
ATOM      2  N   UNL     1      19.463 -31.307 -27.446  0.00  0.00    -0.372 N 
ATOM      3  N   UNL     1      21.412 -32.317 -28.114  0.00  0.00    -0.372 N 
ATOM      4  C   UNL     1      20.075 -32.283 -28.128  0.00  0.00    +0.166 C 
ATOM      5  H   UNL     1      18.335 -33.121 -28.743  0.00  0.00    +0.163 HD
ATOM      6  H   UNL     1      19.988 -30.610 -26.935  0.00  0.00    +0.159 HD
ATOM      7  H   UNL     1      18.455 -31.219 -27.431  0.00  0.00    +0.159 HD
ATOM      8  H   UNL     1      21.934 -33.032 -28.604  0.00  0.00    +0.159 HD
ATOM      9  H   UNL     1      21.955 -31.636 -27.599  0.00  0.00    +0.159 HD
ENDROOT
BRANCH   1  10
ATOM     10  C   UNL     1      19.914 -34.254 -29.614  0.00  0.00    +0.151 C 
BRANCH  10  11
ATOM     11  C   UNL     1      19.323 -34.185 -30.995  0.00  0.00    -0.028 A 
ATOM     12  C   UNL     1      20.154 -34.083 -32.121  0.00  0.00    +0.005 A 
ATOM     13  C   UNL     1      17.934 -34.226 -31.185  0.00  0.00    +0.005 A 
ATOM     14  C   UNL     1      19.607 -34.049 -33.406  0.00  0.00    +0.000 A 
ATOM     15  C   UNL     1      17.391 -34.190 -32.470  0.00  0.00    +0.000 A 
ATOM     16  C   UNL     1      18.228 -34.105 -33.580  0.00  0.00    +0.000 A 
ENDBRANCH  10  11
ENDBRANCH   1  10
TORSDOF 2
ENDMDL
MODEL 6
REMARK VINA RESULT:    -4.137     37.161     38.828
REMARK INTER + INTRA:          -4.727
REMARK INTER:                  -4.631
REMARK INTRA:                  -0.096
REMARK UNBOUND:                -0.107
REMARK  Name = 1550473
REMARK  2 active torsions:
REMARK  status: ('A' for Active; 'I' for Inactive)
REMARK    1  A    between atoms: N_1  and  C_4
REMARK    2  A    between atoms: C_4  and  C_5
REMARK                            x       y       z     vdW  Elec       q    Type
REMARK                         _______ _______ _______ _____ _____    ______ ____
ROOT
ATOM      1  N   UNL     1      -3.223 -15.464 -11.384  0.00  0.00    -0.354 N 
ATOM      2  N   UNL     1      -4.765 -15.450  -9.656  0.00  0.00    -0.372 N 
ATOM      3  N   UNL     1      -2.848 -16.690  -9.423  0.00  0.00    -0.372 N 
ATOM      4  C   UNL     1      -3.600 -15.870 -10.165  0.00  0.00    +0.166 C 
ATOM      5  H   UNL     1      -3.851 -14.866 -11.908  0.00  0.00    +0.163 HD
ATOM      6  H   UNL     1      -5.074 -15.737  -8.737  0.00  0.00    +0.159 HD
ATOM      7  H   UNL     1      -5.370 -14.816 -10.164  0.00  0.00    +0.159 HD
ATOM      8  H   UNL     1      -1.961 -17.048  -9.751  0.00  0.00    +0.159 HD
ATOM      9  H   UNL     1      -3.147 -16.998  -8.505  0.00  0.00    +0.159 HD
ENDROOT
BRANCH   1  10
ATOM     10  C   UNL     1      -1.949 -15.821 -12.007  0.00  0.00    +0.151 C 
BRANCH  10  11
ATOM     11  C   UNL     1      -1.991 -15.442 -13.462  0.00  0.00    -0.028 A 
ATOM     12  C   UNL     1      -1.270 -14.334 -13.931  0.00  0.00    +0.005 A 
ATOM     13  C   UNL     1      -2.745 -16.192 -14.378  0.00  0.00    +0.005 A 
ATOM     14  C   UNL     1      -1.285 -14.001 -15.287  0.00  0.00    +0.000 A 
ATOM     15  C   UNL     1      -2.757 -15.855 -15.731  0.00  0.00    +0.000 A 
ATOM     16  C   UNL     1      -2.025 -14.761 -16.186  0.00  0.00    +0.000 A 
ENDBRANCH  10  11
ENDBRANCH   1  10
TORSDOF 2
ENDMDL
MODEL 7
REMARK VINA RESULT:    -3.995     37.771     39.731
REMARK INTER + INTRA:          -4.569
REMARK INTER:                  -4.437
REMARK INTRA:                  -0.132
REMARK UNBOUND:                -0.107
REMARK  Name = 1550473
REMARK  2 active torsions:
REMARK  status: ('A' for Active; 'I' for Inactive)
REMARK    1  A    between atoms: N_1  and  C_4
REMARK    2  A    between atoms: C_4  and  C_5
REMARK                            x       y       z     vdW  Elec       q    Type
REMARK                         _______ _______ _______ _____ _____    ______ ____
ROOT
ATOM      1  N   UNL     1       8.473 -11.426 -11.457  0.00  0.00    -0.354 N 
ATOM      2  N   UNL     1       8.079  -9.485 -10.256  0.00  0.00    -0.372 N 
ATOM      3  N   UNL     1       8.094  -9.387 -12.549  0.00  0.00    -0.372 N 
ATOM      4  C   UNL     1       8.218 -10.111 -11.431  0.00  0.00    +0.166 C 
ATOM      5  H   UNL     1       8.585 -11.912 -10.575  0.00  0.00    +0.163 HD
ATOM      6  H   UNL     1       7.883  -8.495 -10.205  0.00  0.00    +0.159 HD
ATOM      7  H   UNL     1       8.147  -9.982  -9.376  0.00  0.00    +0.159 HD
ATOM      8  H   UNL     1       8.193  -9.799 -13.467  0.00  0.00    +0.159 HD
ATOM      9  H   UNL     1       7.909  -8.392 -12.518  0.00  0.00    +0.159 HD
ENDROOT
BRANCH   1  10
ATOM     10  C   UNL     1       8.588 -12.213 -12.684  0.00  0.00    +0.151 C 
BRANCH  10  11
ATOM     11  C   UNL     1       9.836 -13.048 -12.616  0.00  0.00    -0.028 A 
ATOM     12  C   UNL     1      10.290 -13.553 -11.388  0.00  0.00    +0.005 A 
ATOM     13  C   UNL     1      10.568 -13.344 -13.777  0.00  0.00    +0.005 A 
ATOM     14  C   UNL     1      11.432 -14.354 -11.329  0.00  0.00    +0.000 A 
ATOM     15  C   UNL     1      11.709 -14.143 -13.713  0.00  0.00    +0.000 A 
ATOM     16  C   UNL     1      12.139 -14.650 -12.490  0.00  0.00    +0.000 A 
ENDBRANCH  10  11
ENDBRANCH   1  10
TORSDOF 2
ENDMDL
MODEL 8
REMARK VINA RESULT:    -3.890     37.044     38.719
REMARK INTER + INTRA:          -4.452
REMARK INTER:                  -4.285
REMARK INTRA:                  -0.167
REMARK UNBOUND:                -0.107
REMARK  Name = 1550473
REMARK  2 active torsions:
REMARK  status: ('A' for Active; 'I' for Inactive)
REMARK    1  A    between atoms: N_1  and  C_4
REMARK    2  A    between atoms: C_4  and  C_5
REMARK                            x       y       z     vdW  Elec       q    Type
REMARK                         _______ _______ _______ _____ _____    ______ ____
ROOT
ATOM      1  N   UNL     1      10.959 -12.763 -11.341  0.00  0.00    -0.354 N 
ATOM      2  N   UNL     1      11.738 -14.879 -11.867  0.00  0.00    -0.372 N 
ATOM      3  N   UNL     1       9.488 -14.457 -12.017  0.00  0.00    -0.372 N 
ATOM      4  C   UNL     1      10.720 -14.020 -11.738  0.00  0.00    +0.166 C 
ATOM      5  H   UNL     1      11.912 -12.501 -11.117  0.00  0.00    +0.163 HD
ATOM      6  H   UNL     1      11.590 -15.833 -12.168  0.00  0.00    +0.159 HD
ATOM      7  H   UNL     1      12.696 -14.602 -11.686  0.00  0.00    +0.159 HD
ATOM      8  H   UNL     1       8.676 -13.860 -11.933  0.00  0.00    +0.159 HD
ATOM      9  H   UNL     1       9.317 -15.412 -12.308  0.00  0.00    +0.159 HD
ENDROOT
BRANCH   1  10
ATOM     10  C   UNL     1       9.928 -11.733 -11.222  0.00  0.00    +0.151 C 
BRANCH  10  11
ATOM     11  C   UNL     1       9.605 -11.529  -9.767  0.00  0.00    -0.028 A 
ATOM     12  C   UNL     1      10.632 -11.399  -8.821  0.00  0.00    +0.005 A 
ATOM     13  C   UNL     1       8.273 -11.458  -9.329  0.00  0.00    +0.005 A 
ATOM     14  C   UNL     1      10.333 -11.179  -7.474  0.00  0.00    +0.000 A 
ATOM     15  C   UNL     1       7.979 -11.239  -7.984  0.00  0.00    +0.000 A 
ATOM     16  C   UNL     1       9.009 -11.097  -7.057  0.00  0.00    +0.000 A 
ENDBRANCH  10  11
ENDBRANCH   1  10
TORSDOF 2
ENDMDL
MODEL 9
REMARK VINA RESULT:    -3.859     38.211     39.651
REMARK INTER + INTRA:          -4.418
REMARK INTER:                  -4.280
REMARK INTRA:                  -0.138
REMARK UNBOUND:                -0.107
REMARK  Name = 1550473
REMARK  2 active torsions:
REMARK  status: ('A' for Active; 'I' for Inactive)
REMARK    1  A    between atoms: N_1  and  C_4
REMARK    2  A    between atoms: C_4  and  C_5
REMARK                            x       y       z     vdW  Elec       q    Type
REMARK                         _______ _______ _______ _____ _____    ______ ____
ROOT
ATOM      1  N   UNL     1      27.190  -5.071   4.336  0.00  0.00    -0.354 N 
ATOM      2  N   UNL     1      27.890  -5.345   2.145  0.00  0.00    -0.372 N 
ATOM      3  N   UNL     1      25.665  -5.612   2.641  0.00  0.00    -0.372 N 
ATOM      4  C   UNL     1      26.908  -5.342   3.055  0.00  0.00    +0.166 C 
ATOM      5  H   UNL     1      28.157  -4.904   4.591  0.00  0.00    +0.163 HD
ATOM      6  H   UNL     1      27.707  -5.542   1.170  0.00  0.00    +0.159 HD
ATOM      7  H   UNL     1      28.848  -5.133   2.395  0.00  0.00    +0.159 HD
ATOM      8  H   UNL     1      24.881  -5.631   3.278  0.00  0.00    +0.159 HD
ATOM      9  H   UNL     1      25.464  -5.824   1.671  0.00  0.00    +0.159 HD
ENDROOT
BRANCH   1  10
ATOM     10  C   UNL     1      26.186  -4.990   5.395  0.00  0.00    +0.151 C 
BRANCH  10  11
ATOM     11  C   UNL     1      26.391  -3.717   6.169  0.00  0.00    -0.028 A 
ATOM     12  C   UNL     1      25.347  -3.170   6.929  0.00  0.00    +0.005 A 
ATOM     13  C   UNL     1      27.629  -3.056   6.152  0.00  0.00    +0.005 A 
ATOM     14  C   UNL     1      25.546  -2.004   7.673  0.00  0.00    +0.000 A 
ATOM     15  C   UNL     1      27.823  -1.892   6.895  0.00  0.00    +0.000 A 
ATOM     16  C   UNL     1      26.782  -1.368   7.657  0.00  0.00    +0.000 A 
ENDBRANCH  10  11
ENDBRANCH   1  10
TORSDOF 2
ENDMDL
