MODEL 1
REMARK VINA RESULT:    -5.340      0.000      0.000
REMARK INTER + INTRA:          -6.101
REMARK INTER:                  -5.964
REMARK INTRA:                  -0.137
REMARK UNBOUND:                -0.137
REMARK  Name = 1550473
REMARK  2 active torsions:
REMARK  status: ('A' for Active; 'I' for Inactive)
REMARK    1  A    between atoms: N_1  and  C_4
REMARK    2  A    between atoms: C_4  and  C_5
REMARK                            x       y       z     vdW  Elec       q    Type
REMARK                         _______ _______ _______ _____ _____    ______ ____
ROOT
ATOM      1  N   UNL     1       2.841  15.749  -6.691  0.00  0.00    -0.354 N 
ATOM      2  N   UNL     1       2.132  16.643  -8.707  0.00  0.00    -0.372 N 
ATOM      3  N   UNL     1       4.332  16.882  -8.100  0.00  0.00    -0.372 N 
ATOM      4  C   UNL     1       3.109  16.419  -7.819  0.00  0.00    +0.166 C 
ATOM      5  H   UNL     1       1.886  15.451  -6.524  0.00  0.00    +0.163 HD
ATOM      6  H   UNL     1       2.305  17.143  -9.568  0.00  0.00    +0.159 HD
ATOM      7  H   UNL     1       1.189  16.304  -8.558  0.00  0.00    +0.159 HD
ATOM      8  H   UNL     1       5.111  16.752  -7.469  0.00  0.00    +0.159 HD
ATOM      9  H   UNL     1       4.522  17.395  -8.952  0.00  0.00    +0.159 HD
ENDROOT
BRANCH   1  10
ATOM     10  C   UNL     1       3.845  15.406  -5.685  0.00  0.00    +0.151 C 
BRANCH  10  11
ATOM     11  C   UNL     1       3.379  15.894  -4.341  0.00  0.00    -0.028 A 
ATOM     12  C   UNL     1       3.977  15.418  -3.165  0.00  0.00    +0.005 A 
ATOM     13  C   UNL     1       2.344  16.836  -4.237  0.00  0.00    +0.005 A 
ATOM     14  C   UNL     1       3.565  15.893  -1.917  0.00  0.00    +0.000 A 
ATOM     15  C   UNL     1       1.935  17.307  -2.989  0.00  0.00    +0.000 A 
ATOM     16  C   UNL     1       2.548  16.837  -1.830  0.00  0.00    +0.000 A 
ENDBRANCH  10  11
ENDBRANCH   1  10
TORSDOF 2
ENDMDL
MODEL 2
REMARK VINA RESULT:    -5.241      3.912      4.552
REMARK INTER + INTRA:          -5.991
REMARK INTER:                  -5.865
REMARK INTRA:                  -0.126
REMARK UNBOUND:                -0.137
REMARK  Name = 1550473
REMARK  2 active torsions:
REMARK  status: ('A' for Active; 'I' for Inactive)
REMARK    1  A    between atoms: N_1  and  C_4
REMARK    2  A    between atoms: C_4  and  C_5
REMARK                            x       y       z     vdW  Elec       q    Type
REMARK                         _______ _______ _______ _____ _____    ______ ____
ROOT
ATOM      1  N   UNL     1      -0.596  14.100  -3.744  0.00  0.00    -0.354 N 
ATOM      2  N   UNL     1      -1.463  13.310  -5.741  0.00  0.00    -0.372 N 
ATOM      3  N   UNL     1      -2.582  14.975  -4.627  0.00  0.00    -0.372 N 
ATOM      4  C   UNL     1      -1.543  14.135  -4.690  0.00  0.00    +0.166 C 
ATOM      5  H   UNL     1       0.150  13.419  -3.835  0.00  0.00    +0.163 HD
ATOM      6  H   UNL     1      -2.162  13.317  -6.472  0.00  0.00    +0.159 HD
ATOM      7  H   UNL     1      -0.692  12.663  -5.853  0.00  0.00    +0.159 HD
ATOM      8  H   UNL     1      -2.704  15.619  -3.857  0.00  0.00    +0.159 HD
ATOM      9  H   UNL     1      -3.298  14.988  -5.343  0.00  0.00    +0.159 HD
ENDROOT
BRANCH   1  10
ATOM     10  C   UNL     1      -0.561  14.993  -2.587  0.00  0.00    +0.151 C 
BRANCH  10  11
ATOM     11  C   UNL     1       0.867  15.365  -2.297  0.00  0.00    -0.028 A 
ATOM     12  C   UNL     1       1.170  16.574  -1.654  0.00  0.00    +0.005 A 
ATOM     13  C   UNL     1       1.920  14.511  -2.656  0.00  0.00    +0.005 A 
ATOM     14  C   UNL     1       2.494  16.907  -1.357  0.00  0.00    +0.000 A 
ATOM     15  C   UNL     1       3.241  14.847  -2.359  0.00  0.00    +0.000 A 
ATOM     16  C   UNL     1       3.527  16.044  -1.707  0.00  0.00    +0.000 A 
ENDBRANCH  10  11
ENDBRANCH   1  10
TORSDOF 2
ENDMDL
MODEL 3
REMARK VINA RESULT:    -4.777     27.844     28.624
REMARK INTER + INTRA:          -5.472
REMARK INTER:                  -5.342
REMARK INTRA:                  -0.130
REMARK UNBOUND:                -0.137
REMARK  Name = 1550473
REMARK  2 active torsions:
REMARK  status: ('A' for Active; 'I' for Inactive)
REMARK    1  A    between atoms: N_1  and  C_4
REMARK    2  A    between atoms: C_4  and  C_5
REMARK                            x       y       z     vdW  Elec       q    Type
REMARK                         _______ _______ _______ _____ _____    ______ ____
ROOT
ATOM      1  N   UNL     1      -6.107  13.580  20.996  0.00  0.00    -0.354 N 
ATOM      2  N   UNL     1      -7.450  15.377  21.573  0.00  0.00    -0.372 N 
ATOM      3  N   UNL     1      -5.890  14.629  23.080  0.00  0.00    -0.372 N 
ATOM      4  C   UNL     1      -6.472  14.516  21.881  0.00  0.00    +0.166 C 
ATOM      5  H   UNL     1      -6.608  13.528  20.116  0.00  0.00    +0.163 HD
ATOM      6  H   UNL     1      -7.744  16.096  22.219  0.00  0.00    +0.159 HD
ATOM      7  H   UNL     1      -7.918  15.352  20.675  0.00  0.00    +0.159 HD
ATOM      8  H   UNL     1      -5.150  14.006  23.376  0.00  0.00    +0.159 HD
ATOM      9  H   UNL     1      -6.179  15.335  23.745  0.00  0.00    +0.159 HD
ENDROOT
BRANCH   1  10
ATOM     10  C   UNL     1      -5.018  12.629  21.213  0.00  0.00    +0.151 C 
BRANCH  10  11
ATOM     11  C   UNL     1      -5.569  11.231  21.161  0.00  0.00    -0.028 A 
ATOM     12  C   UNL     1      -6.953  11.013  21.092  0.00  0.00    +0.005 A 
ATOM     13  C   UNL     1      -4.712  10.120  21.176  0.00  0.00    +0.005 A 
ATOM     14  C   UNL     1      -7.464   9.715  21.014  0.00  0.00    +0.000 A 
ATOM     15  C   UNL     1      -5.226   8.825  21.098  0.00  0.00    +0.000 A 
ATOM     16  C   UNL     1      -6.602   8.623  21.015  0.00  0.00    +0.000 A 
ENDBRANCH  10  11
ENDBRANCH   1  10
TORSDOF 2
ENDMDL
MODEL 4
REMARK VINA RESULT:    -4.732      3.856      4.413
REMARK INTER + INTRA:          -5.422
REMARK INTER:                  -5.280
REMARK INTRA:                  -0.142
REMARK UNBOUND:                -0.137
REMARK  Name = 1550473
REMARK  2 active torsions:
REMARK  status: ('A' for Active; 'I' for Inactive)
REMARK    1  A    between atoms: N_1  and  C_4
REMARK    2  A    between atoms: C_4  and  C_5
REMARK                            x       y       z     vdW  Elec       q    Type
REMARK                         _______ _______ _______ _____ _____    ______ ____
ROOT
ATOM      1  N   UNL     1      -1.164  15.231  -3.059  0.00  0.00    -0.354 N 
ATOM      2  N   UNL     1      -2.923  16.273  -4.147  0.00  0.00    -0.372 N 
ATOM      3  N   UNL     1      -1.674  14.724  -5.289  0.00  0.00    -0.372 N 
ATOM      4  C   UNL     1      -1.908  15.401  -4.160  0.00  0.00    +0.166 C 
ATOM      5  H   UNL     1      -1.373  15.797  -2.244  0.00  0.00    +0.163 HD
ATOM      6  H   UNL     1      -3.504  16.420  -4.961  0.00  0.00    +0.159 HD
ATOM      7  H   UNL     1      -3.159  16.803  -3.317  0.00  0.00    +0.159 HD
ATOM      8  H   UNL     1      -0.919  14.056  -5.366  0.00  0.00    +0.159 HD
ATOM      9  H   UNL     1      -2.237  14.866  -6.119  0.00  0.00    +0.159 HD
ENDROOT
BRANCH   1  10
ATOM     10  C   UNL     1      -0.069  14.268  -2.952  0.00  0.00    +0.151 C 
BRANCH  10  11
ATOM     11  C   UNL     1       1.160  14.975  -2.451  0.00  0.00    -0.028 A 
ATOM     12  C   UNL     1       2.431  14.414  -2.640  0.00  0.00    +0.005 A 
ATOM     13  C   UNL     1       1.060  16.209  -1.790  0.00  0.00    +0.005 A 
ATOM     14  C   UNL     1       3.575  15.084  -2.201  0.00  0.00    +0.000 A 
ATOM     15  C   UNL     1       2.205  16.875  -1.352  0.00  0.00    +0.000 A 
ATOM     16  C   UNL     1       3.462  16.313  -1.560  0.00  0.00    +0.000 A 
ENDBRANCH  10  11
ENDBRANCH   1  10
TORSDOF 2
ENDMDL
MODEL 5
REMARK VINA RESULT:    -4.568      4.343      5.992
REMARK INTER + INTRA:          -5.239
REMARK INTER:                  -5.096
REMARK INTRA:                  -0.144
REMARK UNBOUND:                -0.137
REMARK  Name = 1550473
REMARK  2 active torsions:
REMARK  status: ('A' for Active; 'I' for Inactive)
REMARK    1  A    between atoms: N_1  and  C_4
REMARK    2  A    between atoms: C_4  and  C_5
REMARK                            x       y       z     vdW  Elec       q    Type
REMARK                         _______ _______ _______ _____ _____    ______ ____
ROOT
ATOM      1  N   UNL     1       1.550  19.008  -1.036  0.00  0.00    -0.354 N 
ATOM      2  N   UNL     1       2.053  20.016   0.987  0.00  0.00    -0.372 N 
ATOM      3  N   UNL     1       0.544  18.289   0.954  0.00  0.00    -0.372 N 
ATOM      4  C   UNL     1       1.377  19.096   0.289  0.00  0.00    +0.166 C 
ATOM      5  H   UNL     1       2.173  19.669  -1.485  0.00  0.00    +0.163 HD
ATOM      6  H   UNL     1       1.946  20.104   1.989  0.00  0.00    +0.159 HD
ATOM      7  H   UNL     1       2.710  20.646   0.542  0.00  0.00    +0.159 HD
ATOM      8  H   UNL     1      -0.001  17.577   0.485  0.00  0.00    +0.159 HD
ATOM      9  H   UNL     1       0.414  18.369   1.955  0.00  0.00    +0.159 HD
ENDROOT
BRANCH   1  10
ATOM     10  C   UNL     1       0.902  18.006  -1.881  0.00  0.00    +0.151 C 
BRANCH  10  11
ATOM     11  C   UNL     1       1.952  17.100  -2.462  0.00  0.00    -0.028 A 
ATOM     12  C   UNL     1       2.122  17.006  -3.851  0.00  0.00    +0.005 A 
ATOM     13  C   UNL     1       2.784  16.337  -1.628  0.00  0.00    +0.005 A 
ATOM     14  C   UNL     1       3.117  16.187  -4.390  0.00  0.00    +0.000 A 
ATOM     15  C   UNL     1       3.776  15.520  -2.171  0.00  0.00    +0.000 A 
ATOM     16  C   UNL     1       3.944  15.448  -3.551  0.00  0.00    +0.000 A 
ENDBRANCH  10  11
ENDBRANCH   1  10
TORSDOF 2
ENDMDL
MODEL 6
REMARK VINA RESULT:    -4.536      4.999      6.191
REMARK INTER + INTRA:          -5.203
REMARK INTER:                  -5.072
REMARK INTRA:                  -0.131
REMARK UNBOUND:                -0.137
REMARK  Name = 1550473
REMARK  2 active torsions:
REMARK  status: ('A' for Active; 'I' for Inactive)
REMARK    1  A    between atoms: N_1  and  C_4
REMARK    2  A    between atoms: C_4  and  C_5
REMARK                            x       y       z     vdW  Elec       q    Type
REMARK                         _______ _______ _______ _____ _____    ______ ____
ROOT
ATOM      1  N   UNL     1      -1.234  15.678  -0.741  0.00  0.00    -0.354 N 
ATOM      2  N   UNL     1      -2.929  16.573   0.559  0.00  0.00    -0.372 N 
ATOM      3  N   UNL     1      -3.210  16.477  -1.716  0.00  0.00    -0.372 N 
ATOM      4  C   UNL     1      -2.448  16.237  -0.644  0.00  0.00    +0.166 C 
ATOM      5  H   UNL     1      -0.694  15.551   0.107  0.00  0.00    +0.163 HD
ATOM      6  H   UNL     1      -3.843  16.994   0.664  0.00  0.00    +0.159 HD
ATOM      7  H   UNL     1      -2.406  16.403   1.409  0.00  0.00    +0.159 HD
ATOM      8  H   UNL     1      -2.902  16.252  -2.653  0.00  0.00    +0.159 HD
ATOM      9  H   UNL     1      -4.122  16.907  -1.633  0.00  0.00    +0.159 HD
ENDROOT
BRANCH   1  10
ATOM     10  C   UNL     1      -0.641  15.226  -1.998  0.00  0.00    +0.151 C 
BRANCH  10  11
ATOM     11  C   UNL     1       0.837  15.507  -1.972  0.00  0.00    -0.028 A 
ATOM     12  C   UNL     1       1.325  16.702  -1.426  0.00  0.00    +0.005 A 
ATOM     13  C   UNL     1       1.754  14.578  -2.488  0.00  0.00    +0.005 A 
ATOM     14  C   UNL     1       2.699  16.950  -1.375  0.00  0.00    +0.000 A 
ATOM     15  C   UNL     1       3.125  14.829  -2.435  0.00  0.00    +0.000 A 
ATOM     16  C   UNL     1       3.597  16.014  -1.877  0.00  0.00    +0.000 A 
ENDBRANCH  10  11
ENDBRANCH   1  10
TORSDOF 2
ENDMDL
MODEL 7
REMARK VINA RESULT:    -4.500     34.747     35.650
REMARK INTER + INTRA:          -5.163
REMARK INTER:                  -5.021
REMARK INTRA:                  -0.142
REMARK UNBOUND:                -0.137
REMARK  Name = 1550473
REMARK  2 active torsions:
REMARK  status: ('A' for Active; 'I' for Inactive)
REMARK    1  A    between atoms: N_1  and  C_4
REMARK    2  A    between atoms: C_4  and  C_5
REMARK                            x       y       z     vdW  Elec       q    Type
REMARK                         _______ _______ _______ _____ _____    ______ ____
ROOT
ATOM      1  N   UNL     1      -7.872 -15.116   6.930  0.00  0.00    -0.354 N 
ATOM      2  N   UNL     1      -9.549 -13.985   8.058  0.00  0.00    -0.372 N 
ATOM      3  N   UNL     1      -8.040 -12.781   6.818  0.00  0.00    -0.372 N 
ATOM      4  C   UNL     1      -8.475 -13.966   7.260  0.00  0.00    +0.166 C 
ATOM      5  H   UNL     1      -8.233 -15.978   7.323  0.00  0.00    +0.163 HD
ATOM      6  H   UNL     1     -10.027 -13.133   8.322  0.00  0.00    +0.159 HD
ATOM      7  H   UNL     1      -9.935 -14.852   8.412  0.00  0.00    +0.159 HD
ATOM      8  H   UNL     1      -7.231 -12.698   6.217  0.00  0.00    +0.159 HD
ATOM      9  H   UNL     1      -8.497 -11.917   7.080  0.00  0.00    +0.159 HD
ENDROOT
BRANCH   1  10
ATOM     10  C   UNL     1      -6.729 -15.209   6.024  0.00  0.00    +0.151 C 
BRANCH  10  11
ATOM     11  C   UNL     1      -7.071 -16.143   4.896  0.00  0.00    -0.028 A 
ATOM     12  C   UNL     1      -6.200 -17.185   4.545  0.00  0.00    +0.005 A 
ATOM     13  C   UNL     1      -8.267 -15.993   4.177  0.00  0.00    +0.005 A 
ATOM     14  C   UNL     1      -6.532 -18.071   3.517  0.00  0.00    +0.000 A 
ATOM     15  C   UNL     1      -8.593 -16.879   3.150  0.00  0.00    +0.000 A 
ATOM     16  C   UNL     1      -7.727 -17.919   2.822  0.00  0.00    +0.000 A 
ENDBRANCH  10  11
ENDBRANCH   1  10
TORSDOF 2
ENDMDL
MODEL 8
REMARK VINA RESULT:    -4.451     35.338     36.340
REMARK INTER + INTRA:          -5.109
REMARK INTER:                  -5.008
REMARK INTRA:                  -0.101
REMARK UNBOUND:                -0.137
REMARK  Name = 1550473
REMARK  2 active torsions:
REMARK  status: ('A' for Active; 'I' for Inactive)
REMARK    1  A    between atoms: N_1  and  C_4
REMARK    2  A    between atoms: C_4  and  C_5
REMARK                            x       y       z     vdW  Elec       q    Type
REMARK                         _______ _______ _______ _____ _____    ______ ____
ROOT
ATOM      1  N   UNL     1      -9.353 -15.672   9.218  0.00  0.00    -0.354 N 
ATOM      2  N   UNL     1      -9.730 -17.050  11.041  0.00  0.00    -0.372 N 
ATOM      3  N   UNL     1     -10.547 -14.906  11.083  0.00  0.00    -0.372 N 
ATOM      4  C   UNL     1      -9.875 -15.864  10.436  0.00  0.00    +0.166 C 
ATOM      5  H   UNL     1      -8.829 -16.428   8.794  0.00  0.00    +0.163 HD
ATOM      6  H   UNL     1     -10.116 -17.226  11.959  0.00  0.00    +0.159 HD
ATOM      7  H   UNL     1      -9.245 -17.819  10.595  0.00  0.00    +0.159 HD
ATOM      8  H   UNL     1     -10.686 -13.987  10.684  0.00  0.00    +0.159 HD
ATOM      9  H   UNL     1     -10.931 -15.059  12.008  0.00  0.00    +0.159 HD
ENDROOT
BRANCH   1  10
ATOM     10  C   UNL     1      -9.501 -14.436   8.451  0.00  0.00    +0.151 C 
BRANCH  10  11
ATOM     11  C   UNL     1      -8.792 -14.588   7.133  0.00  0.00    -0.028 A 
ATOM     12  C   UNL     1      -7.759 -13.710   6.775  0.00  0.00    +0.005 A 
ATOM     13  C   UNL     1      -9.146 -15.611   6.240  0.00  0.00    +0.005 A 
ATOM     14  C   UNL     1      -7.080 -13.869   5.565  0.00  0.00    +0.000 A 
ATOM     15  C   UNL     1      -8.467 -15.766   5.032  0.00  0.00    +0.000 A 
ATOM     16  C   UNL     1      -7.432 -14.897   4.696  0.00  0.00    +0.000 A 
ENDBRANCH  10  11
ENDBRANCH   1  10
TORSDOF 2
ENDMDL
MODEL 9
REMARK VINA RESULT:    -4.338      3.644      5.089
REMARK INTER + INTRA:          -4.982
REMARK INTER:                  -4.820
REMARK INTRA:                  -0.162
REMARK UNBOUND:                -0.137
REMARK  Name = 1550473
REMARK  2 active torsions:
REMARK  status: ('A' for Active; 'I' for Inactive)
REMARK    1  A    between atoms: N_1  and  C_4
REMARK    2  A    between atoms: C_4  and  C_5
REMARK                            x       y       z     vdW  Elec       q    Type
REMARK                         _______ _______ _______ _____ _____    ______ ____
ROOT
ATOM      1  N   UNL     1      -0.522  17.561  -2.628  0.00  0.00    -0.354 N 
ATOM      2  N   UNL     1      -2.462  16.329  -2.333  0.00  0.00    -0.372 N 
ATOM      3  N   UNL     1      -0.938  16.425  -0.620  0.00  0.00    -0.372 N 
ATOM      4  C   UNL     1      -1.293  16.779  -1.860  0.00  0.00    +0.166 C 
ATOM      5  H   UNL     1      -0.834  17.768  -3.570  0.00  0.00    +0.163 HD
ATOM      6  H   UNL     1      -3.066  15.741  -1.776  0.00  0.00    +0.159 HD
ATOM      7  H   UNL     1      -2.792  16.576  -3.258  0.00  0.00    +0.159 HD
ATOM      8  H   UNL     1      -0.065  16.726  -0.207  0.00  0.00    +0.159 HD
ATOM      9  H   UNL     1      -1.524  15.827  -0.051  0.00  0.00    +0.159 HD
ENDROOT
BRANCH   1  10
ATOM     10  C   UNL     1       0.743  18.147  -2.188  0.00  0.00    +0.151 C 
BRANCH  10  11
ATOM     11  C   UNL     1       1.870  17.228  -2.573  0.00  0.00    -0.028 A 
ATOM     12  C   UNL     1       2.661  16.620  -1.587  0.00  0.00    +0.005 A 
ATOM     13  C   UNL     1       2.148  16.958  -3.921  0.00  0.00    +0.005 A 
ATOM     14  C   UNL     1       3.689  15.743  -1.943  0.00  0.00    +0.000 A 
ATOM     15  C   UNL     1       3.176  16.083  -4.273  0.00  0.00    +0.000 A 
ATOM     16  C   UNL     1       3.944  15.474  -3.284  0.00  0.00    +0.000 A 
ENDBRANCH  10  11
ENDBRANCH   1  10
TORSDOF 2
ENDMDL
