MODEL 1
REMARK VINA RESULT:    -5.078      0.000      0.000
REMARK INTER + INTRA:          -5.792
REMARK INTER:                  -5.672
REMARK INTRA:                  -0.120
REMARK UNBOUND:                -0.120
REMARK  Name = 1550473
REMARK  2 active torsions:
REMARK  status: ('A' for Active; 'I' for Inactive)
REMARK    1  A    between atoms: N_1  and  C_4
REMARK    2  A    between atoms: C_4  and  C_5
REMARK                            x       y       z     vdW  Elec       q    Type
REMARK                         _______ _______ _______ _____ _____    ______ ____
ROOT
ATOM      1  N   UNL     1       0.209  -9.625 -13.942  0.00  0.00    -0.354 N 
ATOM      2  N   UNL     1       1.582  -8.456 -12.489  0.00  0.00    -0.372 N 
ATOM      3  N   UNL     1      -0.677  -8.055 -12.445  0.00  0.00    -0.372 N 
ATOM      4  C   UNL     1       0.360  -8.718 -12.968  0.00  0.00    +0.166 C 
ATOM      5  H   UNL     1       1.038 -10.071 -14.317  0.00  0.00    +0.163 HD
ATOM      6  H   UNL     1       1.726  -7.779 -11.752  0.00  0.00    +0.159 HD
ATOM      7  H   UNL     1       2.404  -8.937 -12.833  0.00  0.00    +0.159 HD
ATOM      8  H   UNL     1      -1.624  -8.203 -12.766  0.00  0.00    +0.159 HD
ATOM      9  H   UNL     1      -0.551  -7.366 -11.714  0.00  0.00    +0.159 HD
ENDROOT
BRANCH   1  10
ATOM     10  C   UNL     1      -1.084 -10.023 -14.496  0.00  0.00    +0.151 C 
BRANCH  10  11
ATOM     11  C   UNL     1      -1.086 -11.510 -14.718  0.00  0.00    -0.028 A 
ATOM     12  C   UNL     1       0.043 -12.153 -15.246  0.00  0.00    +0.005 A 
ATOM     13  C   UNL     1      -2.213 -12.283 -14.397  0.00  0.00    +0.005 A 
ATOM     14  C   UNL     1       0.052 -13.539 -15.425  0.00  0.00    +0.000 A 
ATOM     15  C   UNL     1      -2.200 -13.666 -14.578  0.00  0.00    +0.000 A 
ATOM     16  C   UNL     1      -1.066 -14.294 -15.089  0.00  0.00    +0.000 A 
ENDBRANCH  10  11
ENDBRANCH   1  10
TORSDOF 2
ENDMDL
MODEL 2
REMARK VINA RESULT:    -4.924     17.235     18.024
REMARK INTER + INTRA:          -5.620
REMARK INTER:                  -5.528
REMARK INTRA:                  -0.092
REMARK UNBOUND:                -0.120
REMARK  Name = 1550473
REMARK  2 active torsions:
REMARK  status: ('A' for Active; 'I' for Inactive)
REMARK    1  A    between atoms: N_1  and  C_4
REMARK    2  A    between atoms: C_4  and  C_5
REMARK                            x       y       z     vdW  Elec       q    Type
REMARK                         _______ _______ _______ _____ _____    ______ ____
ROOT
ATOM      1  N   UNL     1     -17.995  -8.872 -12.290  0.00  0.00    -0.354 N 
ATOM      2  N   UNL     1     -17.796  -8.362 -14.540  0.00  0.00    -0.372 N 
ATOM      3  N   UNL     1     -19.738  -7.817 -13.446  0.00  0.00    -0.372 N 
ATOM      4  C   UNL     1     -18.514  -8.353 -13.410  0.00  0.00    +0.166 C 
ATOM      5  H   UNL     1     -17.073  -9.291 -12.335  0.00  0.00    +0.163 HD
ATOM      6  H   UNL     1     -18.160  -7.975 -15.400  0.00  0.00    +0.159 HD
ATOM      7  H   UNL     1     -16.857  -8.740 -14.572  0.00  0.00    +0.159 HD
ATOM      8  H   UNL     1     -20.333  -7.785 -12.629  0.00  0.00    +0.159 HD
ATOM      9  H   UNL     1     -20.125  -7.435 -14.301  0.00  0.00    +0.159 HD
ENDROOT
BRANCH   1  10
ATOM     10  C   UNL     1     -18.672  -8.864 -10.994  0.00  0.00    +0.151 C 
BRANCH  10  11
ATOM     11  C   UNL     1     -17.946  -9.785 -10.054  0.00  0.00    -0.028 A 
ATOM     12  C   UNL     1     -16.907  -9.303  -9.245  0.00  0.00    +0.005 A 
ATOM     13  C   UNL     1     -18.296 -11.141  -9.963  0.00  0.00    +0.005 A 
ATOM     14  C   UNL     1     -16.252 -10.152  -8.350  0.00  0.00    +0.000 A 
ATOM     15  C   UNL     1     -17.639 -11.986  -9.068  0.00  0.00    +0.000 A 
ATOM     16  C   UNL     1     -16.619 -11.490  -8.260  0.00  0.00    +0.000 A 
ENDBRANCH  10  11
ENDBRANCH   1  10
TORSDOF 2
ENDMDL
MODEL 3
REMARK VINA RESULT:    -4.621     16.246     17.610
REMARK INTER + INTRA:          -5.281
REMARK INTER:                  -5.159
REMARK INTRA:                  -0.122
REMARK UNBOUND:                -0.120
REMARK  Name = 1550473
REMARK  2 active torsions:
REMARK  status: ('A' for Active; 'I' for Inactive)
REMARK    1  A    between atoms: N_1  and  C_4
REMARK    2  A    between atoms: C_4  and  C_5
REMARK                            x       y       z     vdW  Elec       q    Type
REMARK                         _______ _______ _______ _____ _____    ______ ____
ROOT
ATOM      1  N   UNL     1      12.795  -5.964  -6.023  0.00  0.00    -0.354 N 
ATOM      2  N   UNL     1      12.419  -6.055  -8.306  0.00  0.00    -0.372 N 
ATOM      3  N   UNL     1      14.396  -5.175  -7.542  0.00  0.00    -0.372 N 
ATOM      4  C   UNL     1      13.208  -5.730  -7.276  0.00  0.00    +0.166 C 
ATOM      5  H   UNL     1      11.872  -6.359  -5.887  0.00  0.00    +0.163 HD
ATOM      6  H   UNL     1      12.705  -5.893  -9.263  0.00  0.00    +0.159 HD
ATOM      7  H   UNL     1      11.516  -6.492  -8.169  0.00  0.00    +0.159 HD
ATOM      8  H   UNL     1      15.035  -4.901  -6.808  0.00  0.00    +0.159 HD
ATOM      9  H   UNL     1      14.695  -4.995  -8.492  0.00  0.00    +0.159 HD
ENDROOT
BRANCH   1  10
ATOM     10  C   UNL     1      13.600  -5.697  -4.833  0.00  0.00    +0.151 C 
BRANCH  10  11
ATOM     11  C   UNL     1      13.142  -6.595  -3.717  0.00  0.00    -0.028 A 
ATOM     12  C   UNL     1      11.842  -7.122  -3.716  0.00  0.00    +0.005 A 
ATOM     13  C   UNL     1      14.005  -6.927  -2.661  0.00  0.00    +0.005 A 
ATOM     14  C   UNL     1      11.426  -7.981  -2.696  0.00  0.00    +0.000 A 
ATOM     15  C   UNL     1      13.585  -7.784  -1.644  0.00  0.00    +0.000 A 
ATOM     16  C   UNL     1      12.296  -8.313  -1.663  0.00  0.00    +0.000 A 
ENDBRANCH  10  11
ENDBRANCH   1  10
TORSDOF 2
ENDMDL
MODEL 4
REMARK VINA RESULT:    -4.452     16.077     17.256
REMARK INTER + INTRA:          -5.092
REMARK INTER:                  -4.968
REMARK INTRA:                  -0.124
REMARK UNBOUND:                -0.120
REMARK  Name = 1550473
REMARK  2 active torsions:
REMARK  status: ('A' for Active; 'I' for Inactive)
REMARK    1  A    between atoms: N_1  and  C_4
REMARK    2  A    between atoms: C_4  and  C_5
REMARK                            x       y       z     vdW  Elec       q    Type
REMARK                         _______ _______ _______ _____ _____    ______ ____
ROOT
ATOM      1  N   UNL     1       8.977  -8.994  -0.285  0.00  0.00    -0.354 N 
ATOM      2  N   UNL     1       7.990  -8.950   1.809  0.00  0.00    -0.372 N 
ATOM      3  N   UNL     1       6.749  -8.319  -0.015  0.00  0.00    -0.372 N 
ATOM      4  C   UNL     1       7.910  -8.753   0.488  0.00  0.00    +0.166 C 
ATOM      5  H   UNL     1       9.837  -9.293   0.160  0.00  0.00    +0.163 HD
ATOM      6  H   UNL     1       7.200  -8.780   2.418  0.00  0.00    +0.159 HD
ATOM      7  H   UNL     1       8.837  -9.292   2.247  0.00  0.00    +0.159 HD
ATOM      8  H   UNL     1       6.625  -8.145  -1.003  0.00  0.00    +0.159 HD
ATOM      9  H   UNL     1       5.951  -8.132   0.579  0.00  0.00    +0.159 HD
ENDROOT
BRANCH   1  10
ATOM     10  C   UNL     1       8.978  -8.863  -1.741  0.00  0.00    +0.151 C 
BRANCH  10  11
ATOM     11  C   UNL     1      10.309  -8.320  -2.185  0.00  0.00    -0.028 A 
ATOM     12  C   UNL     1      10.404  -7.520  -3.333  0.00  0.00    +0.005 A 
ATOM     13  C   UNL     1      11.477  -8.597  -1.458  0.00  0.00    +0.005 A 
ATOM     14  C   UNL     1      11.635  -6.991  -3.729  0.00  0.00    +0.000 A 
ATOM     15  C   UNL     1      12.704  -8.067  -1.857  0.00  0.00    +0.000 A 
ATOM     16  C   UNL     1      12.782  -7.262  -2.990  0.00  0.00    +0.000 A 
ENDBRANCH  10  11
ENDBRANCH   1  10
TORSDOF 2
ENDMDL
MODEL 5
REMARK VINA RESULT:    -4.451     12.941     14.741
REMARK INTER + INTRA:          -5.092
REMARK INTER:                  -4.948
REMARK INTRA:                  -0.143
REMARK UNBOUND:                -0.120
REMARK  Name = 1550473
REMARK  2 active torsions:
REMARK  status: ('A' for Active; 'I' for Inactive)
REMARK    1  A    between atoms: N_1  and  C_4
REMARK    2  A    between atoms: C_4  and  C_5
REMARK                            x       y       z     vdW  Elec       q    Type
REMARK                         _______ _______ _______ _____ _____    ______ ____
ROOT
ATOM      1  N   UNL     1       7.240  -9.856  -0.687  0.00  0.00    -0.354 N 
ATOM      2  N   UNL     1       6.554 -10.129   1.509  0.00  0.00    -0.372 N 
ATOM      3  N   UNL     1       7.844  -8.310   0.967  0.00  0.00    -0.372 N 
ATOM      4  C   UNL     1       7.219  -9.427   0.582  0.00  0.00    +0.166 C 
ATOM      5  H   UNL     1       6.772 -10.727  -0.908  0.00  0.00    +0.163 HD
ATOM      6  H   UNL     1       6.518  -9.828   2.473  0.00  0.00    +0.159 HD
ATOM      7  H   UNL     1       6.049 -10.975   1.275  0.00  0.00    +0.159 HD
ATOM      8  H   UNL     1       8.368  -7.738   0.318  0.00  0.00    +0.159 HD
ATOM      9  H   UNL     1       7.828  -7.999   1.931  0.00  0.00    +0.159 HD
ENDROOT
BRANCH   1  10
ATOM     10  C   UNL     1       7.890  -9.138  -1.782  0.00  0.00    +0.151 C 
BRANCH  10  11
ATOM     11  C   UNL     1       6.836  -8.603  -2.712  0.00  0.00    -0.028 A 
ATOM     12  C   UNL     1       6.733  -9.088  -4.024  0.00  0.00    +0.005 A 
ATOM     13  C   UNL     1       5.934  -7.617  -2.285  0.00  0.00    +0.005 A 
ATOM     14  C   UNL     1       5.735  -8.613  -4.879  0.00  0.00    +0.000 A 
ATOM     15  C   UNL     1       4.939  -7.145  -3.142  0.00  0.00    +0.000 A 
ATOM     16  C   UNL     1       4.839  -7.645  -4.438  0.00  0.00    +0.000 A 
ENDBRANCH  10  11
ENDBRANCH   1  10
TORSDOF 2
ENDMDL
MODEL 6
REMARK VINA RESULT:    -4.451     17.445     18.583
REMARK INTER + INTRA:          -5.092
REMARK INTER:                  -4.969
REMARK INTRA:                  -0.122
REMARK UNBOUND:                -0.120
REMARK  Name = 1550473
REMARK  2 active torsions:
REMARK  status: ('A' for Active; 'I' for Inactive)
REMARK    1  A    between atoms: N_1  and  C_4
REMARK    2  A    between atoms: C_4  and  C_5
REMARK                            x       y       z     vdW  Elec       q    Type
REMARK                         _______ _______ _______ _____ _____    ______ ____
ROOT
ATOM      1  N   UNL     1     -19.397  -7.763 -12.126  0.00  0.00    -0.354 N 
ATOM      2  N   UNL     1     -21.016  -7.236 -13.696  0.00  0.00    -0.372 N 
ATOM      3  N   UNL     1     -20.473  -5.681 -12.099  0.00  0.00    -0.372 N 
ATOM      4  C   UNL     1     -20.285  -6.895 -12.628  0.00  0.00    +0.166 C 
ATOM      5  H   UNL     1     -19.324  -8.679 -12.554  0.00  0.00    +0.163 HD
ATOM      6  H   UNL     1     -21.691  -6.601 -14.100  0.00  0.00    +0.159 HD
ATOM      7  H   UNL     1     -20.907  -8.135 -14.151  0.00  0.00    +0.159 HD
ATOM      8  H   UNL     1     -19.957  -5.365 -11.289  0.00  0.00    +0.159 HD
ATOM      9  H   UNL     1     -21.152  -5.035 -12.481  0.00  0.00    +0.159 HD
ENDROOT
BRANCH   1  10
ATOM     10  C   UNL     1     -18.514  -7.469 -10.999  0.00  0.00    +0.151 C 
BRANCH  10  11
ATOM     11  C   UNL     1     -17.788  -8.726 -10.603  0.00  0.00    -0.028 A 
ATOM     12  C   UNL     1     -17.038  -8.772  -9.418  0.00  0.00    +0.005 A 
ATOM     13  C   UNL     1     -17.851  -9.875 -11.405  0.00  0.00    +0.005 A 
ATOM     14  C   UNL     1     -16.389  -9.948  -9.035  0.00  0.00    +0.000 A 
ATOM     15  C   UNL     1     -17.200 -11.047 -11.020  0.00  0.00    +0.000 A 
ATOM     16  C   UNL     1     -16.471 -11.084  -9.833  0.00  0.00    +0.000 A 
ENDBRANCH  10  11
ENDBRANCH   1  10
TORSDOF 2
ENDMDL
MODEL 7
REMARK VINA RESULT:    -4.386     12.555     14.965
REMARK INTER + INTRA:          -5.018
REMARK INTER:                  -4.863
REMARK INTRA:                  -0.156
REMARK UNBOUND:                -0.120
REMARK  Name = 1550473
REMARK  2 active torsions:
REMARK  status: ('A' for Active; 'I' for Inactive)
REMARK    1  A    between atoms: N_1  and  C_4
REMARK    2  A    between atoms: C_4  and  C_5
REMARK                            x       y       z     vdW  Elec       q    Type
REMARK                         _______ _______ _______ _____ _____    ______ ____
ROOT
ATOM      1  N   UNL     1       7.749  -6.941  -4.531  0.00  0.00    -0.354 N 
ATOM      2  N   UNL     1       7.609  -7.806  -6.675  0.00  0.00    -0.372 N 
ATOM      3  N   UNL     1       5.788  -7.976  -5.289  0.00  0.00    -0.372 N 
ATOM      4  C   UNL     1       7.047  -7.569  -5.483  0.00  0.00    +0.166 C 
ATOM      5  H   UNL     1       8.709  -6.685  -4.730  0.00  0.00    +0.163 HD
ATOM      6  H   UNL     1       7.104  -8.275  -7.414  0.00  0.00    +0.159 HD
ATOM      7  H   UNL     1       8.554  -7.508  -6.887  0.00  0.00    +0.159 HD
ATOM      8  H   UNL     1       5.309  -7.833  -4.411  0.00  0.00    +0.159 HD
ATOM      9  H   UNL     1       5.269  -8.458  -6.013  0.00  0.00    +0.159 HD
ENDROOT
BRANCH   1  10
ATOM     10  C   UNL     1       7.211  -6.587  -3.218  0.00  0.00    +0.151 C 
BRANCH  10  11
ATOM     11  C   UNL     1       7.878  -7.436  -2.170  0.00  0.00    -0.028 A 
ATOM     12  C   UNL     1       7.164  -7.865  -1.042  0.00  0.00    +0.005 A 
ATOM     13  C   UNL     1       9.221  -7.819  -2.303  0.00  0.00    +0.005 A 
ATOM     14  C   UNL     1       7.773  -8.678  -0.083  0.00  0.00    +0.000 A 
ATOM     15  C   UNL     1       9.826  -8.630  -1.343  0.00  0.00    +0.000 A 
ATOM     16  C   UNL     1       9.102  -9.061  -0.235  0.00  0.00    +0.000 A 
ENDBRANCH  10  11
ENDBRANCH   1  10
TORSDOF 2
ENDMDL
MODEL 8
REMARK VINA RESULT:    -4.331     15.788     16.872
REMARK INTER + INTRA:          -4.957
REMARK INTER:                  -4.811
REMARK INTRA:                  -0.147
REMARK UNBOUND:                -0.120
REMARK  Name = 1550473
REMARK  2 active torsions:
REMARK  status: ('A' for Active; 'I' for Inactive)
REMARK    1  A    between atoms: N_1  and  C_4
REMARK    2  A    between atoms: C_4  and  C_5
REMARK                            x       y       z     vdW  Elec       q    Type
REMARK                         _______ _______ _______ _____ _____    ______ ____
ROOT
ATOM      1  N   UNL     1      12.240  -6.797  -4.315  0.00  0.00    -0.354 N 
ATOM      2  N   UNL     1      13.037  -4.848  -5.279  0.00  0.00    -0.372 N 
ATOM      3  N   UNL     1      13.911  -5.529  -3.270  0.00  0.00    -0.372 N 
ATOM      4  C   UNL     1      13.059  -5.737  -4.279  0.00  0.00    +0.166 C 
ATOM      5  H   UNL     1      11.596  -6.881  -5.093  0.00  0.00    +0.163 HD
ATOM      6  H   UNL     1      13.646  -4.040  -5.281  0.00  0.00    +0.159 HD
ATOM      7  H   UNL     1      12.425  -4.959  -6.078  0.00  0.00    +0.159 HD
ATOM      8  H   UNL     1      13.972  -6.160  -2.482  0.00  0.00    +0.159 HD
ATOM      9  H   UNL     1      14.521  -4.721  -3.248  0.00  0.00    +0.159 HD
ENDROOT
BRANCH   1  10
ATOM     10  C   UNL     1      12.223  -7.852  -3.303  0.00  0.00    +0.151 C 
BRANCH  10  11
ATOM     11  C   UNL     1      10.851  -7.923  -2.691  0.00  0.00    -0.028 A 
ATOM     12  C   UNL     1      10.612  -8.733  -1.571  0.00  0.00    +0.005 A 
ATOM     13  C   UNL     1       9.787  -7.179  -3.223  0.00  0.00    +0.005 A 
ATOM     14  C   UNL     1       9.345  -8.777  -0.984  0.00  0.00    +0.000 A 
ATOM     15  C   UNL     1       8.523  -7.227  -2.635  0.00  0.00    +0.000 A 
ATOM     16  C   UNL     1       8.303  -8.024  -1.514  0.00  0.00    +0.000 A 
ENDBRANCH  10  11
ENDBRANCH   1  10
TORSDOF 2
ENDMDL
MODEL 9
REMARK VINA RESULT:    -4.302     15.980     17.181
REMARK INTER + INTRA:          -4.925
REMARK INTER:                  -4.790
REMARK INTRA:                  -0.135
REMARK UNBOUND:                -0.120
REMARK  Name = 1550473
REMARK  2 active torsions:
REMARK  status: ('A' for Active; 'I' for Inactive)
REMARK    1  A    between atoms: N_1  and  C_4
REMARK    2  A    between atoms: C_4  and  C_5
REMARK                            x       y       z     vdW  Elec       q    Type
REMARK                         _______ _______ _______ _____ _____    ______ ____
ROOT
ATOM      1  N   UNL     1      12.952  -6.377  -5.152  0.00  0.00    -0.354 N 
ATOM      2  N   UNL     1      13.273  -4.795  -6.813  0.00  0.00    -0.372 N 
ATOM      3  N   UNL     1      14.721  -4.845  -5.034  0.00  0.00    -0.372 N 
ATOM      4  C   UNL     1      13.648  -5.348  -5.654  0.00  0.00    +0.166 C 
ATOM      5  H   UNL     1      12.130  -6.692  -5.655  0.00  0.00    +0.163 HD
ATOM      6  H   UNL     1      13.781  -4.020  -7.217  0.00  0.00    +0.159 HD
ATOM      7  H   UNL     1      12.478  -5.142  -7.336  0.00  0.00    +0.159 HD
ATOM      8  H   UNL     1      15.053  -5.214  -4.153  0.00  0.00    +0.159 HD
ATOM      9  H   UNL     1      15.236  -4.062  -5.417  0.00  0.00    +0.159 HD
ENDROOT
BRANCH   1  10
ATOM     10  C   UNL     1      13.309  -7.085  -3.924  0.00  0.00    +0.151 C 
BRANCH  10  11
ATOM     11  C   UNL     1      12.051  -7.507  -3.217  0.00  0.00    -0.028 A 
ATOM     12  C   UNL     1      10.794  -7.147  -3.724  0.00  0.00    +0.005 A 
ATOM     13  C   UNL     1      12.109  -8.272  -2.042  0.00  0.00    +0.005 A 
ATOM     14  C   UNL     1       9.624  -7.565  -3.084  0.00  0.00    +0.000 A 
ATOM     15  C   UNL     1      10.939  -8.686  -1.405  0.00  0.00    +0.000 A 
ATOM     16  C   UNL     1       9.697  -8.334  -1.928  0.00  0.00    +0.000 A 
ENDBRANCH  10  11
ENDBRANCH   1  10
TORSDOF 2
ENDMDL
