MODEL 1
REMARK VINA RESULT:    -6.473      0.000      0.000
REMARK INTER + INTRA:          -7.375
REMARK INTER:                  -7.230
REMARK INTRA:                  -0.145
REMARK UNBOUND:                -0.145
REMARK  Name = 1550473
REMARK  2 active torsions:
REMARK  status: ('A' for Active; 'I' for Inactive)
REMARK    1  A    between atoms: N_1  and  C_4
REMARK    2  A    between atoms: C_4  and  C_5
REMARK                            x       y       z     vdW  Elec       q    Type
REMARK                         _______ _______ _______ _____ _____    ______ ____
ROOT
ATOM      1  N   UNL     1      -0.710   7.291   6.366  0.00  0.00    -0.354 N 
ATOM      2  N   UNL     1      -1.645   8.457   8.135  0.00  0.00    -0.372 N 
ATOM      3  N   UNL     1      -2.947   6.962   6.979  0.00  0.00    -0.372 N 
ATOM      4  C   UNL     1      -1.764   7.561   7.148  0.00  0.00    +0.166 C 
ATOM      5  H   UNL     1       0.152   7.801   6.526  0.00  0.00    +0.163 HD
ATOM      6  H   UNL     1      -2.422   8.679   8.743  0.00  0.00    +0.159 HD
ATOM      7  H   UNL     1      -0.770   8.932   8.322  0.00  0.00    +0.159 HD
ATOM      8  H   UNL     1      -3.104   6.281   6.249  0.00  0.00    +0.159 HD
ATOM      9  H   UNL     1      -3.740   7.180   7.570  0.00  0.00    +0.159 HD
ENDROOT
BRANCH   1  10
ATOM     10  C   UNL     1      -0.718   6.293   5.298  0.00  0.00    +0.151 C 
BRANCH  10  11
ATOM     11  C   UNL     1       0.254   5.198   5.641  0.00  0.00    -0.028 A 
ATOM     12  C   UNL     1       1.579   5.504   5.983  0.00  0.00    +0.005 A 
ATOM     13  C   UNL     1      -0.146   3.853   5.631  0.00  0.00    +0.005 A 
ATOM     14  C   UNL     1       2.474   4.489   6.331  0.00  0.00    +0.000 A 
ATOM     15  C   UNL     1       0.751   2.843   5.978  0.00  0.00    +0.000 A 
ATOM     16  C   UNL     1       2.060   3.161   6.331  0.00  0.00    +0.000 A 
ENDBRANCH  10  11
ENDBRANCH   1  10
TORSDOF 2
ENDMDL
MODEL 2
REMARK VINA RESULT:    -6.438      2.166      2.751
REMARK INTER + INTRA:          -7.336
REMARK INTER:                  -7.163
REMARK INTRA:                  -0.173
REMARK UNBOUND:                -0.145
REMARK  Name = 1550473
REMARK  2 active torsions:
REMARK  status: ('A' for Active; 'I' for Inactive)
REMARK    1  A    between atoms: N_1  and  C_4
REMARK    2  A    between atoms: C_4  and  C_5
REMARK                            x       y       z     vdW  Elec       q    Type
REMARK                         _______ _______ _______ _____ _____    ______ ____
ROOT
ATOM      1  N   UNL     1      -1.872   5.672   4.920  0.00  0.00    -0.354 N 
ATOM      2  N   UNL     1      -3.186   4.895   3.178  0.00  0.00    -0.372 N 
ATOM      3  N   UNL     1      -3.354   3.883   5.230  0.00  0.00    -0.372 N 
ATOM      4  C   UNL     1      -2.796   4.820   4.456  0.00  0.00    +0.166 C 
ATOM      5  H   UNL     1      -1.466   6.339   4.275  0.00  0.00    +0.163 HD
ATOM      6  H   UNL     1      -3.884   4.268   2.800  0.00  0.00    +0.159 HD
ATOM      7  H   UNL     1      -2.812   5.593   2.547  0.00  0.00    +0.159 HD
ATOM      8  H   UNL     1      -3.099   3.770   6.202  0.00  0.00    +0.159 HD
ATOM      9  H   UNL     1      -4.045   3.238   4.868  0.00  0.00    +0.159 HD
ENDROOT
BRANCH   1  10
ATOM     10  C   UNL     1      -1.418   5.709   6.309  0.00  0.00    +0.151 C 
BRANCH  10  11
ATOM     11  C   UNL     1      -0.035   5.126   6.389  0.00  0.00    -0.028 A 
ATOM     12  C   UNL     1       1.057   5.803   5.827  0.00  0.00    +0.005 A 
ATOM     13  C   UNL     1       0.193   3.899   7.031  0.00  0.00    +0.005 A 
ATOM     14  C   UNL     1       2.347   5.277   5.927  0.00  0.00    +0.000 A 
ATOM     15  C   UNL     1       1.482   3.376   7.129  0.00  0.00    +0.000 A 
ATOM     16  C   UNL     1       2.559   4.066   6.578  0.00  0.00    +0.000 A 
ENDBRANCH  10  11
ENDBRANCH   1  10
TORSDOF 2
ENDMDL
MODEL 3
REMARK VINA RESULT:    -6.362      2.082      3.025
REMARK INTER + INTRA:          -7.251
REMARK INTER:                  -7.114
REMARK INTRA:                  -0.138
REMARK UNBOUND:                -0.145
REMARK  Name = 1550473
REMARK  2 active torsions:
REMARK  status: ('A' for Active; 'I' for Inactive)
REMARK    1  A    between atoms: N_1  and  C_4
REMARK    2  A    between atoms: C_4  and  C_5
REMARK                            x       y       z     vdW  Elec       q    Type
REMARK                         _______ _______ _______ _____ _____    ______ ____
ROOT
ATOM      1  N   UNL     1      -1.802   4.942   5.673  0.00  0.00    -0.354 N 
ATOM      2  N   UNL     1      -3.751   3.709   5.462  0.00  0.00    -0.372 N 
ATOM      3  N   UNL     1      -2.951   4.840   3.633  0.00  0.00    -0.372 N 
ATOM      4  C   UNL     1      -2.822   4.506   4.922  0.00  0.00    +0.166 C 
ATOM      5  H   UNL     1      -1.778   4.677   6.651  0.00  0.00    +0.163 HD
ATOM      6  H   UNL     1      -4.530   3.361   4.919  0.00  0.00    +0.159 HD
ATOM      7  H   UNL     1      -3.699   3.408   6.428  0.00  0.00    +0.159 HD
ATOM      8  H   UNL     1      -2.287   5.444   3.168  0.00  0.00    +0.159 HD
ATOM      9  H   UNL     1      -3.730   4.513   3.076  0.00  0.00    +0.159 HD
ENDROOT
BRANCH   1  10
ATOM     10  C   UNL     1      -0.709   5.770   5.168  0.00  0.00    +0.151 C 
BRANCH  10  11
ATOM     11  C   UNL     1       0.595   5.235   5.691  0.00  0.00    -0.028 A 
ATOM     12  C   UNL     1       0.754   3.863   5.940  0.00  0.00    +0.005 A 
ATOM     13  C   UNL     1       1.679   6.093   5.934  0.00  0.00    +0.005 A 
ATOM     14  C   UNL     1       1.975   3.362   6.397  0.00  0.00    +0.000 A 
ATOM     15  C   UNL     1       2.896   5.588   6.391  0.00  0.00    +0.000 A 
ATOM     16  C   UNL     1       3.044   4.222   6.620  0.00  0.00    +0.000 A 
ENDBRANCH  10  11
ENDBRANCH   1  10
TORSDOF 2
ENDMDL
MODEL 4
REMARK VINA RESULT:    -6.282      2.740      3.812
REMARK INTER + INTRA:          -7.161
REMARK INTER:                  -7.012
REMARK INTRA:                  -0.149
REMARK UNBOUND:                -0.145
REMARK  Name = 1550473
REMARK  2 active torsions:
REMARK  status: ('A' for Active; 'I' for Inactive)
REMARK    1  A    between atoms: N_1  and  C_4
REMARK    2  A    between atoms: C_4  and  C_5
REMARK                            x       y       z     vdW  Elec       q    Type
REMARK                         _______ _______ _______ _____ _____    ______ ____
ROOT
ATOM      1  N   UNL     1      -1.707   2.432   5.778  0.00  0.00    -0.354 N 
ATOM      2  N   UNL     1      -3.102   2.213   3.942  0.00  0.00    -0.372 N 
ATOM      3  N   UNL     1      -3.479   3.925   5.424  0.00  0.00    -0.372 N 
ATOM      4  C   UNL     1      -2.755   2.860   5.061  0.00  0.00    +0.166 C 
ATOM      5  H   UNL     1      -1.218   1.601   5.466  0.00  0.00    +0.163 HD
ATOM      6  H   UNL     1      -3.886   2.515   3.379  0.00  0.00    +0.159 HD
ATOM      7  H   UNL     1      -2.583   1.410   3.608  0.00  0.00    +0.159 HD
ATOM      8  H   UNL     1      -3.272   4.453   6.261  0.00  0.00    +0.159 HD
ATOM      9  H   UNL     1      -4.274   4.235   4.880  0.00  0.00    +0.159 HD
ENDROOT
BRANCH   1  10
ATOM     10  C   UNL     1      -1.213   3.098   6.982  0.00  0.00    +0.151 C 
BRANCH  10  11
ATOM     11  C   UNL     1       0.040   3.857   6.645  0.00  0.00    -0.028 A 
ATOM     12  C   UNL     1      -0.030   5.086   5.974  0.00  0.00    +0.005 A 
ATOM     13  C   UNL     1       1.302   3.354   7.000  0.00  0.00    +0.005 A 
ATOM     14  C   UNL     1       1.132   5.806   5.688  0.00  0.00    +0.000 A 
ATOM     15  C   UNL     1       2.460   4.076   6.711  0.00  0.00    +0.000 A 
ATOM     16  C   UNL     1       2.375   5.302   6.057  0.00  0.00    +0.000 A 
ENDBRANCH  10  11
ENDBRANCH   1  10
TORSDOF 2
ENDMDL
MODEL 5
REMARK VINA RESULT:    -6.030      1.808      2.560
REMARK INTER + INTRA:          -6.880
REMARK INTER:                  -6.739
REMARK INTRA:                  -0.141
REMARK UNBOUND:                -0.145
REMARK  Name = 1550473
REMARK  2 active torsions:
REMARK  status: ('A' for Active; 'I' for Inactive)
REMARK    1  A    between atoms: N_1  and  C_4
REMARK    2  A    between atoms: C_4  and  C_5
REMARK                            x       y       z     vdW  Elec       q    Type
REMARK                         _______ _______ _______ _____ _____    ______ ____
ROOT
ATOM      1  N   UNL     1      -3.001   5.590   5.792  0.00  0.00    -0.354 N 
ATOM      2  N   UNL     1      -4.374   7.422   6.145  0.00  0.00    -0.372 N 
ATOM      3  N   UNL     1      -3.841   6.835   3.992  0.00  0.00    -0.372 N 
ATOM      4  C   UNL     1      -3.729   6.604   5.305  0.00  0.00    +0.166 C 
ATOM      5  H   UNL     1      -2.932   5.487   6.798  0.00  0.00    +0.163 HD
ATOM      6  H   UNL     1      -4.934   8.193   5.807  0.00  0.00    +0.159 HD
ATOM      7  H   UNL     1      -4.341   7.289   7.149  0.00  0.00    +0.159 HD
ATOM      8  H   UNL     1      -3.374   6.258   3.305  0.00  0.00    +0.159 HD
ATOM      9  H   UNL     1      -4.387   7.608   3.634  0.00  0.00    +0.159 HD
ENDROOT
BRANCH   1  10
ATOM     10  C   UNL     1      -2.304   4.611   4.960  0.00  0.00    +0.151 C 
BRANCH  10  11
ATOM     11  C   UNL     1      -0.841   4.623   5.309  0.00  0.00    -0.028 A 
ATOM     12  C   UNL     1      -0.144   3.420   5.494  0.00  0.00    +0.005 A 
ATOM     13  C   UNL     1      -0.146   5.834   5.448  0.00  0.00    +0.005 A 
ATOM     14  C   UNL     1       1.222   3.431   5.788  0.00  0.00    +0.000 A 
ATOM     15  C   UNL     1       1.218   5.840   5.743  0.00  0.00    +0.000 A 
ATOM     16  C   UNL     1       1.902   4.638   5.910  0.00  0.00    +0.000 A 
ENDBRANCH  10  11
ENDBRANCH   1  10
TORSDOF 2
ENDMDL
MODEL 6
REMARK VINA RESULT:    -5.674      4.649      5.836
REMARK INTER + INTRA:          -6.483
REMARK INTER:                  -6.364
REMARK INTRA:                  -0.118
REMARK UNBOUND:                -0.145
REMARK  Name = 1550473
REMARK  2 active torsions:
REMARK  status: ('A' for Active; 'I' for Inactive)
REMARK    1  A    between atoms: N_1  and  C_4
REMARK    2  A    between atoms: C_4  and  C_5
REMARK                            x       y       z     vdW  Elec       q    Type
REMARK                         _______ _______ _______ _____ _____    ______ ____
ROOT
ATOM      1  N   UNL     1       0.068   0.205   6.854  0.00  0.00    -0.354 N 
ATOM      2  N   UNL     1       0.593  -2.009   7.286  0.00  0.00    -0.372 N 
ATOM      3  N   UNL     1      -1.613  -1.379   7.248  0.00  0.00    -0.372 N 
ATOM      4  C   UNL     1      -0.324  -1.047   7.127  0.00  0.00    +0.166 C 
ATOM      5  H   UNL     1       1.062   0.398   6.805  0.00  0.00    +0.163 HD
ATOM      6  H   UNL     1       0.327  -2.963   7.489  0.00  0.00    +0.159 HD
ATOM      7  H   UNL     1       1.583  -1.823   7.191  0.00  0.00    +0.159 HD
ATOM      8  H   UNL     1      -2.354  -0.698   7.145  0.00  0.00    +0.159 HD
ATOM      9  H   UNL     1      -1.899  -2.326   7.462  0.00  0.00    +0.159 HD
ENDROOT
BRANCH   1  10
ATOM     10  C   UNL     1      -0.851   1.315   6.610  0.00  0.00    +0.151 C 
BRANCH  10  11
ATOM     11  C   UNL     1      -0.057   2.543   6.262  0.00  0.00    -0.028 A 
ATOM     12  C   UNL     1      -0.646   3.592   5.541  0.00  0.00    +0.005 A 
ATOM     13  C   UNL     1       1.284   2.667   6.655  0.00  0.00    +0.005 A 
ATOM     14  C   UNL     1       0.082   4.746   5.244  0.00  0.00    +0.000 A 
ATOM     15  C   UNL     1       2.009   3.821   6.356  0.00  0.00    +0.000 A 
ATOM     16  C   UNL     1       1.407   4.861   5.652  0.00  0.00    +0.000 A 
ENDBRANCH  10  11
ENDBRANCH   1  10
TORSDOF 2
ENDMDL
MODEL 7
REMARK VINA RESULT:    -5.436      1.455      2.550
REMARK INTER + INTRA:          -6.217
REMARK INTER:                  -6.127
REMARK INTRA:                  -0.090
REMARK UNBOUND:                -0.145
REMARK  Name = 1550473
REMARK  2 active torsions:
REMARK  status: ('A' for Active; 'I' for Inactive)
REMARK    1  A    between atoms: N_1  and  C_4
REMARK    2  A    between atoms: C_4  and  C_5
REMARK                            x       y       z     vdW  Elec       q    Type
REMARK                         _______ _______ _______ _____ _____    ______ ____
ROOT
ATOM      1  N   UNL     1      -1.444   5.370   5.126  0.00  0.00    -0.354 N 
ATOM      2  N   UNL     1      -3.509   6.236   5.717  0.00  0.00    -0.372 N 
ATOM      3  N   UNL     1      -1.716   6.601   7.101  0.00  0.00    -0.372 N 
ATOM      4  C   UNL     1      -2.208   6.064   5.980  0.00  0.00    +0.166 C 
ATOM      5  H   UNL     1      -1.884   4.962   4.308  0.00  0.00    +0.163 HD
ATOM      6  H   UNL     1      -4.110   6.757   6.341  0.00  0.00    +0.159 HD
ATOM      7  H   UNL     1      -3.936   5.866   4.876  0.00  0.00    +0.159 HD
ATOM      8  H   UNL     1      -0.744   6.503   7.360  0.00  0.00    +0.159 HD
ATOM      9  H   UNL     1      -2.304   7.117   7.744  0.00  0.00    +0.159 HD
ENDROOT
BRANCH   1  10
ATOM     10  C   UNL     1      -0.005   5.171   5.292  0.00  0.00    +0.151 C 
BRANCH  10  11
ATOM     11  C   UNL     1       0.248   3.753   5.721  0.00  0.00    -0.028 A 
ATOM     12  C   UNL     1      -0.820   2.861   5.901  0.00  0.00    +0.005 A 
ATOM     13  C   UNL     1       1.555   3.292   5.945  0.00  0.00    +0.005 A 
ATOM     14  C   UNL     1      -0.583   1.535   6.271  0.00  0.00    +0.000 A 
ATOM     15  C   UNL     1       1.787   1.967   6.315  0.00  0.00    +0.000 A 
ATOM     16  C   UNL     1       0.718   1.089   6.476  0.00  0.00    +0.000 A 
ENDBRANCH  10  11
ENDBRANCH   1  10
TORSDOF 2
ENDMDL
MODEL 8
REMARK VINA RESULT:    -5.259     13.649     15.016
REMARK INTER + INTRA:          -6.019
REMARK INTER:                  -5.894
REMARK INTRA:                  -0.125
REMARK UNBOUND:                -0.145
REMARK  Name = 1550473
REMARK  2 active torsions:
REMARK  status: ('A' for Active; 'I' for Inactive)
REMARK    1  A    between atoms: N_1  and  C_4
REMARK    2  A    between atoms: C_4  and  C_5
REMARK                            x       y       z     vdW  Elec       q    Type
REMARK                         _______ _______ _______ _____ _____    ______ ____
ROOT
ATOM      1  N   UNL     1     -11.402   4.476  14.389  0.00  0.00    -0.354 N 
ATOM      2  N   UNL     1     -10.890   5.857  12.602  0.00  0.00    -0.372 N 
ATOM      3  N   UNL     1     -13.062   5.748  13.332  0.00  0.00    -0.372 N 
ATOM      4  C   UNL     1     -11.791   5.352  13.453  0.00  0.00    +0.166 C 
ATOM      5  H   UNL     1     -10.429   4.193  14.409  0.00  0.00    +0.163 HD
ATOM      6  H   UNL     1     -11.153   6.523  11.888  0.00  0.00    +0.159 HD
ATOM      7  H   UNL     1      -9.909   5.608  12.654  0.00  0.00    +0.159 HD
ATOM      8  H   UNL     1     -13.792   5.400  13.939  0.00  0.00    +0.159 HD
ATOM      9  H   UNL     1     -13.347   6.404  12.616  0.00  0.00    +0.159 HD
ENDROOT
BRANCH   1  10
ATOM     10  C   UNL     1     -12.295   3.908  15.398  0.00  0.00    +0.151 C 
BRANCH  10  11
ATOM     11  C   UNL     1     -12.112   2.416  15.431  0.00  0.00    -0.028 A 
ATOM     12  C   UNL     1     -13.224   1.562  15.439  0.00  0.00    +0.005 A 
ATOM     13  C   UNL     1     -10.828   1.849  15.448  0.00  0.00    +0.005 A 
ATOM     14  C   UNL     1     -13.055   0.175  15.439  0.00  0.00    +0.000 A 
ATOM     15  C   UNL     1     -10.663   0.464  15.448  0.00  0.00    +0.000 A 
ATOM     16  C   UNL     1     -11.777  -0.373  15.442  0.00  0.00    +0.000 A 
ENDBRANCH  10  11
ENDBRANCH   1  10
TORSDOF 2
ENDMDL
MODEL 9
REMARK VINA RESULT:    -5.202     25.580     26.997
REMARK INTER + INTRA:          -5.955
REMARK INTER:                  -5.789
REMARK INTRA:                  -0.166
REMARK UNBOUND:                -0.145
REMARK  Name = 1550473
REMARK  2 active torsions:
REMARK  status: ('A' for Active; 'I' for Inactive)
REMARK    1  A    between atoms: N_1  and  C_4
REMARK    2  A    between atoms: C_4  and  C_5
REMARK                            x       y       z     vdW  Elec       q    Type
REMARK                         _______ _______ _______ _____ _____    ______ ____
ROOT
ATOM      1  N   UNL     1       3.116 -15.150 -12.107  0.00  0.00    -0.354 N 
ATOM      2  N   UNL     1       4.695 -16.306 -10.868  0.00  0.00    -0.372 N 
ATOM      3  N   UNL     1       5.387 -15.082 -12.681  0.00  0.00    -0.372 N 
ATOM      4  C   UNL     1       4.390 -15.504 -11.895  0.00  0.00    +0.166 C 
ATOM      5  H   UNL     1       2.403 -15.529 -11.494  0.00  0.00    +0.163 HD
ATOM      6  H   UNL     1       5.648 -16.587 -10.681  0.00  0.00    +0.159 HD
ATOM      7  H   UNL     1       3.986 -16.646 -10.229  0.00  0.00    +0.159 HD
ATOM      8  H   UNL     1       5.223 -14.480 -13.476  0.00  0.00    +0.159 HD
ATOM      9  H   UNL     1       6.346 -15.362 -12.517  0.00  0.00    +0.159 HD
ENDROOT
BRANCH   1  10
ATOM     10  C   UNL     1       2.685 -14.239 -13.165  0.00  0.00    +0.151 C 
BRANCH  10  11
ATOM     11  C   UNL     1       2.214 -12.953 -12.544  0.00  0.00    -0.028 A 
ATOM     12  C   UNL     1       0.931 -12.861 -11.985  0.00  0.00    +0.005 A 
ATOM     13  C   UNL     1       3.047 -11.824 -12.508  0.00  0.00    +0.005 A 
ATOM     14  C   UNL     1       0.504 -11.676 -11.381  0.00  0.00    +0.000 A 
ATOM     15  C   UNL     1       2.616 -10.643 -11.905  0.00  0.00    +0.000 A 
ATOM     16  C   UNL     1       1.345 -10.570 -11.339  0.00  0.00    +0.000 A 
ENDBRANCH  10  11
ENDBRANCH   1  10
TORSDOF 2
ENDMDL
