MODEL 1
REMARK VINA RESULT:    -4.732      0.000      0.000
REMARK INTER + INTRA:          -5.417
REMARK INTER:                  -5.285
REMARK INTRA:                  -0.132
REMARK UNBOUND:                -0.132
REMARK  Name = 1550473
REMARK  2 active torsions:
REMARK  status: ('A' for Active; 'I' for Inactive)
REMARK    1  A    between atoms: N_1  and  C_4
REMARK    2  A    between atoms: C_4  and  C_5
REMARK                            x       y       z     vdW  Elec       q    Type
REMARK                         _______ _______ _______ _____ _____    ______ ____
ROOT
ATOM      1  N   UNL     1      -2.473  -1.487   9.417  0.00  0.00    -0.354 N 
ATOM      2  N   UNL     1      -0.211  -1.859   9.082  0.00  0.00    -0.372 N 
ATOM      3  N   UNL     1      -1.135   0.105   8.336  0.00  0.00    -0.372 N 
ATOM      4  C   UNL     1      -1.288  -1.075   8.946  0.00  0.00    +0.166 C 
ATOM      5  H   UNL     1      -2.529  -2.406   9.842  0.00  0.00    +0.163 HD
ATOM      6  H   UNL     1       0.696  -1.573   8.740  0.00  0.00    +0.159 HD
ATOM      7  H   UNL     1      -0.261  -2.756   9.548  0.00  0.00    +0.159 HD
ATOM      8  H   UNL     1      -1.910   0.740   8.196  0.00  0.00    +0.159 HD
ATOM      9  H   UNL     1      -0.237   0.403   7.976  0.00  0.00    +0.159 HD
ENDROOT
BRANCH   1  10
ATOM     10  C   UNL     1      -3.695  -0.687   9.367  0.00  0.00    +0.151 C 
BRANCH  10  11
ATOM     11  C   UNL     1      -4.472  -0.898  10.637  0.00  0.00    -0.028 A 
ATOM     12  C   UNL     1      -4.189  -1.989  11.472  0.00  0.00    +0.005 A 
ATOM     13  C   UNL     1      -5.489  -0.008  11.014  0.00  0.00    +0.005 A 
ATOM     14  C   UNL     1      -4.890  -2.168  12.667  0.00  0.00    +0.000 A 
ATOM     15  C   UNL     1      -6.187  -0.191  12.208  0.00  0.00    +0.000 A 
ATOM     16  C   UNL     1      -5.886  -1.270  13.035  0.00  0.00    +0.000 A 
ENDBRANCH  10  11
ENDBRANCH   1  10
TORSDOF 2
ENDMDL
MODEL 2
REMARK VINA RESULT:    -4.679     28.303     30.237
REMARK INTER + INTRA:          -5.357
REMARK INTER:                  -5.182
REMARK INTRA:                  -0.175
REMARK UNBOUND:                -0.132
REMARK  Name = 1550473
REMARK  2 active torsions:
REMARK  status: ('A' for Active; 'I' for Inactive)
REMARK    1  A    between atoms: N_1  and  C_4
REMARK    2  A    between atoms: C_4  and  C_5
REMARK                            x       y       z     vdW  Elec       q    Type
REMARK                         _______ _______ _______ _____ _____    ______ ____
ROOT
ATOM      1  N   UNL     1      23.521  -1.173  21.618  0.00  0.00    -0.354 N 
ATOM      2  N   UNL     1      21.539  -2.216  21.029  0.00  0.00    -0.372 N 
ATOM      3  N   UNL     1      23.501  -2.952  20.093  0.00  0.00    -0.372 N 
ATOM      4  C   UNL     1      22.869  -2.108  20.916  0.00  0.00    +0.166 C 
ATOM      5  H   UNL     1      22.981  -0.544  22.201  0.00  0.00    +0.163 HD
ATOM      6  H   UNL     1      21.020  -2.914  20.514  0.00  0.00    +0.159 HD
ATOM      7  H   UNL     1      21.007  -1.616  21.647  0.00  0.00    +0.159 HD
ATOM      8  H   UNL     1      24.503  -2.918  19.958  0.00  0.00    +0.159 HD
ATOM      9  H   UNL     1      22.997  -3.650  19.560  0.00  0.00    +0.159 HD
ENDROOT
BRANCH   1  10
ATOM     10  C   UNL     1      24.974  -1.007  21.607  0.00  0.00    +0.151 C 
BRANCH  10  11
ATOM     11  C   UNL     1      25.338   0.068  20.621  0.00  0.00    -0.028 A 
ATOM     12  C   UNL     1      24.915   1.390  20.820  0.00  0.00    +0.005 A 
ATOM     13  C   UNL     1      26.111  -0.229  19.488  0.00  0.00    +0.005 A 
ATOM     14  C   UNL     1      25.278   2.395  19.919  0.00  0.00    +0.000 A 
ATOM     15  C   UNL     1      26.471   0.777  18.590  0.00  0.00    +0.000 A 
ATOM     16  C   UNL     1      26.056   2.089  18.808  0.00  0.00    +0.000 A 
ENDBRANCH  10  11
ENDBRANCH   1  10
TORSDOF 2
ENDMDL
MODEL 3
REMARK VINA RESULT:    -4.439     28.690     29.842
REMARK INTER + INTRA:          -5.090
REMARK INTER:                  -4.991
REMARK INTRA:                  -0.099
REMARK UNBOUND:                -0.132
REMARK  Name = 1550473
REMARK  2 active torsions:
REMARK  status: ('A' for Active; 'I' for Inactive)
REMARK    1  A    between atoms: N_1  and  C_4
REMARK    2  A    between atoms: C_4  and  C_5
REMARK                            x       y       z     vdW  Elec       q    Type
REMARK                         _______ _______ _______ _____ _____    ______ ____
ROOT
ATOM      1  N   UNL     1      23.718   9.968  11.288  0.00  0.00    -0.354 N 
ATOM      2  N   UNL     1      24.038   9.662  13.561  0.00  0.00    -0.372 N 
ATOM      3  N   UNL     1      21.896   9.719  12.740  0.00  0.00    -0.372 N 
ATOM      4  C   UNL     1      23.213   9.785  12.515  0.00  0.00    +0.166 C 
ATOM      5  H   UNL     1      24.724  10.039  11.187  0.00  0.00    +0.163 HD
ATOM      6  H   UNL     1      23.686   9.520  14.498  0.00  0.00    +0.159 HD
ATOM      7  H   UNL     1      25.045   9.688  13.452  0.00  0.00    +0.159 HD
ATOM      8  H   UNL     1      21.220   9.811  11.994  0.00  0.00    +0.159 HD
ATOM      9  H   UNL     1      21.524   9.589  13.673  0.00  0.00    +0.159 HD
ENDROOT
BRANCH   1  10
ATOM     10  C   UNL     1      22.908  10.059  10.075  0.00  0.00    +0.151 C 
BRANCH  10  11
ATOM     11  C   UNL     1      23.728   9.603   8.900  0.00  0.00    -0.028 A 
ATOM     12  C   UNL     1      23.763   8.248   8.539  0.00  0.00    +0.005 A 
ATOM     13  C   UNL     1      24.469  10.522   8.140  0.00  0.00    +0.005 A 
ATOM     14  C   UNL     1      24.501   7.828   7.429  0.00  0.00    +0.000 A 
ATOM     15  C   UNL     1      25.205  10.098   7.034  0.00  0.00    +0.000 A 
ATOM     16  C   UNL     1      25.219   8.752   6.677  0.00  0.00    +0.000 A 
ENDBRANCH  10  11
ENDBRANCH   1  10
TORSDOF 2
ENDMDL
MODEL 4
REMARK VINA RESULT:    -4.353      9.720     11.027
REMARK INTER + INTRA:          -4.993
REMARK INTER:                  -4.850
REMARK INTRA:                  -0.144
REMARK UNBOUND:                -0.132
REMARK  Name = 1550473
REMARK  2 active torsions:
REMARK  status: ('A' for Active; 'I' for Inactive)
REMARK    1  A    between atoms: N_1  and  C_4
REMARK    2  A    between atoms: C_4  and  C_5
REMARK                            x       y       z     vdW  Elec       q    Type
REMARK                         _______ _______ _______ _____ _____    ______ ____
ROOT
ATOM      1  N   UNL     1       4.793  -1.843   2.768  0.00  0.00    -0.354 N 
ATOM      2  N   UNL     1       3.502  -0.289   1.636  0.00  0.00    -0.372 N 
ATOM      3  N   UNL     1       2.938  -2.509   1.500  0.00  0.00    -0.372 N 
ATOM      4  C   UNL     1       3.752  -1.559   1.975  0.00  0.00    +0.166 C 
ATOM      5  H   UNL     1       5.390  -1.082   3.070  0.00  0.00    +0.163 HD
ATOM      6  H   UNL     1       2.722  -0.044   1.042  0.00  0.00    +0.159 HD
ATOM      7  H   UNL     1       4.073   0.475   1.977  0.00  0.00    +0.159 HD
ATOM      8  H   UNL     1       3.075  -3.487   1.714  0.00  0.00    +0.159 HD
ATOM      9  H   UNL     1       2.158  -2.284   0.895  0.00  0.00    +0.159 HD
ENDROOT
BRANCH   1  10
ATOM     10  C   UNL     1       5.119  -3.188   3.240  0.00  0.00    +0.151 C 
BRANCH  10  11
ATOM     11  C   UNL     1       5.216  -3.173   4.740  0.00  0.00    -0.028 A 
ATOM     12  C   UNL     1       4.147  -2.705   5.518  0.00  0.00    +0.005 A 
ATOM     13  C   UNL     1       6.373  -3.630   5.390  0.00  0.00    +0.005 A 
ATOM     14  C   UNL     1       4.225  -2.718   6.913  0.00  0.00    +0.000 A 
ATOM     15  C   UNL     1       6.447  -3.641   6.783  0.00  0.00    +0.000 A 
ATOM     16  C   UNL     1       5.372  -3.187   7.544  0.00  0.00    +0.000 A 
ENDBRANCH  10  11
ENDBRANCH   1  10
TORSDOF 2
ENDMDL
MODEL 5
REMARK VINA RESULT:    -4.274      3.870      5.322
REMARK INTER + INTRA:          -4.905
REMARK INTER:                  -4.768
REMARK INTRA:                  -0.137
REMARK UNBOUND:                -0.132
REMARK  Name = 1550473
REMARK  2 active torsions:
REMARK  status: ('A' for Active; 'I' for Inactive)
REMARK    1  A    between atoms: N_1  and  C_4
REMARK    2  A    between atoms: C_4  and  C_5
REMARK                            x       y       z     vdW  Elec       q    Type
REMARK                         _______ _______ _______ _____ _____    ______ ____
ROOT
ATOM      1  N   UNL     1      -6.824   1.547  11.883  0.00  0.00    -0.354 N 
ATOM      2  N   UNL     1      -7.348   2.676  13.836  0.00  0.00    -0.372 N 
ATOM      3  N   UNL     1      -6.626   3.878  12.020  0.00  0.00    -0.372 N 
ATOM      4  C   UNL     1      -6.928   2.695  12.565  0.00  0.00    +0.166 C 
ATOM      5  H   UNL     1      -7.039   0.681  12.362  0.00  0.00    +0.163 HD
ATOM      6  H   UNL     1      -7.440   3.526  14.375  0.00  0.00    +0.159 HD
ATOM      7  H   UNL     1      -7.607   1.813  14.299  0.00  0.00    +0.159 HD
ATOM      8  H   UNL     1      -6.298   3.961  11.067  0.00  0.00    +0.159 HD
ATOM      9  H   UNL     1      -6.701   4.739  12.547  0.00  0.00    +0.159 HD
ENDROOT
BRANCH   1  10
ATOM     10  C   UNL     1      -6.428   1.464  10.478  0.00  0.00    +0.151 C 
BRANCH  10  11
ATOM     11  C   UNL     1      -5.393   0.384  10.322  0.00  0.00    -0.028 A 
ATOM     12  C   UNL     1      -4.554   0.359   9.199  0.00  0.00    +0.005 A 
ATOM     13  C   UNL     1      -5.242  -0.613  11.298  0.00  0.00    +0.005 A 
ATOM     14  C   UNL     1      -3.572  -0.627   9.068  0.00  0.00    +0.000 A 
ATOM     15  C   UNL     1      -4.261  -1.596  11.164  0.00  0.00    +0.000 A 
ATOM     16  C   UNL     1      -3.425  -1.601  10.050  0.00  0.00    +0.000 A 
ENDBRANCH  10  11
ENDBRANCH   1  10
TORSDOF 2
ENDMDL
MODEL 6
REMARK VINA RESULT:    -4.143     51.871     52.761
REMARK INTER + INTRA:          -4.759
REMARK INTER:                  -4.623
REMARK INTRA:                  -0.136
REMARK UNBOUND:                -0.132
REMARK  Name = 1550473
REMARK  2 active torsions:
REMARK  status: ('A' for Active; 'I' for Inactive)
REMARK    1  A    between atoms: N_1  and  C_4
REMARK    2  A    between atoms: C_4  and  C_5
REMARK                            x       y       z     vdW  Elec       q    Type
REMARK                         _______ _______ _______ _____ _____    ______ ____
ROOT
ATOM      1  N   UNL     1     -34.795 -11.549 -30.824  0.00  0.00    -0.354 N 
ATOM      2  N   UNL     1     -36.541 -13.069 -30.888  0.00  0.00    -0.372 N 
ATOM      3  N   UNL     1     -36.486 -11.378 -32.437  0.00  0.00    -0.372 N 
ATOM      4  C   UNL     1     -35.930 -11.987 -31.385  0.00  0.00    +0.166 C 
ATOM      5  H   UNL     1     -34.441 -12.038 -30.010  0.00  0.00    +0.163 HD
ATOM      6  H   UNL     1     -37.397 -13.425 -31.292  0.00  0.00    +0.159 HD
ATOM      7  H   UNL     1     -36.160 -13.583 -30.102  0.00  0.00    +0.159 HD
ATOM      8  H   UNL     1     -36.078 -10.553 -32.856  0.00  0.00    +0.159 HD
ATOM      9  H   UNL     1     -37.349 -11.712 -32.848  0.00  0.00    +0.159 HD
ENDROOT
BRANCH   1  10
ATOM     10  C   UNL     1     -34.023 -10.412 -31.322  0.00  0.00    +0.151 C 
BRANCH  10  11
ATOM     11  C   UNL     1     -32.604 -10.850 -31.564  0.00  0.00    -0.028 A 
ATOM     12  C   UNL     1     -31.633 -10.701 -30.563  0.00  0.00    +0.005 A 
ATOM     13  C   UNL     1     -32.227 -11.420 -32.789  0.00  0.00    +0.005 A 
ATOM     14  C   UNL     1     -30.322 -11.134 -30.777  0.00  0.00    +0.000 A 
ATOM     15  C   UNL     1     -30.917 -11.851 -32.999  0.00  0.00    +0.000 A 
ATOM     16  C   UNL     1     -29.966 -11.710 -31.992  0.00  0.00    +0.000 A 
ENDBRANCH  10  11
ENDBRANCH   1  10
TORSDOF 2
ENDMDL
MODEL 7
REMARK VINA RESULT:    -4.091     49.117     49.877
REMARK INTER + INTRA:          -4.701
REMARK INTER:                  -4.581
REMARK INTRA:                  -0.120
REMARK UNBOUND:                -0.132
REMARK  Name = 1550473
REMARK  2 active torsions:
REMARK  status: ('A' for Active; 'I' for Inactive)
REMARK    1  A    between atoms: N_1  and  C_4
REMARK    2  A    between atoms: C_4  and  C_5
REMARK                            x       y       z     vdW  Elec       q    Type
REMARK                         _______ _______ _______ _____ _____    ______ ____
ROOT
ATOM      1  N   UNL     1     -30.994 -11.238 -31.654  0.00  0.00    -0.354 N 
ATOM      2  N   UNL     1     -31.503 -12.630 -33.433  0.00  0.00    -0.372 N 
ATOM      3  N   UNL     1     -29.437 -11.636 -33.359  0.00  0.00    -0.372 N 
ATOM      4  C   UNL     1     -30.639 -11.825 -32.804  0.00  0.00    +0.166 C 
ATOM      5  H   UNL     1     -31.931 -11.397 -31.301  0.00  0.00    +0.163 HD
ATOM      6  H   UNL     1     -31.262 -13.090 -34.300  0.00  0.00    +0.159 HD
ATOM      7  H   UNL     1     -32.422 -12.825 -33.054  0.00  0.00    +0.159 HD
ATOM      8  H   UNL     1     -28.741 -11.035 -32.937  0.00  0.00    +0.159 HD
ATOM      9  H   UNL     1     -29.181 -12.078 -34.233  0.00  0.00    +0.159 HD
ENDROOT
BRANCH   1  10
ATOM     10  C   UNL     1     -30.108 -10.385 -30.863  0.00  0.00    +0.151 C 
BRANCH  10  11
ATOM     11  C   UNL     1     -30.535 -10.437 -29.422  0.00  0.00    -0.028 A 
ATOM     12  C   UNL     1     -30.814 -11.665 -28.805  0.00  0.00    +0.005 A 
ATOM     13  C   UNL     1     -30.656  -9.261 -28.665  0.00  0.00    +0.005 A 
ATOM     14  C   UNL     1     -31.181 -11.716 -27.458  0.00  0.00    +0.000 A 
ATOM     15  C   UNL     1     -31.024  -9.315 -27.321  0.00  0.00    +0.000 A 
ATOM     16  C   UNL     1     -31.284 -10.543 -26.717  0.00  0.00    +0.000 A 
ENDBRANCH  10  11
ENDBRANCH   1  10
TORSDOF 2
ENDMDL
MODEL 8
REMARK VINA RESULT:    -3.963      3.682      4.713
REMARK INTER + INTRA:          -4.558
REMARK INTER:                  -4.440
REMARK INTRA:                  -0.118
REMARK UNBOUND:                -0.132
REMARK  Name = 1550473
REMARK  2 active torsions:
REMARK  status: ('A' for Active; 'I' for Inactive)
REMARK    1  A    between atoms: N_1  and  C_4
REMARK    2  A    between atoms: C_4  and  C_5
REMARK                            x       y       z     vdW  Elec       q    Type
REMARK                         _______ _______ _______ _____ _____    ______ ____
ROOT
ATOM      1  N   UNL     1      -6.289   2.059  11.128  0.00  0.00    -0.354 N 
ATOM      2  N   UNL     1      -7.203   4.170  11.396  0.00  0.00    -0.372 N 
ATOM      3  N   UNL     1      -7.433   3.111   9.374  0.00  0.00    -0.372 N 
ATOM      4  C   UNL     1      -6.970   3.099  10.628  0.00  0.00    +0.166 C 
ATOM      5  H   UNL     1      -5.938   2.125  12.077  0.00  0.00    +0.163 HD
ATOM      6  H   UNL     1      -7.717   4.969  11.047  0.00  0.00    +0.159 HD
ATOM      7  H   UNL     1      -6.891   4.214  12.358  0.00  0.00    +0.159 HD
ATOM      8  H   UNL     1      -7.286   2.335   8.741  0.00  0.00    +0.159 HD
ATOM      9  H   UNL     1      -7.940   3.905   9.003  0.00  0.00    +0.159 HD
ENDROOT
BRANCH   1  10
ATOM     10  C   UNL     1      -6.028   0.823  10.393  0.00  0.00    +0.151 C 
BRANCH  10  11
ATOM     11  C   UNL     1      -5.678  -0.265  11.370  0.00  0.00    -0.028 A 
ATOM     12  C   UNL     1      -4.632  -1.159  11.095  0.00  0.00    +0.005 A 
ATOM     13  C   UNL     1      -6.383  -0.404  12.575  0.00  0.00    +0.005 A 
ATOM     14  C   UNL     1      -4.286  -2.151  12.015  0.00  0.00    +0.000 A 
ATOM     15  C   UNL     1      -6.035  -1.396  13.491  0.00  0.00    +0.000 A 
ATOM     16  C   UNL     1      -4.985  -2.268  13.212  0.00  0.00    +0.000 A 
ENDBRANCH  10  11
ENDBRANCH   1  10
TORSDOF 2
ENDMDL
MODEL 9
REMARK VINA RESULT:    -3.930     38.869     40.331
REMARK INTER + INTRA:          -4.521
REMARK INTER:                  -4.337
REMARK INTRA:                  -0.184
REMARK UNBOUND:                -0.132
REMARK  Name = 1550473
REMARK  2 active torsions:
REMARK  status: ('A' for Active; 'I' for Inactive)
REMARK    1  A    between atoms: N_1  and  C_4
REMARK    2  A    between atoms: C_4  and  C_5
REMARK                            x       y       z     vdW  Elec       q    Type
REMARK                         _______ _______ _______ _____ _____    ______ ____
ROOT
ATOM      1  N   UNL     1      12.628  17.263 -22.734  0.00  0.00    -0.354 N 
ATOM      2  N   UNL     1      11.877  19.396 -22.235  0.00  0.00    -0.372 N 
ATOM      3  N   UNL     1      11.193  18.408 -24.190  0.00  0.00    -0.372 N 
ATOM      4  C   UNL     1      11.903  18.341 -23.059  0.00  0.00    +0.166 C 
ATOM      5  H   UNL     1      13.169  17.287 -21.877  0.00  0.00    +0.163 HD
ATOM      6  H   UNL     1      11.336  20.223 -22.452  0.00  0.00    +0.159 HD
ATOM      7  H   UNL     1      12.382  19.399 -21.357  0.00  0.00    +0.159 HD
ATOM      8  H   UNL     1      11.175  17.648 -24.857  0.00  0.00    +0.159 HD
ATOM      9  H   UNL     1      10.654  19.231 -24.430  0.00  0.00    +0.159 HD
ENDROOT
BRANCH   1  10
ATOM     10  C   UNL     1      12.681  16.041 -23.535  0.00  0.00    +0.151 C 
BRANCH  10  11
ATOM     11  C   UNL     1      11.762  15.017 -22.931  0.00  0.00    -0.028 A 
ATOM     12  C   UNL     1      12.137  14.317 -21.774  0.00  0.00    +0.005 A 
ATOM     13  C   UNL     1      10.511  14.745 -23.506  0.00  0.00    +0.005 A 
ATOM     14  C   UNL     1      11.271  13.387 -21.195  0.00  0.00    +0.000 A 
ATOM     15  C   UNL     1       9.649  13.815 -22.925  0.00  0.00    +0.000 A 
ATOM     16  C   UNL     1      10.028  13.138 -21.768  0.00  0.00    +0.000 A 
ENDBRANCH  10  11
ENDBRANCH   1  10
TORSDOF 2
ENDMDL
