MODEL 1
REMARK VINA RESULT:    -6.163      0.000      0.000
REMARK INTER + INTRA:          -6.988
REMARK INTER:                  -6.883
REMARK INTRA:                  -0.105
REMARK UNBOUND:                -0.105
REMARK  Name = 1550473
REMARK  2 active torsions:
REMARK  status: ('A' for Active; 'I' for Inactive)
REMARK    1  A    between atoms: N_1  and  C_4
REMARK    2  A    between atoms: C_4  and  C_5
REMARK                            x       y       z     vdW  Elec       q    Type
REMARK                         _______ _______ _______ _____ _____    ______ ____
ROOT
ATOM      1  N   UNL     1     -14.929  -4.312  -1.908  0.00  0.00    -0.354 N 
ATOM      2  N   UNL     1     -15.863  -2.356  -2.724  0.00  0.00    -0.372 N 
ATOM      3  N   UNL     1     -16.548  -3.144  -0.681  0.00  0.00    -0.372 N 
ATOM      4  C   UNL     1     -15.776  -3.284  -1.763  0.00  0.00    +0.166 C 
ATOM      5  H   UNL     1     -14.393  -4.377  -2.766  0.00  0.00    +0.163 HD
ATOM      6  H   UNL     1     -16.491  -1.567  -2.641  0.00  0.00    +0.159 HD
ATOM      7  H   UNL     1     -15.293  -2.399  -3.560  0.00  0.00    +0.159 HD
ATOM      8  H   UNL     1     -16.534  -3.813   0.077  0.00  0.00    +0.159 HD
ATOM      9  H   UNL     1     -17.191  -2.368  -0.585  0.00  0.00    +0.159 HD
ENDROOT
BRANCH   1  10
ATOM     10  C   UNL     1     -14.719  -5.347  -0.897  0.00  0.00    +0.151 C 
BRANCH  10  11
ATOM     11  C   UNL     1     -13.969  -6.494  -1.517  0.00  0.00    -0.028 A 
ATOM     12  C   UNL     1     -14.424  -7.811  -1.357  0.00  0.00    +0.005 A 
ATOM     13  C   UNL     1     -12.806  -6.269  -2.269  0.00  0.00    +0.005 A 
ATOM     14  C   UNL     1     -13.744  -8.874  -1.957  0.00  0.00    +0.000 A 
ATOM     15  C   UNL     1     -12.130  -7.333  -2.866  0.00  0.00    +0.000 A 
ATOM     16  C   UNL     1     -12.601  -8.635  -2.712  0.00  0.00    +0.000 A 
ENDBRANCH  10  11
ENDBRANCH   1  10
TORSDOF 2
ENDMDL
MODEL 2
REMARK VINA RESULT:    -5.558      0.952      1.785
REMARK INTER + INTRA:          -6.312
REMARK INTER:                  -6.198
REMARK INTRA:                  -0.114
REMARK UNBOUND:                -0.105
REMARK  Name = 1550473
REMARK  2 active torsions:
REMARK  status: ('A' for Active; 'I' for Inactive)
REMARK    1  A    between atoms: N_1  and  C_4
REMARK    2  A    between atoms: C_4  and  C_5
REMARK                            x       y       z     vdW  Elec       q    Type
REMARK                         _______ _______ _______ _____ _____    ______ ____
ROOT
ATOM      1  N   UNL     1     -15.475  -4.470  -1.491  0.00  0.00    -0.354 N 
ATOM      2  N   UNL     1     -15.799  -2.453  -2.583  0.00  0.00    -0.372 N 
ATOM      3  N   UNL     1     -16.929  -4.309  -3.322  0.00  0.00    -0.372 N 
ATOM      4  C   UNL     1     -16.067  -3.759  -2.460  0.00  0.00    +0.166 C 
ATOM      5  H   UNL     1     -14.808  -4.002  -0.889  0.00  0.00    +0.163 HD
ATOM      6  H   UNL     1     -16.233  -1.890  -3.302  0.00  0.00    +0.159 HD
ATOM      7  H   UNL     1     -15.168  -1.977  -1.950  0.00  0.00    +0.159 HD
ATOM      8  H   UNL     1     -17.169  -5.290  -3.287  0.00  0.00    +0.159 HD
ATOM      9  H   UNL     1     -17.364  -3.764  -4.056  0.00  0.00    +0.159 HD
ENDROOT
BRANCH   1  10
ATOM     10  C   UNL     1     -15.739  -5.886  -1.239  0.00  0.00    +0.151 C 
BRANCH  10  11
ATOM     11  C   UNL     1     -14.576  -6.699  -1.737  0.00  0.00    -0.028 A 
ATOM     12  C   UNL     1     -13.392  -6.070  -2.148  0.00  0.00    +0.005 A 
ATOM     13  C   UNL     1     -14.651  -8.099  -1.796  0.00  0.00    +0.005 A 
ATOM     14  C   UNL     1     -12.301  -6.827  -2.583  0.00  0.00    +0.000 A 
ATOM     15  C   UNL     1     -13.560  -8.851  -2.232  0.00  0.00    +0.000 A 
ATOM     16  C   UNL     1     -12.384  -8.214  -2.623  0.00  0.00    +0.000 A 
ENDBRANCH  10  11
ENDBRANCH   1  10
TORSDOF 2
ENDMDL
MODEL 3
REMARK VINA RESULT:    -5.376      2.267      2.581
REMARK INTER + INTRA:          -6.110
REMARK INTER:                  -5.931
REMARK INTRA:                  -0.179
REMARK UNBOUND:                -0.105
REMARK  Name = 1550473
REMARK  2 active torsions:
REMARK  status: ('A' for Active; 'I' for Inactive)
REMARK    1  A    between atoms: N_1  and  C_4
REMARK    2  A    between atoms: C_4  and  C_5
REMARK                            x       y       z     vdW  Elec       q    Type
REMARK                         _______ _______ _______ _____ _____    ______ ____
ROOT
ATOM      1  N   UNL     1     -16.960  -7.461  -1.942  0.00  0.00    -0.354 N 
ATOM      2  N   UNL     1     -18.436  -6.669  -3.540  0.00  0.00    -0.372 N 
ATOM      3  N   UNL     1     -17.279  -5.161  -2.255  0.00  0.00    -0.372 N 
ATOM      4  C   UNL     1     -17.548  -6.433  -2.567  0.00  0.00    +0.166 C 
ATOM      5  H   UNL     1     -17.230  -8.402  -2.204  0.00  0.00    +0.163 HD
ATOM      6  H   UNL     1     -18.894  -5.913  -4.032  0.00  0.00    +0.159 HD
ATOM      7  H   UNL     1     -18.670  -7.610  -3.832  0.00  0.00    +0.159 HD
ATOM      8  H   UNL     1     -16.622  -4.916  -1.526  0.00  0.00    +0.159 HD
ATOM      9  H   UNL     1     -17.735  -4.391  -2.728  0.00  0.00    +0.159 HD
ENDROOT
BRANCH   1  10
ATOM     10  C   UNL     1     -15.939  -7.313  -0.906  0.00  0.00    +0.151 C 
BRANCH  10  11
ATOM     11  C   UNL     1     -14.579  -7.441  -1.535  0.00  0.00    -0.028 A 
ATOM     12  C   UNL     1     -14.062  -8.704  -1.862  0.00  0.00    +0.005 A 
ATOM     13  C   UNL     1     -13.804  -6.304  -1.811  0.00  0.00    +0.005 A 
ATOM     14  C   UNL     1     -12.812  -8.822  -2.474  0.00  0.00    +0.000 A 
ATOM     15  C   UNL     1     -12.556  -6.427  -2.421  0.00  0.00    +0.000 A 
ATOM     16  C   UNL     1     -12.061  -7.685  -2.754  0.00  0.00    +0.000 A 
ENDBRANCH  10  11
ENDBRANCH   1  10
TORSDOF 2
ENDMDL
MODEL 4
REMARK VINA RESULT:    -4.716     24.496     25.609
REMARK INTER + INTRA:          -5.373
REMARK INTER:                  -5.278
REMARK INTRA:                  -0.095
REMARK UNBOUND:                -0.105
REMARK  Name = 1550473
REMARK  2 active torsions:
REMARK  status: ('A' for Active; 'I' for Inactive)
REMARK    1  A    between atoms: N_1  and  C_4
REMARK    2  A    between atoms: C_4  and  C_5
REMARK                            x       y       z     vdW  Elec       q    Type
REMARK                         _______ _______ _______ _____ _____    ______ ____
ROOT
ATOM      1  N   UNL     1       1.910  10.055   6.903  0.00  0.00    -0.354 N 
ATOM      2  N   UNL     1       2.937   7.980   6.832  0.00  0.00    -0.372 N 
ATOM      3  N   UNL     1       0.847   8.215   5.914  0.00  0.00    -0.372 N 
ATOM      4  C   UNL     1       1.889   8.763   6.549  0.00  0.00    +0.166 C 
ATOM      5  H   UNL     1       2.717  10.402   7.409  0.00  0.00    +0.163 HD
ATOM      6  H   UNL     1       2.951   7.002   6.575  0.00  0.00    +0.159 HD
ATOM      7  H   UNL     1       3.761   8.341   7.297  0.00  0.00    +0.159 HD
ATOM      8  H   UNL     1       0.023   8.751   5.677  0.00  0.00    +0.159 HD
ATOM      9  H   UNL     1       0.837   7.236   5.659  0.00  0.00    +0.159 HD
ENDROOT
BRANCH   1  10
ATOM     10  C   UNL     1       0.843  11.005   6.594  0.00  0.00    +0.151 C 
BRANCH  10  11
ATOM     11  C   UNL     1       0.905  12.148   7.569  0.00  0.00    -0.028 A 
ATOM     12  C   UNL     1       1.844  13.176   7.402  0.00  0.00    +0.005 A 
ATOM     13  C   UNL     1       0.024  12.211   8.659  0.00  0.00    +0.005 A 
ATOM     14  C   UNL     1       1.882  14.253   8.291  0.00  0.00    +0.000 A 
ATOM     15  C   UNL     1       0.066  13.288   9.545  0.00  0.00    +0.000 A 
ATOM     16  C   UNL     1       0.993  14.310   9.359  0.00  0.00    +0.000 A 
ENDBRANCH  10  11
ENDBRANCH   1  10
TORSDOF 2
ENDMDL
MODEL 5
REMARK VINA RESULT:    -4.560     16.864     18.618
REMARK INTER + INTRA:          -5.199
REMARK INTER:                  -5.072
REMARK INTRA:                  -0.127
REMARK UNBOUND:                -0.105
REMARK  Name = 1550473
REMARK  2 active torsions:
REMARK  status: ('A' for Active; 'I' for Inactive)
REMARK    1  A    between atoms: N_1  and  C_4
REMARK    2  A    between atoms: C_4  and  C_5
REMARK                            x       y       z     vdW  Elec       q    Type
REMARK                         _______ _______ _______ _____ _____    ______ ____
ROOT
ATOM      1  N   UNL     1       0.065 -10.239  -9.937  0.00  0.00    -0.354 N 
ATOM      2  N   UNL     1      -0.009 -10.076  -7.628  0.00  0.00    -0.372 N 
ATOM      3  N   UNL     1      -1.937 -10.575  -8.768  0.00  0.00    -0.372 N 
ATOM      4  C   UNL     1      -0.629 -10.298  -8.793  0.00  0.00    +0.166 C 
ATOM      5  H   UNL     1       1.048  -9.994  -9.892  0.00  0.00    +0.163 HD
ATOM      6  H   UNL     1      -0.507 -10.118  -6.749  0.00  0.00    +0.159 HD
ATOM      7  H   UNL     1       0.983  -9.877  -7.582  0.00  0.00    +0.159 HD
ATOM      8  H   UNL     1      -2.465 -10.746  -9.613  0.00  0.00    +0.159 HD
ATOM      9  H   UNL     1      -2.455 -10.609  -7.899  0.00  0.00    +0.159 HD
ENDROOT
BRANCH   1  10
ATOM     10  C   UNL     1      -0.503 -10.517 -11.255  0.00  0.00    +0.151 C 
BRANCH  10  11
ATOM     11  C   UNL     1       0.611 -10.829 -12.215  0.00  0.00    -0.028 A 
ATOM     12  C   UNL     1       1.914 -11.053 -11.745  0.00  0.00    +0.005 A 
ATOM     13  C   UNL     1       0.370 -10.909 -13.595  0.00  0.00    +0.005 A 
ATOM     14  C   UNL     1       2.943 -11.373 -12.634  0.00  0.00    +0.000 A 
ATOM     15  C   UNL     1       1.400 -11.228 -14.479  0.00  0.00    +0.000 A 
ATOM     16  C   UNL     1       2.686 -11.462 -13.998  0.00  0.00    +0.000 A 
ENDBRANCH  10  11
ENDBRANCH   1  10
TORSDOF 2
ENDMDL
MODEL 6
REMARK VINA RESULT:    -4.535     16.670     17.906
REMARK INTER + INTRA:          -5.170
REMARK INTER:                  -5.054
REMARK INTRA:                  -0.116
REMARK UNBOUND:                -0.105
REMARK  Name = 1550473
REMARK  2 active torsions:
REMARK  status: ('A' for Active; 'I' for Inactive)
REMARK    1  A    between atoms: N_1  and  C_4
REMARK    2  A    between atoms: C_4  and  C_5
REMARK                            x       y       z     vdW  Elec       q    Type
REMARK                         _______ _______ _______ _____ _____    ______ ____
ROOT
ATOM      1  N   UNL     1      -8.319   8.768 -10.020  0.00  0.00    -0.354 N 
ATOM      2  N   UNL     1      -7.302   8.981  -7.950  0.00  0.00    -0.372 N 
ATOM      3  N   UNL     1      -6.293   9.923  -9.783  0.00  0.00    -0.372 N 
ATOM      4  C   UNL     1      -7.309   9.224  -9.266  0.00  0.00    +0.166 C 
ATOM      5  H   UNL     1      -9.043   8.219  -9.573  0.00  0.00    +0.163 HD
ATOM      6  H   UNL     1      -6.555   9.315  -7.355  0.00  0.00    +0.159 HD
ATOM      7  H   UNL     1      -8.051   8.471  -7.498  0.00  0.00    +0.159 HD
ATOM      8  H   UNL     1      -6.237  10.135 -10.770  0.00  0.00    +0.159 HD
ATOM      9  H   UNL     1      -5.531  10.256  -9.206  0.00  0.00    +0.159 HD
ENDROOT
BRANCH   1  10
ATOM     10  C   UNL     1      -8.449   9.024 -11.453  0.00  0.00    +0.151 C 
BRANCH  10  11
ATOM     11  C   UNL     1      -9.330   7.969 -12.062  0.00  0.00    -0.028 A 
ATOM     12  C   UNL     1      -9.111   7.530 -13.377  0.00  0.00    +0.005 A 
ATOM     13  C   UNL     1     -10.382   7.399 -11.329  0.00  0.00    +0.005 A 
ATOM     14  C   UNL     1      -9.910   6.529 -13.933  0.00  0.00    +0.000 A 
ATOM     15  C   UNL     1     -11.178   6.399 -11.888  0.00  0.00    +0.000 A 
ATOM     16  C   UNL     1     -10.940   5.963 -13.189  0.00  0.00    +0.000 A 
ENDBRANCH  10  11
ENDBRANCH   1  10
TORSDOF 2
ENDMDL
MODEL 7
REMARK VINA RESULT:    -4.444     23.807     24.716
REMARK INTER + INTRA:          -5.069
REMARK INTER:                  -4.890
REMARK INTRA:                  -0.179
REMARK UNBOUND:                -0.105
REMARK  Name = 1550473
REMARK  2 active torsions:
REMARK  status: ('A' for Active; 'I' for Inactive)
REMARK    1  A    between atoms: N_1  and  C_4
REMARK    2  A    between atoms: C_4  and  C_5
REMARK                            x       y       z     vdW  Elec       q    Type
REMARK                         _______ _______ _______ _____ _____    ______ ____
ROOT
ATOM      1  N   UNL     1       4.221  10.344   2.292  0.00  0.00    -0.354 N 
ATOM      2  N   UNL     1       5.007  11.374   0.371  0.00  0.00    -0.372 N 
ATOM      3  N   UNL     1       5.072  12.527   2.354  0.00  0.00    -0.372 N 
ATOM      4  C   UNL     1       4.762  11.410   1.687  0.00  0.00    +0.166 C 
ATOM      5  H   UNL     1       3.981   9.539   1.724  0.00  0.00    +0.163 HD
ATOM      6  H   UNL     1       5.417  12.162  -0.112  0.00  0.00    +0.159 HD
ATOM      7  H   UNL     1       4.808  10.551  -0.185  0.00  0.00    +0.159 HD
ATOM      8  H   UNL     1       4.907  12.621   3.347  0.00  0.00    +0.159 HD
ATOM      9  H   UNL     1       5.473  13.330   1.886  0.00  0.00    +0.159 HD
ENDROOT
BRANCH   1  10
ATOM     10  C   UNL     1       3.965  10.262   3.728  0.00  0.00    +0.151 C 
BRANCH  10  11
ATOM     11  C   UNL     1       2.496  10.466   3.977  0.00  0.00    -0.028 A 
ATOM     12  C   UNL     1       1.561   9.516   3.542  0.00  0.00    +0.005 A 
ATOM     13  C   UNL     1       2.033  11.606   4.653  0.00  0.00    +0.005 A 
ATOM     14  C   UNL     1       0.199   9.691   3.799  0.00  0.00    +0.000 A 
ATOM     15  C   UNL     1       0.672  11.777   4.908  0.00  0.00    +0.000 A 
ATOM     16  C   UNL     1      -0.244  10.818   4.483  0.00  0.00    +0.000 A 
ENDBRANCH  10  11
ENDBRANCH   1  10
TORSDOF 2
ENDMDL
MODEL 8
REMARK VINA RESULT:    -4.395     15.263     16.529
REMARK INTER + INTRA:          -5.014
REMARK INTER:                  -4.884
REMARK INTRA:                  -0.130
REMARK UNBOUND:                -0.105
REMARK  Name = 1550473
REMARK  2 active torsions:
REMARK  status: ('A' for Active; 'I' for Inactive)
REMARK    1  A    between atoms: N_1  and  C_4
REMARK    2  A    between atoms: C_4  and  C_5
REMARK                            x       y       z     vdW  Elec       q    Type
REMARK                         _______ _______ _______ _____ _____    ______ ____
ROOT
ATOM      1  N   UNL     1      -8.245 -17.187   5.629  0.00  0.00    -0.354 N 
ATOM      2  N   UNL     1     -10.102 -17.785   4.380  0.00  0.00    -0.372 N 
ATOM      3  N   UNL     1     -10.412 -16.754   6.406  0.00  0.00    -0.372 N 
ATOM      4  C   UNL     1      -9.575 -17.237   5.482  0.00  0.00    +0.166 C 
ATOM      5  H   UNL     1      -7.665 -17.598   4.905  0.00  0.00    +0.163 HD
ATOM      6  H   UNL     1     -11.102 -17.833   4.240  0.00  0.00    +0.159 HD
ATOM      7  H   UNL     1      -9.519 -18.153   3.638  0.00  0.00    +0.159 HD
ATOM      8  H   UNL     1     -10.079 -16.334   7.264  0.00  0.00    +0.159 HD
ATOM      9  H   UNL     1     -11.417 -16.805   6.290  0.00  0.00    +0.159 HD
ENDROOT
BRANCH   1  10
ATOM     10  C   UNL     1      -7.570 -16.564   6.766  0.00  0.00    +0.151 C 
BRANCH  10  11
ATOM     11  C   UNL     1      -6.343 -17.363   7.107  0.00  0.00    -0.028 A 
ATOM     12  C   UNL     1      -5.726 -17.222   8.359  0.00  0.00    +0.005 A 
ATOM     13  C   UNL     1      -5.795 -18.268   6.185  0.00  0.00    +0.005 A 
ATOM     14  C   UNL     1      -4.604 -17.986   8.687  0.00  0.00    +0.000 A 
ATOM     15  C   UNL     1      -4.673 -19.028   6.516  0.00  0.00    +0.000 A 
ATOM     16  C   UNL     1      -4.080 -18.889   7.768  0.00  0.00    +0.000 A 
ENDBRANCH  10  11
ENDBRANCH   1  10
TORSDOF 2
ENDMDL
MODEL 9
REMARK VINA RESULT:    -4.381      1.884      3.086
REMARK INTER + INTRA:          -4.998
REMARK INTER:                  -4.868
REMARK INTRA:                  -0.130
REMARK UNBOUND:                -0.105
REMARK  Name = 1550473
REMARK  2 active torsions:
REMARK  status: ('A' for Active; 'I' for Inactive)
REMARK    1  A    between atoms: N_1  and  C_4
REMARK    2  A    between atoms: C_4  and  C_5
REMARK                            x       y       z     vdW  Elec       q    Type
REMARK                         _______ _______ _______ _____ _____    ______ ____
ROOT
ATOM      1  N   UNL     1     -16.488  -2.334  -1.333  0.00  0.00    -0.354 N 
ATOM      2  N   UNL     1     -17.361  -0.673  -2.689  0.00  0.00    -0.372 N 
ATOM      3  N   UNL     1     -18.628  -1.462  -0.946  0.00  0.00    -0.372 N 
ATOM      4  C   UNL     1     -17.489  -1.501  -1.646  0.00  0.00    +0.166 C 
ATOM      5  H   UNL     1     -15.662  -2.337  -1.921  0.00  0.00    +0.163 HD
ATOM      6  H   UNL     1     -18.098  -0.030  -2.947  0.00  0.00    +0.159 HD
ATOM      7  H   UNL     1     -16.517  -0.645  -3.247  0.00  0.00    +0.159 HD
ATOM      8  H   UNL     1     -18.789  -2.065  -0.151  0.00  0.00    +0.159 HD
ATOM      9  H   UNL     1     -19.382  -0.834  -1.196  0.00  0.00    +0.159 HD
ENDROOT
BRANCH   1  10
ATOM     10  C   UNL     1     -16.505  -3.238  -0.184  0.00  0.00    +0.151 C 
BRANCH  10  11
ATOM     11  C   UNL     1     -15.732  -4.482  -0.526  0.00  0.00    -0.028 A 
ATOM     12  C   UNL     1     -14.902  -4.517  -1.657  0.00  0.00    +0.005 A 
ATOM     13  C   UNL     1     -15.821  -5.628   0.279  0.00  0.00    +0.005 A 
ATOM     14  C   UNL     1     -14.161  -5.662  -1.958  0.00  0.00    +0.000 A 
ATOM     15  C   UNL     1     -15.080  -6.770  -0.026  0.00  0.00    +0.000 A 
ATOM     16  C   UNL     1     -14.249  -6.785  -1.143  0.00  0.00    +0.000 A 
ENDBRANCH  10  11
ENDBRANCH   1  10
TORSDOF 2
ENDMDL
