MODEL 1
REMARK VINA RESULT:    -4.900      0.000      0.000
REMARK INTER + INTRA:          -5.607
REMARK INTER:                  -5.473
REMARK INTRA:                  -0.134
REMARK UNBOUND:                -0.134
REMARK  Name = 1550473
REMARK  2 active torsions:
REMARK  status: ('A' for Active; 'I' for Inactive)
REMARK    1  A    between atoms: N_1  and  C_4
REMARK    2  A    between atoms: C_4  and  C_5
REMARK                            x       y       z     vdW  Elec       q    Type
REMARK                         _______ _______ _______ _____ _____    ______ ____
ROOT
ATOM      1  N   UNL     1       0.453  -9.457 -18.037  0.00  0.00    -0.354 N 
ATOM      2  N   UNL     1      -0.482  -7.591 -17.032  0.00  0.00    -0.372 N 
ATOM      3  N   UNL     1      -0.385  -7.686 -19.323  0.00  0.00    -0.372 N 
ATOM      4  C   UNL     1      -0.132  -8.256 -18.140  0.00  0.00    +0.166 C 
ATOM      5  H   UNL     1       0.645  -9.821 -17.111  0.00  0.00    +0.163 HD
ATOM      6  H   UNL     1      -0.928  -6.685 -17.078  0.00  0.00    +0.159 HD
ATOM      7  H   UNL     1      -0.330  -7.978 -16.108  0.00  0.00    +0.159 HD
ATOM      8  H   UNL     1      -0.141  -8.133 -20.196  0.00  0.00    +0.159 HD
ATOM      9  H   UNL     1      -0.820  -6.774 -19.389  0.00  0.00    +0.159 HD
ENDROOT
BRANCH   1  10
ATOM     10  C   UNL     1       0.824 -10.286 -19.183  0.00  0.00    +0.151 C 
BRANCH  10  11
ATOM     11  C   UNL     1       0.166 -11.632 -19.048  0.00  0.00    -0.028 A 
ATOM     12  C   UNL     1       0.535 -12.692 -19.889  0.00  0.00    +0.005 A 
ATOM     13  C   UNL     1      -0.821 -11.856 -18.076  0.00  0.00    +0.005 A 
ATOM     14  C   UNL     1      -0.054 -13.950 -19.744  0.00  0.00    +0.000 A 
ATOM     15  C   UNL     1      -1.407 -13.113 -17.935  0.00  0.00    +0.000 A 
ATOM     16  C   UNL     1      -1.021 -14.161 -18.768  0.00  0.00    +0.000 A 
ENDBRANCH  10  11
ENDBRANCH   1  10
TORSDOF 2
ENDMDL
MODEL 2
REMARK VINA RESULT:    -4.623     12.107     13.552
REMARK INTER + INTRA:          -5.298
REMARK INTER:                  -5.130
REMARK INTRA:                  -0.168
REMARK UNBOUND:                -0.134
REMARK  Name = 1550473
REMARK  2 active torsions:
REMARK  status: ('A' for Active; 'I' for Inactive)
REMARK    1  A    between atoms: N_1  and  C_4
REMARK    2  A    between atoms: C_4  and  C_5
REMARK                            x       y       z     vdW  Elec       q    Type
REMARK                         _______ _______ _______ _____ _____    ______ ____
ROOT
ATOM      1  N   UNL     1      -0.692  -6.517  -4.404  0.00  0.00    -0.354 N 
ATOM      2  N   UNL     1       0.029  -4.667  -3.211  0.00  0.00    -0.372 N 
ATOM      3  N   UNL     1       1.303  -6.575  -3.176  0.00  0.00    -0.372 N 
ATOM      4  C   UNL     1       0.211  -5.934  -3.604  0.00  0.00    +0.166 C 
ATOM      5  H   UNL     1      -1.514  -5.987  -4.669  0.00  0.00    +0.163 HD
ATOM      6  H   UNL     1       0.695  -4.200  -2.611  0.00  0.00    +0.159 HD
ATOM      7  H   UNL     1      -0.770  -4.125  -3.515  0.00  0.00    +0.159 HD
ATOM      8  H   UNL     1       1.496  -7.534  -3.432  0.00  0.00    +0.159 HD
ATOM      9  H   UNL     1       1.975  -6.128  -2.565  0.00  0.00    +0.159 HD
ENDROOT
BRANCH   1  10
ATOM     10  C   UNL     1      -0.561  -7.874  -4.932  0.00  0.00    +0.151 C 
BRANCH  10  11
ATOM     11  C   UNL     1      -0.141  -7.801  -6.375  0.00  0.00    -0.028 A 
ATOM     12  C   UNL     1       0.922  -8.584  -6.847  0.00  0.00    +0.005 A 
ATOM     13  C   UNL     1      -0.807  -6.955  -7.275  0.00  0.00    +0.005 A 
ATOM     14  C   UNL     1       1.293  -8.539  -8.193  0.00  0.00    +0.000 A 
ATOM     15  C   UNL     1      -0.433  -6.913  -8.618  0.00  0.00    +0.000 A 
ATOM     16  C   UNL     1       0.615  -7.707  -9.077  0.00  0.00    +0.000 A 
ENDBRANCH  10  11
ENDBRANCH   1  10
TORSDOF 2
ENDMDL
MODEL 3
REMARK VINA RESULT:    -4.554     10.560     12.011
REMARK INTER + INTRA:          -5.220
REMARK INTER:                  -5.089
REMARK INTRA:                  -0.131
REMARK UNBOUND:                -0.134
REMARK  Name = 1550473
REMARK  2 active torsions:
REMARK  status: ('A' for Active; 'I' for Inactive)
REMARK    1  A    between atoms: N_1  and  C_4
REMARK    2  A    between atoms: C_4  and  C_5
REMARK                            x       y       z     vdW  Elec       q    Type
REMARK                         _______ _______ _______ _____ _____    ______ ____
ROOT
ATOM      1  N   UNL     1      -1.905  -7.737  -6.178  0.00  0.00    -0.354 N 
ATOM      2  N   UNL     1      -2.901  -8.558  -4.255  0.00  0.00    -0.372 N 
ATOM      3  N   UNL     1      -1.066  -7.194  -4.058  0.00  0.00    -0.372 N 
ATOM      4  C   UNL     1      -1.949  -7.823  -4.842  0.00  0.00    +0.166 C 
ATOM      5  H   UNL     1      -2.585  -8.262  -6.716  0.00  0.00    +0.163 HD
ATOM      6  H   UNL     1      -2.961  -8.639  -3.248  0.00  0.00    +0.159 HD
ATOM      7  H   UNL     1      -3.607  -9.044  -4.794  0.00  0.00    +0.159 HD
ATOM      8  H   UNL     1      -0.319  -6.629  -4.439  0.00  0.00    +0.159 HD
ATOM      9  H   UNL     1      -1.103  -7.273  -3.049  0.00  0.00    +0.159 HD
ENDROOT
BRANCH   1  10
ATOM     10  C   UNL     1      -0.942  -6.920  -6.914  0.00  0.00    +0.151 C 
BRANCH  10  11
ATOM     11  C   UNL     1      -0.680  -7.555  -8.251  0.00  0.00    -0.028 A 
ATOM     12  C   UNL     1      -1.057  -8.884  -8.495  0.00  0.00    +0.005 A 
ATOM     13  C   UNL     1      -0.060  -6.831  -9.282  0.00  0.00    +0.005 A 
ATOM     14  C   UNL     1      -0.841  -9.465  -9.747  0.00  0.00    +0.000 A 
ATOM     15  C   UNL     1       0.154  -7.415 -10.530  0.00  0.00    +0.000 A 
ATOM     16  C   UNL     1      -0.238  -8.731 -10.763  0.00  0.00    +0.000 A 
ENDBRANCH  10  11
ENDBRANCH   1  10
TORSDOF 2
ENDMDL
MODEL 4
REMARK VINA RESULT:    -4.528     15.007     16.389
REMARK INTER + INTRA:          -5.192
REMARK INTER:                  -5.014
REMARK INTRA:                  -0.177
REMARK UNBOUND:                -0.134
REMARK  Name = 1550473
REMARK  2 active torsions:
REMARK  status: ('A' for Active; 'I' for Inactive)
REMARK    1  A    between atoms: N_1  and  C_4
REMARK    2  A    between atoms: C_4  and  C_5
REMARK                            x       y       z     vdW  Elec       q    Type
REMARK                         _______ _______ _______ _____ _____    ______ ____
ROOT
ATOM      1  N   UNL     1      -0.425  -5.564  -1.862  0.00  0.00    -0.354 N 
ATOM      2  N   UNL     1      -1.531  -4.671  -0.034  0.00  0.00    -0.372 N 
ATOM      3  N   UNL     1      -1.002  -6.903  -0.028  0.00  0.00    -0.372 N 
ATOM      4  C   UNL     1      -0.979  -5.721  -0.653  0.00  0.00    +0.166 C 
ATOM      5  H   UNL     1      -0.467  -4.648  -2.295  0.00  0.00    +0.163 HD
ATOM      6  H   UNL     1      -1.953  -4.758   0.881  0.00  0.00    +0.159 HD
ATOM      7  H   UNL     1      -1.530  -3.747  -0.449  0.00  0.00    +0.159 HD
ATOM      8  H   UNL     1      -0.608  -7.737  -0.444  0.00  0.00    +0.159 HD
ATOM      9  H   UNL     1      -1.430  -7.014   0.882  0.00  0.00    +0.159 HD
ENDROOT
BRANCH   1  10
ATOM     10  C   UNL     1       0.249  -6.631  -2.598  0.00  0.00    +0.151 C 
BRANCH  10  11
ATOM     11  C   UNL     1      -0.635  -7.085  -3.727  0.00  0.00    -0.028 A 
ATOM     12  C   UNL     1      -1.563  -8.119  -3.533  0.00  0.00    +0.005 A 
ATOM     13  C   UNL     1      -0.554  -6.481  -4.991  0.00  0.00    +0.005 A 
ATOM     14  C   UNL     1      -2.405  -8.521  -4.572  0.00  0.00    +0.000 A 
ATOM     15  C   UNL     1      -1.397  -6.886  -6.026  0.00  0.00    +0.000 A 
ATOM     16  C   UNL     1      -2.324  -7.904  -5.816  0.00  0.00    +0.000 A 
ENDBRANCH  10  11
ENDBRANCH   1  10
TORSDOF 2
ENDMDL
MODEL 5
REMARK VINA RESULT:    -4.294     21.638     24.159
REMARK INTER + INTRA:          -4.930
REMARK INTER:                  -4.832
REMARK INTRA:                  -0.098
REMARK UNBOUND:                -0.134
REMARK  Name = 1550473
REMARK  2 active torsions:
REMARK  status: ('A' for Active; 'I' for Inactive)
REMARK    1  A    between atoms: N_1  and  C_4
REMARK    2  A    between atoms: C_4  and  C_5
REMARK                            x       y       z     vdW  Elec       q    Type
REMARK                         _______ _______ _______ _____ _____    ______ ____
ROOT
ATOM      1  N   UNL     1       2.083   3.335  -1.527  0.00  0.00    -0.354 N 
ATOM      2  N   UNL     1       0.149   2.629  -2.589  0.00  0.00    -0.372 N 
ATOM      3  N   UNL     1       1.756   3.715  -3.816  0.00  0.00    -0.372 N 
ATOM      4  C   UNL     1       1.343   3.233  -2.639  0.00  0.00    +0.166 C 
ATOM      5  H   UNL     1       1.700   2.976  -0.660  0.00  0.00    +0.163 HD
ATOM      6  H   UNL     1      -0.429   2.534  -3.413  0.00  0.00    +0.159 HD
ATOM      7  H   UNL     1      -0.210   2.230  -1.731  0.00  0.00    +0.159 HD
ATOM      8  H   UNL     1       2.645   4.187  -3.919  0.00  0.00    +0.159 HD
ATOM      9  H   UNL     1       1.186   3.640  -4.649  0.00  0.00    +0.159 HD
ENDROOT
BRANCH   1  10
ATOM     10  C   UNL     1       3.419   3.926  -1.485  0.00  0.00    +0.151 C 
BRANCH  10  11
ATOM     11  C   UNL     1       3.800   4.177  -0.052  0.00  0.00    -0.028 A 
ATOM     12  C   UNL     1       3.884   3.114   0.860  0.00  0.00    +0.005 A 
ATOM     13  C   UNL     1       4.085   5.475   0.399  0.00  0.00    +0.005 A 
ATOM     14  C   UNL     1       4.267   3.344   2.184  0.00  0.00    +0.000 A 
ATOM     15  C   UNL     1       4.467   5.700   1.722  0.00  0.00    +0.000 A 
ATOM     16  C   UNL     1       4.560   4.634   2.613  0.00  0.00    +0.000 A 
ENDBRANCH  10  11
ENDBRANCH   1  10
TORSDOF 2
ENDMDL
MODEL 6
REMARK VINA RESULT:    -4.233     11.457     13.061
REMARK INTER + INTRA:          -4.862
REMARK INTER:                  -4.770
REMARK INTRA:                  -0.091
REMARK UNBOUND:                -0.134
REMARK  Name = 1550473
REMARK  2 active torsions:
REMARK  status: ('A' for Active; 'I' for Inactive)
REMARK    1  A    between atoms: N_1  and  C_4
REMARK    2  A    between atoms: C_4  and  C_5
REMARK                            x       y       z     vdW  Elec       q    Type
REMARK                         _______ _______ _______ _____ _____    ______ ____
ROOT
ATOM      1  N   UNL     1      -0.363  -7.647  -8.406  0.00  0.00    -0.354 N 
ATOM      2  N   UNL     1      -0.046  -7.347 -10.680  0.00  0.00    -0.372 N 
ATOM      3  N   UNL     1      -1.116  -9.241  -9.950  0.00  0.00    -0.372 N 
ATOM      4  C   UNL     1      -0.511  -8.083  -9.664  0.00  0.00    +0.166 C 
ATOM      5  H   UNL     1       0.131  -6.775  -8.253  0.00  0.00    +0.163 HD
ATOM      6  H   UNL     1      -0.146  -7.648 -11.640  0.00  0.00    +0.159 HD
ATOM      7  H   UNL     1       0.407  -6.454 -10.528  0.00  0.00    +0.159 HD
ATOM      8  H   UNL     1      -1.484  -9.845  -9.228  0.00  0.00    +0.159 HD
ATOM      9  H   UNL     1      -1.215  -9.565 -10.904  0.00  0.00    +0.159 HD
ENDROOT
BRANCH   1  10
ATOM     10  C   UNL     1      -0.882  -8.346  -7.232  0.00  0.00    +0.151 C 
BRANCH  10  11
ATOM     11  C   UNL     1      -0.284  -7.738  -5.993  0.00  0.00    -0.028 A 
ATOM     12  C   UNL     1      -0.893  -6.636  -5.375  0.00  0.00    +0.005 A 
ATOM     13  C   UNL     1       0.889  -8.263  -5.429  0.00  0.00    +0.005 A 
ATOM     14  C   UNL     1      -0.355  -6.090  -4.208  0.00  0.00    +0.000 A 
ATOM     15  C   UNL     1       1.424  -7.714  -4.264  0.00  0.00    +0.000 A 
ATOM     16  C   UNL     1       0.801  -6.629  -3.652  0.00  0.00    +0.000 A 
ENDBRANCH  10  11
ENDBRANCH   1  10
TORSDOF 2
ENDMDL
MODEL 7
REMARK VINA RESULT:    -4.163     37.744     39.421
REMARK INTER + INTRA:          -4.783
REMARK INTER:                  -4.605
REMARK INTRA:                  -0.179
REMARK UNBOUND:                -0.134
REMARK  Name = 1550473
REMARK  2 active torsions:
REMARK  status: ('A' for Active; 'I' for Inactive)
REMARK    1  A    between atoms: N_1  and  C_4
REMARK    2  A    between atoms: C_4  and  C_5
REMARK                            x       y       z     vdW  Elec       q    Type
REMARK                         _______ _______ _______ _____ _____    ______ ____
ROOT
ATOM      1  N   UNL     1      10.927   5.559  13.169  0.00  0.00    -0.354 N 
ATOM      2  N   UNL     1       8.793   6.460  13.152  0.00  0.00    -0.372 N 
ATOM      3  N   UNL     1      10.595   7.875  13.027  0.00  0.00    -0.372 N 
ATOM      4  C   UNL     1      10.121   6.628  13.116  0.00  0.00    +0.166 C 
ATOM      5  H   UNL     1      10.506   4.643  13.267  0.00  0.00    +0.163 HD
ATOM      6  H   UNL     1       8.160   7.247  13.110  0.00  0.00    +0.159 HD
ATOM      7  H   UNL     1       8.374   5.539  13.203  0.00  0.00    +0.159 HD
ATOM      8  H   UNL     1      11.587   8.070  13.002  0.00  0.00    +0.159 HD
ATOM      9  H   UNL     1       9.978   8.676  12.996  0.00  0.00    +0.159 HD
ENDROOT
BRANCH   1  10
ATOM     10  C   UNL     1      12.385   5.630  13.083  0.00  0.00    +0.151 C 
BRANCH  10  11
ATOM     11  C   UNL     1      12.961   5.583  14.471  0.00  0.00    -0.028 A 
ATOM     12  C   UNL     1      13.596   6.708  15.017  0.00  0.00    +0.005 A 
ATOM     13  C   UNL     1      12.871   4.418  15.248  0.00  0.00    +0.005 A 
ATOM     14  C   UNL     1      14.105   6.675  16.317  0.00  0.00    +0.000 A 
ATOM     15  C   UNL     1      13.382   4.388  16.546  0.00  0.00    +0.000 A 
ATOM     16  C   UNL     1      13.997   5.518  17.081  0.00  0.00    +0.000 A 
ENDBRANCH  10  11
ENDBRANCH   1  10
TORSDOF 2
ENDMDL
MODEL 8
REMARK VINA RESULT:    -4.120     13.250     14.669
REMARK INTER + INTRA:          -4.736
REMARK INTER:                  -4.557
REMARK INTRA:                  -0.180
REMARK UNBOUND:                -0.134
REMARK  Name = 1550473
REMARK  2 active torsions:
REMARK  status: ('A' for Active; 'I' for Inactive)
REMARK    1  A    between atoms: N_1  and  C_4
REMARK    2  A    between atoms: C_4  and  C_5
REMARK                            x       y       z     vdW  Elec       q    Type
REMARK                         _______ _______ _______ _____ _____    ______ ____
ROOT
ATOM      1  N   UNL     1       1.889  -8.247  -3.607  0.00  0.00    -0.354 N 
ATOM      2  N   UNL     1       3.547  -6.996  -2.583  0.00  0.00    -0.372 N 
ATOM      3  N   UNL     1       1.353  -6.563  -2.068  0.00  0.00    -0.372 N 
ATOM      4  C   UNL     1       2.250  -7.276  -2.759  0.00  0.00    +0.166 C 
ATOM      5  H   UNL     1       2.615  -8.730  -4.123  0.00  0.00    +0.163 HD
ATOM      6  H   UNL     1       3.849  -6.271  -1.946  0.00  0.00    +0.159 HD
ATOM      7  H   UNL     1       4.273  -7.512  -3.065  0.00  0.00    +0.159 HD
ATOM      8  H   UNL     1       0.358  -6.720  -2.161  0.00  0.00    +0.159 HD
ATOM      9  H   UNL     1       1.636  -5.825  -1.435  0.00  0.00    +0.159 HD
ENDROOT
BRANCH   1  10
ATOM     10  C   UNL     1       0.506  -8.666  -3.831  0.00  0.00    +0.151 C 
BRANCH  10  11
ATOM     11  C   UNL     1       0.036  -8.125  -5.153  0.00  0.00    -0.028 A 
ATOM     12  C   UNL     1      -0.860  -7.048  -5.204  0.00  0.00    +0.005 A 
ATOM     13  C   UNL     1       0.488  -8.683  -6.359  0.00  0.00    +0.005 A 
ATOM     14  C   UNL     1      -1.273  -6.526  -6.432  0.00  0.00    +0.000 A 
ATOM     15  C   UNL     1       0.073  -8.160  -7.583  0.00  0.00    +0.000 A 
ATOM     16  C   UNL     1      -0.806  -7.080  -7.619  0.00  0.00    +0.000 A 
ENDBRANCH  10  11
ENDBRANCH   1  10
TORSDOF 2
ENDMDL
MODEL 9
REMARK VINA RESULT:    -4.055     29.633     31.145
REMARK INTER + INTRA:          -4.664
REMARK INTER:                  -4.512
REMARK INTRA:                  -0.152
REMARK UNBOUND:                -0.134
REMARK  Name = 1550473
REMARK  2 active torsions:
REMARK  status: ('A' for Active; 'I' for Inactive)
REMARK    1  A    between atoms: N_1  and  C_4
REMARK    2  A    between atoms: C_4  and  C_5
REMARK                            x       y       z     vdW  Elec       q    Type
REMARK                         _______ _______ _______ _____ _____    ______ ____
ROOT
ATOM      1  N   UNL     1      -5.077   1.193  10.906  0.00  0.00    -0.354 N 
ATOM      2  N   UNL     1      -6.365   2.996  10.232  0.00  0.00    -0.372 N 
ATOM      3  N   UNL     1      -4.297   3.390  11.147  0.00  0.00    -0.372 N 
ATOM      4  C   UNL     1      -5.236   2.516  10.767  0.00  0.00    +0.166 C 
ATOM      5  H   UNL     1      -5.838   0.585  10.626  0.00  0.00    +0.163 HD
ATOM      6  H   UNL     1      -6.511   3.989  10.112  0.00  0.00    +0.159 HD
ATOM      7  H   UNL     1      -7.105   2.384   9.911  0.00  0.00    +0.159 HD
ATOM      8  H   UNL     1      -3.425   3.092  11.563  0.00  0.00    +0.159 HD
ATOM      9  H   UNL     1      -4.431   4.388  11.045  0.00  0.00    +0.159 HD
ENDROOT
BRANCH   1  10
ATOM     10  C   UNL     1      -3.864   0.565  11.427  0.00  0.00    +0.151 C 
BRANCH  10  11
ATOM     11  C   UNL     1      -3.200  -0.212  10.324  0.00  0.00    -0.028 A 
ATOM     12  C   UNL     1      -3.872  -1.271   9.695  0.00  0.00    +0.005 A 
ATOM     13  C   UNL     1      -1.902   0.108   9.899  0.00  0.00    +0.005 A 
ATOM     14  C   UNL     1      -3.268  -1.973   8.650  0.00  0.00    +0.000 A 
ATOM     15  C   UNL     1      -1.302  -0.596   8.856  0.00  0.00    +0.000 A 
ATOM     16  C   UNL     1      -1.986  -1.636   8.230  0.00  0.00    +0.000 A 
ENDBRANCH  10  11
ENDBRANCH   1  10
TORSDOF 2
ENDMDL
