MODEL 1
REMARK VINA RESULT:    -4.768      0.000      0.000
REMARK INTER + INTRA:          -5.481
REMARK INTER:                  -5.325
REMARK INTRA:                  -0.156
REMARK UNBOUND:                -0.156
REMARK  Name = 1550473
REMARK  2 active torsions:
REMARK  status: ('A' for Active; 'I' for Inactive)
REMARK    1  A    between atoms: N_1  and  C_4
REMARK    2  A    between atoms: C_4  and  C_5
REMARK                            x       y       z     vdW  Elec       q    Type
REMARK                         _______ _______ _______ _____ _____    ______ ____
ROOT
ATOM      1  N   UNL     1       8.370  -5.969 -14.176  0.00  0.00    -0.354 N 
ATOM      2  N   UNL     1       6.971  -5.576 -15.980  0.00  0.00    -0.372 N 
ATOM      3  N   UNL     1       6.073  -5.622 -13.869  0.00  0.00    -0.372 N 
ATOM      4  C   UNL     1       7.145  -5.725 -14.661  0.00  0.00    +0.166 C 
ATOM      5  H   UNL     1       9.137  -6.066 -14.832  0.00  0.00    +0.163 HD
ATOM      6  H   UNL     1       6.059  -5.388 -16.375  0.00  0.00    +0.159 HD
ATOM      7  H   UNL     1       7.747  -5.627 -16.629  0.00  0.00    +0.159 HD
ATOM      8  H   UNL     1       6.136  -5.731 -12.866  0.00  0.00    +0.159 HD
ATOM      9  H   UNL     1       5.150  -5.446 -14.246  0.00  0.00    +0.159 HD
ENDROOT
BRANCH   1  10
ATOM     10  C   UNL     1       8.675  -6.094 -12.752  0.00  0.00    +0.151 C 
BRANCH  10  11
ATOM     11  C   UNL     1       9.000  -4.735 -12.198  0.00  0.00    -0.028 A 
ATOM     12  C   UNL     1      10.122  -4.029 -12.655  0.00  0.00    +0.005 A 
ATOM     13  C   UNL     1       8.185  -4.144 -11.220  0.00  0.00    +0.005 A 
ATOM     14  C   UNL     1      10.407  -2.753 -12.162  0.00  0.00    +0.000 A 
ATOM     15  C   UNL     1       8.473  -2.871 -10.730  0.00  0.00    +0.000 A 
ATOM     16  C   UNL     1       9.582  -2.174 -11.203  0.00  0.00    +0.000 A 
ENDBRANCH  10  11
ENDBRANCH   1  10
TORSDOF 2
ENDMDL
MODEL 2
REMARK VINA RESULT:    -4.723      1.030      1.890
REMARK INTER + INTRA:          -5.431
REMARK INTER:                  -5.254
REMARK INTRA:                  -0.177
REMARK UNBOUND:                -0.156
REMARK  Name = 1550473
REMARK  2 active torsions:
REMARK  status: ('A' for Active; 'I' for Inactive)
REMARK    1  A    between atoms: N_1  and  C_4
REMARK    2  A    between atoms: C_4  and  C_5
REMARK                            x       y       z     vdW  Elec       q    Type
REMARK                         _______ _______ _______ _____ _____    ______ ____
ROOT
ATOM      1  N   UNL     1       8.303  -5.866 -14.240  0.00  0.00    -0.354 N 
ATOM      2  N   UNL     1       6.707  -5.980 -15.915  0.00  0.00    -0.372 N 
ATOM      3  N   UNL     1       8.570  -4.681 -16.244  0.00  0.00    -0.372 N 
ATOM      4  C   UNL     1       7.872  -5.506 -15.456  0.00  0.00    +0.166 C 
ATOM      5  H   UNL     1       7.713  -6.471 -13.680  0.00  0.00    +0.163 HD
ATOM      6  H   UNL     1       6.359  -5.729 -16.830  0.00  0.00    +0.159 HD
ATOM      7  H   UNL     1       6.142  -6.621 -15.372  0.00  0.00    +0.159 HD
ATOM      8  H   UNL     1       9.454  -4.284 -15.954  0.00  0.00    +0.159 HD
ATOM      9  H   UNL     1       8.232  -4.409 -17.158  0.00  0.00    +0.159 HD
ENDROOT
BRANCH   1  10
ATOM     10  C   UNL     1       9.582  -5.449 -13.669  0.00  0.00    +0.151 C 
BRANCH  10  11
ATOM     11  C   UNL     1       9.342  -4.339 -12.683  0.00  0.00    -0.028 A 
ATOM     12  C   UNL     1       8.511  -4.542 -11.571  0.00  0.00    +0.005 A 
ATOM     13  C   UNL     1       9.946  -3.084 -12.852  0.00  0.00    +0.005 A 
ATOM     14  C   UNL     1       8.311  -3.521 -10.639  0.00  0.00    +0.000 A 
ATOM     15  C   UNL     1       9.743  -2.067 -11.919  0.00  0.00    +0.000 A 
ATOM     16  C   UNL     1       8.928  -2.287 -10.812  0.00  0.00    +0.000 A 
ENDBRANCH  10  11
ENDBRANCH   1  10
TORSDOF 2
ENDMDL
MODEL 3
REMARK VINA RESULT:    -4.665     12.426     13.343
REMARK INTER + INTRA:          -5.367
REMARK INTER:                  -5.267
REMARK INTRA:                  -0.100
REMARK UNBOUND:                -0.156
REMARK  Name = 1550473
REMARK  2 active torsions:
REMARK  status: ('A' for Active; 'I' for Inactive)
REMARK    1  A    between atoms: N_1  and  C_4
REMARK    2  A    between atoms: C_4  and  C_5
REMARK                            x       y       z     vdW  Elec       q    Type
REMARK                         _______ _______ _______ _____ _____    ______ ____
ROOT
ATOM      1  N   UNL     1      12.302 -11.552  -4.871  0.00  0.00    -0.354 N 
ATOM      2  N   UNL     1      12.410  -9.324  -5.496  0.00  0.00    -0.372 N 
ATOM      3  N   UNL     1      10.352 -10.316  -5.276  0.00  0.00    -0.372 N 
ATOM      4  C   UNL     1      11.684 -10.412  -5.210  0.00  0.00    +0.166 C 
ATOM      5  H   UNL     1      13.315 -11.568  -4.869  0.00  0.00    +0.163 HD
ATOM      6  H   UNL     1      11.972  -8.449  -5.752  0.00  0.00    +0.159 HD
ATOM      7  H   UNL     1      13.421  -9.331  -5.448  0.00  0.00    +0.159 HD
ATOM      8  H   UNL     1       9.748 -11.102  -5.078  0.00  0.00    +0.159 HD
ATOM      9  H   UNL     1       9.896  -9.452  -5.542  0.00  0.00    +0.159 HD
ENDROOT
BRANCH   1  10
ATOM     10  C   UNL     1      11.603 -12.778  -4.489  0.00  0.00    +0.151 C 
BRANCH  10  11
ATOM     11  C   UNL     1      12.466 -13.558  -3.536  0.00  0.00    -0.028 A 
ATOM     12  C   UNL     1      13.670 -14.131  -3.971  0.00  0.00    +0.005 A 
ATOM     13  C   UNL     1      12.087 -13.724  -2.195  0.00  0.00    +0.005 A 
ATOM     14  C   UNL     1      14.486 -14.830  -3.079  0.00  0.00    +0.000 A 
ATOM     15  C   UNL     1      12.905 -14.424  -1.307  0.00  0.00    +0.000 A 
ATOM     16  C   UNL     1      14.105 -14.975  -1.749  0.00  0.00    +0.000 A 
ENDBRANCH  10  11
ENDBRANCH   1  10
TORSDOF 2
ENDMDL
MODEL 4
REMARK VINA RESULT:    -4.482     26.592     27.634
REMARK INTER + INTRA:          -5.163
REMARK INTER:                  -4.997
REMARK INTRA:                  -0.166
REMARK UNBOUND:                -0.156
REMARK  Name = 1550473
REMARK  2 active torsions:
REMARK  status: ('A' for Active; 'I' for Inactive)
REMARK    1  A    between atoms: N_1  and  C_4
REMARK    2  A    between atoms: C_4  and  C_5
REMARK                            x       y       z     vdW  Elec       q    Type
REMARK                         _______ _______ _______ _____ _____    ______ ____
ROOT
ATOM      1  N   UNL     1      -8.867  12.804  -0.435  0.00  0.00    -0.354 N 
ATOM      2  N   UNL     1      -8.968  14.332   1.302  0.00  0.00    -0.372 N 
ATOM      3  N   UNL     1      -8.327  12.176   1.757  0.00  0.00    -0.372 N 
ATOM      4  C   UNL     1      -8.719  13.092   0.865  0.00  0.00    +0.166 C 
ATOM      5  H   UNL     1      -9.196  13.535  -1.056  0.00  0.00    +0.163 HD
ATOM      6  H   UNL     1      -8.862  14.580   2.277  0.00  0.00    +0.159 HD
ATOM      7  H   UNL     1      -9.253  15.072   0.672  0.00  0.00    +0.159 HD
ATOM      8  H   UNL     1      -8.130  11.221   1.492  0.00  0.00    +0.159 HD
ATOM      9  H   UNL     1      -8.227  12.402   2.739  0.00  0.00    +0.159 HD
ENDROOT
BRANCH   1  10
ATOM     10  C   UNL     1      -8.570  11.499  -1.023  0.00  0.00    +0.151 C 
BRANCH  10  11
ATOM     11  C   UNL     1      -9.838  10.695  -1.098  0.00  0.00    -0.028 A 
ATOM     12  C   UNL     1      -9.864   9.363  -0.659  0.00  0.00    +0.005 A 
ATOM     13  C   UNL     1     -11.019  11.261  -1.603  0.00  0.00    +0.005 A 
ATOM     14  C   UNL     1     -11.050   8.625  -0.702  0.00  0.00    +0.000 A 
ATOM     15  C   UNL     1     -12.201  10.520  -1.644  0.00  0.00    +0.000 A 
ATOM     16  C   UNL     1     -12.216   9.203  -1.191  0.00  0.00    +0.000 A 
ENDBRANCH  10  11
ENDBRANCH   1  10
TORSDOF 2
ENDMDL
MODEL 5
REMARK VINA RESULT:    -4.466     32.228     33.665
REMARK INTER + INTRA:          -5.144
REMARK INTER:                  -5.048
REMARK INTRA:                  -0.096
REMARK UNBOUND:                -0.156
REMARK  Name = 1550473
REMARK  2 active torsions:
REMARK  status: ('A' for Active; 'I' for Inactive)
REMARK    1  A    between atoms: N_1  and  C_4
REMARK    2  A    between atoms: C_4  and  C_5
REMARK                            x       y       z     vdW  Elec       q    Type
REMARK                         _______ _______ _______ _____ _____    ______ ____
ROOT
ATOM      1  N   UNL     1     -13.980  -3.151  14.358  0.00  0.00    -0.354 N 
ATOM      2  N   UNL     1     -14.769  -5.068  15.391  0.00  0.00    -0.372 N 
ATOM      3  N   UNL     1     -15.115  -4.800  13.139  0.00  0.00    -0.372 N 
ATOM      4  C   UNL     1     -14.617  -4.328  14.287  0.00  0.00    +0.166 C 
ATOM      5  H   UNL     1     -13.652  -2.836  15.264  0.00  0.00    +0.163 HD
ATOM      6  H   UNL     1     -15.243  -5.961  15.368  0.00  0.00    +0.159 HD
ATOM      7  H   UNL     1     -14.400  -4.771  16.287  0.00  0.00    +0.159 HD
ATOM      8  H   UNL     1     -15.039  -4.286  12.271  0.00  0.00    +0.159 HD
ATOM      9  H   UNL     1     -15.603  -5.686  13.097  0.00  0.00    +0.159 HD
ENDROOT
BRANCH   1  10
ATOM     10  C   UNL     1     -13.715  -2.294  13.204  0.00  0.00    +0.151 C 
BRANCH  10  11
ATOM     11  C   UNL     1     -12.245  -2.336  12.889  0.00  0.00    -0.028 A 
ATOM     12  C   UNL     1     -11.716  -1.550  11.854  0.00  0.00    +0.005 A 
ATOM     13  C   UNL     1     -11.375  -3.155  13.625  0.00  0.00    +0.005 A 
ATOM     14  C   UNL     1     -10.346  -1.566  11.580  0.00  0.00    +0.000 A 
ATOM     15  C   UNL     1     -10.008  -3.169  13.347  0.00  0.00    +0.000 A 
ATOM     16  C   UNL     1      -9.494  -2.372  12.327  0.00  0.00    +0.000 A 
ENDBRANCH  10  11
ENDBRANCH   1  10
TORSDOF 2
ENDMDL
MODEL 6
REMARK VINA RESULT:    -4.362     30.799     31.252
REMARK INTER + INTRA:          -5.028
REMARK INTER:                  -4.913
REMARK INTRA:                  -0.115
REMARK UNBOUND:                -0.156
REMARK  Name = 1550473
REMARK  2 active torsions:
REMARK  status: ('A' for Active; 'I' for Inactive)
REMARK    1  A    between atoms: N_1  and  C_4
REMARK    2  A    between atoms: C_4  and  C_5
REMARK                            x       y       z     vdW  Elec       q    Type
REMARK                         _______ _______ _______ _____ _____    ______ ____
ROOT
ATOM      1  N   UNL     1      -9.533  -1.898  12.537  0.00  0.00    -0.354 N 
ATOM      2  N   UNL     1     -10.698  -0.393  11.217  0.00  0.00    -0.372 N 
ATOM      3  N   UNL     1     -11.770  -2.283  11.955  0.00  0.00    -0.372 N 
ATOM      4  C   UNL     1     -10.661  -1.537  11.912  0.00  0.00    +0.166 C 
ATOM      5  H   UNL     1      -8.717  -1.303  12.440  0.00  0.00    +0.163 HD
ATOM      6  H   UNL     1     -11.537  -0.093  10.739  0.00  0.00    +0.159 HD
ATOM      7  H   UNL     1      -9.896   0.222  11.161  0.00  0.00    +0.159 HD
ATOM      8  H   UNL     1     -11.806  -3.160  12.457  0.00  0.00    +0.159 HD
ATOM      9  H   UNL     1     -12.615  -2.005  11.473  0.00  0.00    +0.159 HD
ENDROOT
BRANCH   1  10
ATOM     10  C   UNL     1      -9.403  -3.097  13.364  0.00  0.00    +0.151 C 
BRANCH  10  11
ATOM     11  C   UNL     1      -7.970  -3.244  13.794  0.00  0.00    -0.028 A 
ATOM     12  C   UNL     1      -7.415  -4.516  13.996  0.00  0.00    +0.005 A 
ATOM     13  C   UNL     1      -7.160  -2.116  13.996  0.00  0.00    +0.005 A 
ATOM     14  C   UNL     1      -6.075  -4.655  14.367  0.00  0.00    +0.000 A 
ATOM     15  C   UNL     1      -5.823  -2.259  14.367  0.00  0.00    +0.000 A 
ATOM     16  C   UNL     1      -5.281  -3.528  14.550  0.00  0.00    +0.000 A 
ENDBRANCH  10  11
ENDBRANCH   1  10
TORSDOF 2
ENDMDL
MODEL 7
REMARK VINA RESULT:    -4.357     16.094     17.320
REMARK INTER + INTRA:          -5.022
REMARK INTER:                  -4.888
REMARK INTRA:                  -0.134
REMARK UNBOUND:                -0.156
REMARK  Name = 1550473
REMARK  2 active torsions:
REMARK  status: ('A' for Active; 'I' for Inactive)
REMARK    1  A    between atoms: N_1  and  C_4
REMARK    2  A    between atoms: C_4  and  C_5
REMARK                            x       y       z     vdW  Elec       q    Type
REMARK                         _______ _______ _______ _____ _____    ______ ____
ROOT
ATOM      1  N   UNL     1      15.471   5.271  -1.283  0.00  0.00    -0.354 N 
ATOM      2  N   UNL     1      16.136   3.057  -1.423  0.00  0.00    -0.372 N 
ATOM      3  N   UNL     1      16.383   4.166   0.571  0.00  0.00    -0.372 N 
ATOM      4  C   UNL     1      15.993   4.180  -0.708  0.00  0.00    +0.166 C 
ATOM      5  H   UNL     1      15.223   5.226  -2.265  0.00  0.00    +0.163 HD
ATOM      6  H   UNL     1      16.524   2.217  -1.015  0.00  0.00    +0.159 HD
ATOM      7  H   UNL     1      15.845   3.001  -2.391  0.00  0.00    +0.159 HD
ATOM      8  H   UNL     1      16.307   4.982   1.163  0.00  0.00    +0.159 HD
ATOM      9  H   UNL     1      16.784   3.338   0.994  0.00  0.00    +0.159 HD
ENDROOT
BRANCH   1  10
ATOM     10  C   UNL     1      15.223   6.528  -0.578  0.00  0.00    +0.151 C 
BRANCH  10  11
ATOM     11  C   UNL     1      13.978   7.164  -1.132  0.00  0.00    -0.028 A 
ATOM     12  C   UNL     1      13.161   6.464  -2.032  0.00  0.00    +0.005 A 
ATOM     13  C   UNL     1      13.606   8.463  -0.755  0.00  0.00    +0.005 A 
ATOM     14  C   UNL     1      11.988   7.044  -2.523  0.00  0.00    +0.000 A 
ATOM     15  C   UNL     1      12.435   9.038  -1.248  0.00  0.00    +0.000 A 
ATOM     16  C   UNL     1      11.625   8.327  -2.130  0.00  0.00    +0.000 A 
ENDBRANCH  10  11
ENDBRANCH   1  10
TORSDOF 2
ENDMDL
MODEL 8
REMARK VINA RESULT:    -4.349      1.604      2.482
REMARK INTER + INTRA:          -5.014
REMARK INTER:                  -4.864
REMARK INTRA:                  -0.150
REMARK UNBOUND:                -0.156
REMARK  Name = 1550473
REMARK  2 active torsions:
REMARK  status: ('A' for Active; 'I' for Inactive)
REMARK    1  A    between atoms: N_1  and  C_4
REMARK    2  A    between atoms: C_4  and  C_5
REMARK                            x       y       z     vdW  Elec       q    Type
REMARK                         _______ _______ _______ _____ _____    ______ ____
ROOT
ATOM      1  N   UNL     1       8.213  -6.740 -12.276  0.00  0.00    -0.354 N 
ATOM      2  N   UNL     1       9.236  -8.671 -13.043  0.00  0.00    -0.372 N 
ATOM      3  N   UNL     1       7.791  -7.555 -14.432  0.00  0.00    -0.372 N 
ATOM      4  C   UNL     1       8.405  -7.642 -13.247  0.00  0.00    +0.166 C 
ATOM      5  H   UNL     1       8.685  -6.879 -11.389  0.00  0.00    +0.163 HD
ATOM      6  H   UNL     1       9.404  -9.366 -13.758  0.00  0.00    +0.159 HD
ATOM      7  H   UNL     1       9.742  -8.783 -12.172  0.00  0.00    +0.159 HD
ATOM      8  H   UNL     1       7.147  -6.806 -14.647  0.00  0.00    +0.159 HD
ATOM      9  H   UNL     1       7.936  -8.247 -15.156  0.00  0.00    +0.159 HD
ENDROOT
BRANCH   1  10
ATOM     10  C   UNL     1       7.370  -5.554 -12.416  0.00  0.00    +0.151 C 
BRANCH  10  11
ATOM     11  C   UNL     1       8.206  -4.327 -12.177  0.00  0.00    -0.028 A 
ATOM     12  C   UNL     1       8.157  -3.661 -10.943  0.00  0.00    +0.005 A 
ATOM     13  C   UNL     1       9.053  -3.827 -13.179  0.00  0.00    +0.005 A 
ATOM     14  C   UNL     1       8.956  -2.539 -10.711  0.00  0.00    +0.000 A 
ATOM     15  C   UNL     1       9.848  -2.706 -12.943  0.00  0.00    +0.000 A 
ATOM     16  C   UNL     1       9.801  -2.063 -11.708  0.00  0.00    +0.000 A 
ENDBRANCH  10  11
ENDBRANCH   1  10
TORSDOF 2
ENDMDL
MODEL 9
REMARK VINA RESULT:    -4.279     24.467     26.007
REMARK INTER + INTRA:          -4.935
REMARK INTER:                  -4.763
REMARK INTRA:                  -0.173
REMARK UNBOUND:                -0.156
REMARK  Name = 1550473
REMARK  2 active torsions:
REMARK  status: ('A' for Active; 'I' for Inactive)
REMARK    1  A    between atoms: N_1  and  C_4
REMARK    2  A    between atoms: C_4  and  C_5
REMARK                            x       y       z     vdW  Elec       q    Type
REMARK                         _______ _______ _______ _____ _____    ______ ____
ROOT
ATOM      1  N   UNL     1      -7.088  11.329  -2.552  0.00  0.00    -0.354 N 
ATOM      2  N   UNL     1      -6.349   9.233  -3.206  0.00  0.00    -0.372 N 
ATOM      3  N   UNL     1      -8.579   9.532  -2.756  0.00  0.00    -0.372 N 
ATOM      4  C   UNL     1      -7.346  10.044  -2.833  0.00  0.00    +0.166 C 
ATOM      5  H   UNL     1      -6.127  11.648  -2.601  0.00  0.00    +0.163 HD
ATOM      6  H   UNL     1      -6.514   8.260  -3.428  0.00  0.00    +0.159 HD
ATOM      7  H   UNL     1      -5.397   9.567  -3.298  0.00  0.00    +0.159 HD
ATOM      8  H   UNL     1      -9.374  10.090  -2.475  0.00  0.00    +0.159 HD
ATOM      9  H   UNL     1      -8.762   8.558  -2.962  0.00  0.00    +0.159 HD
ENDROOT
BRANCH   1  10
ATOM     10  C   UNL     1      -8.111  12.308  -2.190  0.00  0.00    +0.151 C 
BRANCH  10  11
ATOM     11  C   UNL     1      -7.964  12.655  -0.734  0.00  0.00    -0.028 A 
ATOM     12  C   UNL     1      -8.528  11.834   0.254  0.00  0.00    +0.005 A 
ATOM     13  C   UNL     1      -7.258  13.800  -0.335  0.00  0.00    +0.005 A 
ATOM     14  C   UNL     1      -8.366  12.140   1.608  0.00  0.00    +0.000 A 
ATOM     15  C   UNL     1      -7.099  14.102   1.017  0.00  0.00    +0.000 A 
ATOM     16  C   UNL     1      -7.652  13.270   1.988  0.00  0.00    +0.000 A 
ENDBRANCH  10  11
ENDBRANCH   1  10
TORSDOF 2
ENDMDL
