MODEL 1
REMARK VINA RESULT:    -6.282      0.000      0.000
REMARK INTER + INTRA:          -7.137
REMARK INTER:                  -7.017
REMARK INTRA:                  -0.120
REMARK UNBOUND:                -0.120
REMARK  Name = 1550473
REMARK  2 active torsions:
REMARK  status: ('A' for Active; 'I' for Inactive)
REMARK    1  A    between atoms: N_1  and  C_4
REMARK    2  A    between atoms: C_4  and  C_5
REMARK                            x       y       z     vdW  Elec       q    Type
REMARK                         _______ _______ _______ _____ _____    ______ ____
ROOT
ATOM      1  N   UNL     1     -13.047  -2.180  -1.570  0.00  0.00    -0.354 N 
ATOM      2  N   UNL     1     -13.202  -4.473  -1.284  0.00  0.00    -0.372 N 
ATOM      3  N   UNL     1     -11.360  -3.610  -2.344  0.00  0.00    -0.372 N 
ATOM      4  C   UNL     1     -12.533  -3.406  -1.736  0.00  0.00    +0.166 C 
ATOM      5  H   UNL     1     -13.955  -2.095  -1.127  0.00  0.00    +0.163 HD
ATOM      6  H   UNL     1     -12.838  -5.410  -1.392  0.00  0.00    +0.159 HD
ATOM      7  H   UNL     1     -14.088  -4.381  -0.801  0.00  0.00    +0.159 HD
ATOM      8  H   UNL     1     -10.808  -2.847  -2.714  0.00  0.00    +0.159 HD
ATOM      9  H   UNL     1     -10.984  -4.541  -2.472  0.00  0.00    +0.159 HD
ENDROOT
BRANCH   1  10
ATOM     10  C   UNL     1     -12.373  -0.948  -1.977  0.00  0.00    +0.151 C 
BRANCH  10  11
ATOM     11  C   UNL     1     -13.405   0.116  -2.229  0.00  0.00    -0.028 A 
ATOM     12  C   UNL     1     -14.642   0.079  -1.569  0.00  0.00    +0.005 A 
ATOM     13  C   UNL     1     -13.149   1.169  -3.121  0.00  0.00    +0.005 A 
ATOM     14  C   UNL     1     -15.589   1.084  -1.779  0.00  0.00    +0.000 A 
ATOM     15  C   UNL     1     -14.098   2.170  -3.329  0.00  0.00    +0.000 A 
ATOM     16  C   UNL     1     -15.316   2.128  -2.656  0.00  0.00    +0.000 A 
ENDBRANCH  10  11
ENDBRANCH   1  10
TORSDOF 2
ENDMDL
MODEL 2
REMARK VINA RESULT:    -5.813      9.992     10.330
REMARK INTER + INTRA:          -6.613
REMARK INTER:                  -6.439
REMARK INTRA:                  -0.174
REMARK UNBOUND:                -0.120
REMARK  Name = 1550473
REMARK  2 active torsions:
REMARK  status: ('A' for Active; 'I' for Inactive)
REMARK    1  A    between atoms: N_1  and  C_4
REMARK    2  A    between atoms: C_4  and  C_5
REMARK                            x       y       z     vdW  Elec       q    Type
REMARK                         _______ _______ _______ _____ _____    ______ ____
ROOT
ATOM      1  N   UNL     1      -9.889   1.109   8.296  0.00  0.00    -0.354 N 
ATOM      2  N   UNL     1      -8.219  -0.377   7.690  0.00  0.00    -0.372 N 
ATOM      3  N   UNL     1     -10.286  -0.571   6.711  0.00  0.00    -0.372 N 
ATOM      4  C   UNL     1      -9.478   0.062   7.568  0.00  0.00    +0.166 C 
ATOM      5  H   UNL     1      -9.237   1.527   8.950  0.00  0.00    +0.163 HD
ATOM      6  H   UNL     1      -7.880  -1.163   7.151  0.00  0.00    +0.159 HD
ATOM      7  H   UNL     1      -7.556   0.071   8.310  0.00  0.00    +0.159 HD
ATOM      8  H   UNL     1     -11.249  -0.292   6.577  0.00  0.00    +0.159 HD
ATOM      9  H   UNL     1      -9.968  -1.367   6.172  0.00  0.00    +0.159 HD
ENDROOT
BRANCH   1  10
ATOM     10  C   UNL     1     -11.223   1.700   8.198  0.00  0.00    +0.151 C 
BRANCH  10  11
ATOM     11  C   UNL     1     -11.152   2.937   7.346  0.00  0.00    -0.028 A 
ATOM     12  C   UNL     1     -10.174   3.913   7.589  0.00  0.00    +0.005 A 
ATOM     13  C   UNL     1     -12.055   3.136   6.291  0.00  0.00    +0.005 A 
ATOM     14  C   UNL     1     -10.089   5.048   6.779  0.00  0.00    +0.000 A 
ATOM     15  C   UNL     1     -11.967   4.271   5.485  0.00  0.00    +0.000 A 
ATOM     16  C   UNL     1     -10.982   5.225   5.727  0.00  0.00    +0.000 A 
ENDBRANCH  10  11
ENDBRANCH   1  10
TORSDOF 2
ENDMDL
MODEL 3
REMARK VINA RESULT:    -5.802      9.545      9.921
REMARK INTER + INTRA:          -6.601
REMARK INTER:                  -6.434
REMARK INTRA:                  -0.167
REMARK UNBOUND:                -0.120
REMARK  Name = 1550473
REMARK  2 active torsions:
REMARK  status: ('A' for Active; 'I' for Inactive)
REMARK    1  A    between atoms: N_1  and  C_4
REMARK    2  A    between atoms: C_4  and  C_5
REMARK                            x       y       z     vdW  Elec       q    Type
REMARK                         _______ _______ _______ _____ _____    ______ ____
ROOT
ATOM      1  N   UNL     1     -11.188   2.736   7.965  0.00  0.00    -0.354 N 
ATOM      2  N   UNL     1     -11.896   0.896   9.180  0.00  0.00    -0.372 N 
ATOM      3  N   UNL     1     -10.967   0.566   7.108  0.00  0.00    -0.372 N 
ATOM      4  C   UNL     1     -11.345   1.410   8.074  0.00  0.00    +0.166 C 
ATOM      5  H   UNL     1     -11.522   3.324   8.720  0.00  0.00    +0.163 HD
ATOM      6  H   UNL     1     -12.024  -0.101   9.292  0.00  0.00    +0.159 HD
ATOM      7  H   UNL     1     -12.187   1.482   9.953  0.00  0.00    +0.159 HD
ATOM      8  H   UNL     1     -10.551   0.891   6.245  0.00  0.00    +0.159 HD
ATOM      9  H   UNL     1     -11.098  -0.434   7.196  0.00  0.00    +0.159 HD
ENDROOT
BRANCH   1  10
ATOM     10  C   UNL     1     -10.550   3.393   6.825  0.00  0.00    +0.151 C 
BRANCH  10  11
ATOM     11  C   UNL     1     -11.574   4.224   6.102  0.00  0.00    -0.028 A 
ATOM     12  C   UNL     1     -11.677   5.601   6.349  0.00  0.00    +0.005 A 
ATOM     13  C   UNL     1     -12.440   3.641   5.164  0.00  0.00    +0.005 A 
ATOM     14  C   UNL     1     -12.608   6.378   5.655  0.00  0.00    +0.000 A 
ATOM     15  C   UNL     1     -13.368   4.421   4.474  0.00  0.00    +0.000 A 
ATOM     16  C   UNL     1     -13.450   5.790   4.718  0.00  0.00    +0.000 A 
ENDBRANCH  10  11
ENDBRANCH   1  10
TORSDOF 2
ENDMDL
MODEL 4
REMARK VINA RESULT:    -5.696     23.914     24.623
REMARK INTER + INTRA:          -6.482
REMARK INTER:                  -6.346
REMARK INTRA:                  -0.136
REMARK UNBOUND:                -0.120
REMARK  Name = 1550473
REMARK  2 active torsions:
REMARK  status: ('A' for Active; 'I' for Inactive)
REMARK    1  A    between atoms: N_1  and  C_4
REMARK    2  A    between atoms: C_4  and  C_5
REMARK                            x       y       z     vdW  Elec       q    Type
REMARK                         _______ _______ _______ _____ _____    ______ ____
ROOT
ATOM      1  N   UNL     1      -2.360  15.216  10.973  0.00  0.00    -0.354 N 
ATOM      2  N   UNL     1      -2.028  16.993   9.525  0.00  0.00    -0.372 N 
ATOM      3  N   UNL     1      -3.363  17.297  11.367  0.00  0.00    -0.372 N 
ATOM      4  C   UNL     1      -2.588  16.491  10.633  0.00  0.00    +0.166 C 
ATOM      5  H   UNL     1      -1.788  14.648  10.359  0.00  0.00    +0.163 HD
ATOM      6  H   UNL     1      -2.179  17.952   9.245  0.00  0.00    +0.159 HD
ATOM      7  H   UNL     1      -1.419  16.436   8.937  0.00  0.00    +0.159 HD
ATOM      8  H   UNL     1      -3.819  16.978  12.211  0.00  0.00    +0.159 HD
ATOM      9  H   UNL     1      -3.535  18.257  11.097  0.00  0.00    +0.159 HD
ENDROOT
BRANCH   1  10
ATOM     10  C   UNL     1      -2.878  14.589  12.188  0.00  0.00    +0.151 C 
BRANCH  10  11
ATOM     11  C   UNL     1      -1.784  13.781  12.829  0.00  0.00    -0.028 A 
ATOM     12  C   UNL     1      -0.627  13.450  12.108  0.00  0.00    +0.005 A 
ATOM     13  C   UNL     1      -1.894  13.350  14.160  0.00  0.00    +0.005 A 
ATOM     14  C   UNL     1       0.403  12.726  12.712  0.00  0.00    +0.000 A 
ATOM     15  C   UNL     1      -0.863  12.626  14.760  0.00  0.00    +0.000 A 
ATOM     16  C   UNL     1       0.286  12.317  14.036  0.00  0.00    +0.000 A 
ENDBRANCH  10  11
ENDBRANCH   1  10
TORSDOF 2
ENDMDL
MODEL 5
REMARK VINA RESULT:    -5.659     26.402     26.890
REMARK INTER + INTRA:          -6.441
REMARK INTER:                  -6.313
REMARK INTRA:                  -0.128
REMARK UNBOUND:                -0.120
REMARK  Name = 1550473
REMARK  2 active torsions:
REMARK  status: ('A' for Active; 'I' for Inactive)
REMARK    1  A    between atoms: N_1  and  C_4
REMARK    2  A    between atoms: C_4  and  C_5
REMARK                            x       y       z     vdW  Elec       q    Type
REMARK                         _______ _______ _______ _____ _____    ______ ____
ROOT
ATOM      1  N   UNL     1       0.460  -7.210 -24.016  0.00  0.00    -0.354 N 
ATOM      2  N   UNL     1      -1.218  -6.469 -25.430  0.00  0.00    -0.372 N 
ATOM      3  N   UNL     1      -0.254  -4.978 -23.976  0.00  0.00    -0.372 N 
ATOM      4  C   UNL     1      -0.326  -6.222 -24.463  0.00  0.00    +0.166 C 
ATOM      5  H   UNL     1       0.336  -8.138 -24.405  0.00  0.00    +0.163 HD
ATOM      6  H   UNL     1      -1.822  -5.742 -25.790  0.00  0.00    +0.159 HD
ATOM      7  H   UNL     1      -1.308  -7.386 -25.850  0.00  0.00    +0.159 HD
ATOM      8  H   UNL     1       0.393  -4.728 -23.241  0.00  0.00    +0.159 HD
ATOM      9  H   UNL     1      -0.859  -4.240 -24.315  0.00  0.00    +0.159 HD
ENDROOT
BRANCH   1  10
ATOM     10  C   UNL     1       1.500  -7.033 -23.004  0.00  0.00    +0.151 C 
BRANCH  10  11
ATOM     11  C   UNL     1       1.777  -8.358 -22.348  0.00  0.00    -0.028 A 
ATOM     12  C   UNL     1       1.085  -9.510 -22.750  0.00  0.00    +0.005 A 
ATOM     13  C   UNL     1       2.735  -8.469 -21.329  0.00  0.00    +0.005 A 
ATOM     14  C   UNL     1       1.364 -10.746 -22.162  0.00  0.00    +0.000 A 
ATOM     15  C   UNL     1       3.010  -9.705 -20.744  0.00  0.00    +0.000 A 
ATOM     16  C   UNL     1       2.326 -10.844 -21.162  0.00  0.00    +0.000 A 
ENDBRANCH  10  11
ENDBRANCH   1  10
TORSDOF 2
ENDMDL
MODEL 6
REMARK VINA RESULT:    -5.647     23.612     24.252
REMARK INTER + INTRA:          -6.428
REMARK INTER:                  -6.320
REMARK INTRA:                  -0.108
REMARK UNBOUND:                -0.120
REMARK  Name = 1550473
REMARK  2 active torsions:
REMARK  status: ('A' for Active; 'I' for Inactive)
REMARK    1  A    between atoms: N_1  and  C_4
REMARK    2  A    between atoms: C_4  and  C_5
REMARK                            x       y       z     vdW  Elec       q    Type
REMARK                         _______ _______ _______ _____ _____    ______ ____
ROOT
ATOM      1  N   UNL     1      -2.567  14.279  12.425  0.00  0.00    -0.354 N 
ATOM      2  N   UNL     1      -3.206  15.608  10.639  0.00  0.00    -0.372 N 
ATOM      3  N   UNL     1      -3.407  13.330  10.454  0.00  0.00    -0.372 N 
ATOM      4  C   UNL     1      -3.056  14.394  11.183  0.00  0.00    +0.166 C 
ATOM      5  H   UNL     1      -2.292  15.123  12.914  0.00  0.00    +0.163 HD
ATOM      6  H   UNL     1      -3.575  15.726   9.705  0.00  0.00    +0.159 HD
ATOM      7  H   UNL     1      -2.973  16.452  11.147  0.00  0.00    +0.159 HD
ATOM      8  H   UNL     1      -3.313  12.386  10.805  0.00  0.00    +0.159 HD
ATOM      9  H   UNL     1      -3.768  13.427   9.513  0.00  0.00    +0.159 HD
ENDROOT
BRANCH   1  10
ATOM     10  C   UNL     1      -2.415  13.007  13.129  0.00  0.00    +0.151 C 
BRANCH  10  11
ATOM     11  C   UNL     1      -0.951  12.735  13.341  0.00  0.00    -0.028 A 
ATOM     12  C   UNL     1      -0.495  12.195  14.552  0.00  0.00    +0.005 A 
ATOM     13  C   UNL     1      -0.016  13.008  12.331  0.00  0.00    +0.005 A 
ATOM     14  C   UNL     1       0.860  11.914  14.738  0.00  0.00    +0.000 A 
ATOM     15  C   UNL     1       1.337  12.727  12.521  0.00  0.00    +0.000 A 
ATOM     16  C   UNL     1       1.774  12.177  13.723  0.00  0.00    +0.000 A 
ENDBRANCH  10  11
ENDBRANCH   1  10
TORSDOF 2
ENDMDL
MODEL 7
REMARK VINA RESULT:    -5.444     25.492     26.118
REMARK INTER + INTRA:          -6.200
REMARK INTER:                  -6.068
REMARK INTRA:                  -0.132
REMARK UNBOUND:                -0.120
REMARK  Name = 1550473
REMARK  2 active torsions:
REMARK  status: ('A' for Active; 'I' for Inactive)
REMARK    1  A    between atoms: N_1  and  C_4
REMARK    2  A    between atoms: C_4  and  C_5
REMARK                            x       y       z     vdW  Elec       q    Type
REMARK                         _______ _______ _______ _____ _____    ______ ____
ROOT
ATOM      1  N   UNL     1       0.818  -7.545 -22.099  0.00  0.00    -0.354 N 
ATOM      2  N   UNL     1       0.030  -9.291 -20.797  0.00  0.00    -0.372 N 
ATOM      3  N   UNL     1       1.211  -9.774 -22.704  0.00  0.00    -0.372 N 
ATOM      4  C   UNL     1       0.693  -8.860 -21.878  0.00  0.00    +0.166 C 
ATOM      5  H   UNL     1       0.377  -6.903 -21.451  0.00  0.00    +0.163 HD
ATOM      6  H   UNL     1      -0.078 -10.277 -20.602  0.00  0.00    +0.159 HD
ATOM      7  H   UNL     1      -0.371  -8.647 -20.126  0.00  0.00    +0.159 HD
ATOM      8  H   UNL     1       1.717  -9.515 -23.540  0.00  0.00    +0.159 HD
ATOM      9  H   UNL     1       1.103 -10.766 -22.532  0.00  0.00    +0.159 HD
ENDROOT
BRANCH   1  10
ATOM     10  C   UNL     1       1.566  -6.972 -23.217  0.00  0.00    +0.151 C 
BRANCH  10  11
ATOM     11  C   UNL     1       0.741  -5.889 -23.856  0.00  0.00    -0.028 A 
ATOM     12  C   UNL     1       1.150  -4.549 -23.789  0.00  0.00    +0.005 A 
ATOM     13  C   UNL     1      -0.447  -6.198 -24.536  0.00  0.00    +0.005 A 
ATOM     14  C   UNL     1       0.399  -3.547 -24.409  0.00  0.00    +0.000 A 
ATOM     15  C   UNL     1      -1.194  -5.194 -25.152  0.00  0.00    +0.000 A 
ATOM     16  C   UNL     1      -0.769  -3.869 -25.091  0.00  0.00    +0.000 A 
ENDBRANCH  10  11
ENDBRANCH   1  10
TORSDOF 2
ENDMDL
MODEL 8
REMARK VINA RESULT:    -5.412     23.941     24.493
REMARK INTER + INTRA:          -6.165
REMARK INTER:                  -6.033
REMARK INTRA:                  -0.132
REMARK UNBOUND:                -0.120
REMARK  Name = 1550473
REMARK  2 active torsions:
REMARK  status: ('A' for Active; 'I' for Inactive)
REMARK    1  A    between atoms: N_1  and  C_4
REMARK    2  A    between atoms: C_4  and  C_5
REMARK                            x       y       z     vdW  Elec       q    Type
REMARK                         _______ _______ _______ _____ _____    ______ ____
ROOT
ATOM      1  N   UNL     1      -1.445  14.003  12.135  0.00  0.00    -0.354 N 
ATOM      2  N   UNL     1      -3.216  14.683  10.806  0.00  0.00    -0.372 N 
ATOM      3  N   UNL     1      -2.343  12.583  10.502  0.00  0.00    -0.372 N 
ATOM      4  C   UNL     1      -2.323  13.749  11.155  0.00  0.00    +0.166 C 
ATOM      5  H   UNL     1      -1.462  14.918  12.571  0.00  0.00    +0.163 HD
ATOM      6  H   UNL     1      -3.893  14.518  10.072  0.00  0.00    +0.159 HD
ATOM      7  H   UNL     1      -3.260  15.579  11.274  0.00  0.00    +0.159 HD
ATOM      8  H   UNL     1      -1.691  11.839  10.713  0.00  0.00    +0.159 HD
ATOM      9  H   UNL     1      -3.004  12.404   9.757  0.00  0.00    +0.159 HD
ENDROOT
BRANCH   1  10
ATOM     10  C   UNL     1      -0.467  13.035  12.628  0.00  0.00    +0.151 C 
BRANCH  10  11
ATOM     11  C   UNL     1      -0.750  12.744  14.076  0.00  0.00    -0.028 A 
ATOM     12  C   UNL     1      -1.818  13.372  14.733  0.00  0.00    +0.005 A 
ATOM     13  C   UNL     1       0.042  11.836  14.795  0.00  0.00    +0.005 A 
ATOM     14  C   UNL     1      -2.100  13.079  16.069  0.00  0.00    +0.000 A 
ATOM     15  C   UNL     1      -0.243  11.546  16.129  0.00  0.00    +0.000 A 
ATOM     16  C   UNL     1      -1.315  12.167  16.765  0.00  0.00    +0.000 A 
ENDBRANCH  10  11
ENDBRANCH   1  10
TORSDOF 2
ENDMDL
MODEL 9
REMARK VINA RESULT:    -5.397      4.051      5.613
REMARK INTER + INTRA:          -6.149
REMARK INTER:                  -5.972
REMARK INTRA:                  -0.177
REMARK UNBOUND:                -0.120
REMARK  Name = 1550473
REMARK  2 active torsions:
REMARK  status: ('A' for Active; 'I' for Inactive)
REMARK    1  A    between atoms: N_1  and  C_4
REMARK    2  A    between atoms: C_4  and  C_5
REMARK                            x       y       z     vdW  Elec       q    Type
REMARK                         _______ _______ _______ _____ _____    ______ ____
ROOT
ATOM      1  N   UNL     1     -16.029   2.988  -0.860  0.00  0.00    -0.354 N 
ATOM      2  N   UNL     1     -15.719   5.014   0.218  0.00  0.00    -0.372 N 
ATOM      3  N   UNL     1     -15.473   4.921  -2.061  0.00  0.00    -0.372 N 
ATOM      4  C   UNL     1     -15.742   4.295  -0.911  0.00  0.00    +0.166 C 
ATOM      5  H   UNL     1     -16.193   2.566   0.047  0.00  0.00    +0.163 HD
ATOM      6  H   UNL     1     -15.509   6.003   0.210  0.00  0.00    +0.159 HD
ATOM      7  H   UNL     1     -15.929   4.600   1.118  0.00  0.00    +0.159 HD
ATOM      8  H   UNL     1     -15.469   4.434  -2.948  0.00  0.00    +0.159 HD
ATOM      9  H   UNL     1     -15.249   5.908  -2.088  0.00  0.00    +0.159 HD
ENDROOT
BRANCH   1  10
ATOM     10  C   UNL     1     -16.132   2.127  -2.036  0.00  0.00    +0.151 C 
BRANCH  10  11
ATOM     11  C   UNL     1     -14.860   1.340  -2.182  0.00  0.00    -0.028 A 
ATOM     12  C   UNL     1     -14.668   0.154  -1.458  0.00  0.00    +0.005 A 
ATOM     13  C   UNL     1     -13.843   1.771  -3.049  0.00  0.00    +0.005 A 
ATOM     14  C   UNL     1     -13.499  -0.593  -1.616  0.00  0.00    +0.000 A 
ATOM     15  C   UNL     1     -12.676   1.022  -3.203  0.00  0.00    +0.000 A 
ATOM     16  C   UNL     1     -12.506  -0.161  -2.488  0.00  0.00    +0.000 A 
ENDBRANCH  10  11
ENDBRANCH   1  10
TORSDOF 2
ENDMDL
