MODEL 1
REMARK VINA RESULT:    -6.049      0.000      0.000
REMARK INTER + INTRA:          -6.815
REMARK INTER:                  -6.756
REMARK INTRA:                  -0.059
REMARK UNBOUND:                -0.059
REMARK  Name = 1550473
REMARK  2 active torsions:
REMARK  status: ('A' for Active; 'I' for Inactive)
REMARK    1  A    between atoms: N_1  and  C_4
REMARK    2  A    between atoms: C_4  and  C_5
REMARK                            x       y       z     vdW  Elec       q    Type
REMARK                         _______ _______ _______ _____ _____    ______ ____
ROOT
ATOM      1  N   UNL     1      -7.618 -13.486  -8.324  0.00  0.00    -0.354 N 
ATOM      2  N   UNL     1      -8.362 -13.211  -6.148  0.00  0.00    -0.372 N 
ATOM      3  N   UNL     1      -8.946 -11.651  -7.725  0.00  0.00    -0.372 N 
ATOM      4  C   UNL     1      -8.305 -12.782  -7.414  0.00  0.00    +0.166 C 
ATOM      5  H   UNL     1      -7.129 -14.319  -8.018  0.00  0.00    +0.163 HD
ATOM      6  H   UNL     1      -8.876 -12.703  -5.441  0.00  0.00    +0.159 HD
ATOM      7  H   UNL     1      -7.910 -14.069  -5.855  0.00  0.00    +0.159 HD
ATOM      8  H   UNL     1      -8.937 -11.270  -8.662  0.00  0.00    +0.159 HD
ATOM      9  H   UNL     1      -9.456 -11.121  -7.029  0.00  0.00    +0.159 HD
ENDROOT
BRANCH   1  10
ATOM     10  C   UNL     1      -7.538 -13.134  -9.740  0.00  0.00    +0.151 C 
BRANCH  10  11
ATOM     11  C   UNL     1      -6.512 -12.050  -9.920  0.00  0.00    -0.028 A 
ATOM     12  C   UNL     1      -5.209 -12.214  -9.426  0.00  0.00    +0.005 A 
ATOM     13  C   UNL     1      -6.834 -10.859 -10.588  0.00  0.00    +0.005 A 
ATOM     14  C   UNL     1      -4.247 -11.220  -9.619  0.00  0.00    +0.000 A 
ATOM     15  C   UNL     1      -5.870  -9.868 -10.778  0.00  0.00    +0.000 A 
ATOM     16  C   UNL     1      -4.576 -10.050 -10.296  0.00  0.00    +0.000 A 
ENDBRANCH  10  11
ENDBRANCH   1  10
TORSDOF 2
ENDMDL
MODEL 2
REMARK VINA RESULT:    -5.986     26.588     27.906
REMARK INTER + INTRA:          -6.744
REMARK INTER:                  -6.597
REMARK INTRA:                  -0.147
REMARK UNBOUND:                -0.059
REMARK  Name = 1550473
REMARK  2 active torsions:
REMARK  status: ('A' for Active; 'I' for Inactive)
REMARK    1  A    between atoms: N_1  and  C_4
REMARK    2  A    between atoms: C_4  and  C_5
REMARK                            x       y       z     vdW  Elec       q    Type
REMARK                         _______ _______ _______ _____ _____    ______ ____
ROOT
ATOM      1  N   UNL     1       5.011   9.353   0.808  0.00  0.00    -0.354 N 
ATOM      2  N   UNL     1       4.667   9.962  -1.400  0.00  0.00    -0.372 N 
ATOM      3  N   UNL     1       3.465  11.021   0.243  0.00  0.00    -0.372 N 
ATOM      4  C   UNL     1       4.381  10.110  -0.101  0.00  0.00    +0.166 C 
ATOM      5  H   UNL     1       5.673   8.659   0.481  0.00  0.00    +0.163 HD
ATOM      6  H   UNL     1       4.211  10.521  -2.108  0.00  0.00    +0.159 HD
ATOM      7  H   UNL     1       5.363   9.300  -1.720  0.00  0.00    +0.159 HD
ATOM      8  H   UNL     1       3.200  11.178   1.206  0.00  0.00    +0.159 HD
ATOM      9  H   UNL     1       2.989  11.582  -0.453  0.00  0.00    +0.159 HD
ENDROOT
BRANCH   1  10
ATOM     10  C   UNL     1       4.812   9.473   2.251  0.00  0.00    +0.151 C 
BRANCH  10  11
ATOM     11  C   UNL     1       6.138   9.732   2.911  0.00  0.00    -0.028 A 
ATOM     12  C   UNL     1       6.788  10.964   2.744  0.00  0.00    +0.005 A 
ATOM     13  C   UNL     1       6.748   8.751   3.708  0.00  0.00    +0.005 A 
ATOM     14  C   UNL     1       8.005  11.216   3.381  0.00  0.00    +0.000 A 
ATOM     15  C   UNL     1       7.965   9.006   4.341  0.00  0.00    +0.000 A 
ATOM     16  C   UNL     1       8.591  10.239   4.179  0.00  0.00    +0.000 A 
ENDBRANCH  10  11
ENDBRANCH   1  10
TORSDOF 2
ENDMDL
MODEL 3
REMARK VINA RESULT:    -5.934     27.254     28.511
REMARK INTER + INTRA:          -6.686
REMARK INTER:                  -6.572
REMARK INTRA:                  -0.114
REMARK UNBOUND:                -0.059
REMARK  Name = 1550473
REMARK  2 active torsions:
REMARK  status: ('A' for Active; 'I' for Inactive)
REMARK    1  A    between atoms: N_1  and  C_4
REMARK    2  A    between atoms: C_4  and  C_5
REMARK                            x       y       z     vdW  Elec       q    Type
REMARK                         _______ _______ _______ _____ _____    ______ ____
ROOT
ATOM      1  N   UNL     1       5.123   9.369   2.771  0.00  0.00    -0.354 N 
ATOM      2  N   UNL     1       2.995   9.230   1.867  0.00  0.00    -0.372 N 
ATOM      3  N   UNL     1       4.795   9.368   0.451  0.00  0.00    -0.372 N 
ATOM      4  C   UNL     1       4.320   9.323   1.700  0.00  0.00    +0.166 C 
ATOM      5  H   UNL     1       4.698   9.362   3.692  0.00  0.00    +0.163 HD
ATOM      6  H   UNL     1       2.364   9.190   1.078  0.00  0.00    +0.159 HD
ATOM      7  H   UNL     1       2.577   9.176   2.788  0.00  0.00    +0.159 HD
ATOM      8  H   UNL     1       5.784   9.444   0.257  0.00  0.00    +0.159 HD
ATOM      9  H   UNL     1       4.179   9.341  -0.352  0.00  0.00    +0.159 HD
ENDROOT
BRANCH   1  10
ATOM     10  C   UNL     1       6.582   9.417   2.698  0.00  0.00    +0.151 C 
BRANCH  10  11
ATOM     11  C   UNL     1       7.134   9.692   4.069  0.00  0.00    -0.028 A 
ATOM     12  C   UNL     1       8.313  10.436   4.226  0.00  0.00    +0.005 A 
ATOM     13  C   UNL     1       6.480   9.217   5.216  0.00  0.00    +0.005 A 
ATOM     14  C   UNL     1       8.809  10.718   5.501  0.00  0.00    +0.000 A 
ATOM     15  C   UNL     1       6.980   9.500   6.487  0.00  0.00    +0.000 A 
ATOM     16  C   UNL     1       8.143  10.253   6.629  0.00  0.00    +0.000 A 
ENDBRANCH  10  11
ENDBRANCH   1  10
TORSDOF 2
ENDMDL
MODEL 4
REMARK VINA RESULT:    -5.857     28.301     29.513
REMARK INTER + INTRA:          -6.600
REMARK INTER:                  -6.439
REMARK INTRA:                  -0.161
REMARK UNBOUND:                -0.059
REMARK  Name = 1550473
REMARK  2 active torsions:
REMARK  status: ('A' for Active; 'I' for Inactive)
REMARK    1  A    between atoms: N_1  and  C_4
REMARK    2  A    between atoms: C_4  and  C_5
REMARK                            x       y       z     vdW  Elec       q    Type
REMARK                         _______ _______ _______ _____ _____    ______ ____
ROOT
ATOM      1  N   UNL     1       5.931   8.684   3.923  0.00  0.00    -0.354 N 
ATOM      2  N   UNL     1       4.101   9.391   2.692  0.00  0.00    -0.372 N 
ATOM      3  N   UNL     1       6.164  10.280   2.222  0.00  0.00    -0.372 N 
ATOM      4  C   UNL     1       5.412   9.449   2.952  0.00  0.00    +0.166 C 
ATOM      5  H   UNL     1       5.303   8.098   4.461  0.00  0.00    +0.163 HD
ATOM      6  H   UNL     1       3.682   9.954   1.963  0.00  0.00    +0.159 HD
ATOM      7  H   UNL     1       3.483   8.770   3.200  0.00  0.00    +0.159 HD
ATOM      8  H   UNL     1       7.159  10.374   2.373  0.00  0.00    +0.159 HD
ATOM      9  H   UNL     1       5.761  10.859   1.496  0.00  0.00    +0.159 HD
ENDROOT
BRANCH   1  10
ATOM     10  C   UNL     1       7.354   8.632   4.251  0.00  0.00    +0.151 C 
BRANCH  10  11
ATOM     11  C   UNL     1       7.632   9.578   5.387  0.00  0.00    -0.028 A 
ATOM     12  C   UNL     1       6.746   9.667   6.471  0.00  0.00    +0.005 A 
ATOM     13  C   UNL     1       8.781  10.383   5.388  0.00  0.00    +0.005 A 
ATOM     14  C   UNL     1       7.019  10.523   7.541  0.00  0.00    +0.000 A 
ATOM     15  C   UNL     1       9.049  11.237   6.458  0.00  0.00    +0.000 A 
ATOM     16  C   UNL     1       8.169  11.305   7.535  0.00  0.00    +0.000 A 
ENDBRANCH  10  11
ENDBRANCH   1  10
TORSDOF 2
ENDMDL
MODEL 5
REMARK VINA RESULT:    -5.847      3.073      4.452
REMARK INTER + INTRA:          -6.589
REMARK INTER:                  -6.481
REMARK INTRA:                  -0.109
REMARK UNBOUND:                -0.059
REMARK  Name = 1550473
REMARK  2 active torsions:
REMARK  status: ('A' for Active; 'I' for Inactive)
REMARK    1  A    between atoms: N_1  and  C_4
REMARK    2  A    between atoms: C_4  and  C_5
REMARK                            x       y       z     vdW  Elec       q    Type
REMARK                         _______ _______ _______ _____ _____    ______ ____
ROOT
ATOM      1  N   UNL     1      -6.909  -8.478  -9.972  0.00  0.00    -0.354 N 
ATOM      2  N   UNL     1      -8.255  -6.631  -9.593  0.00  0.00    -0.372 N 
ATOM      3  N   UNL     1      -7.032  -6.733 -11.532  0.00  0.00    -0.372 N 
ATOM      4  C   UNL     1      -7.389  -7.292 -10.370  0.00  0.00    +0.166 C 
ATOM      5  H   UNL     1      -7.196  -8.833  -9.067  0.00  0.00    +0.163 HD
ATOM      6  H   UNL     1      -8.637  -5.737  -9.869  0.00  0.00    +0.159 HD
ATOM      7  H   UNL     1      -8.575  -7.011  -8.710  0.00  0.00    +0.159 HD
ATOM      8  H   UNL     1      -6.377  -7.178 -12.161  0.00  0.00    +0.159 HD
ATOM      9  H   UNL     1      -7.394  -5.832 -11.820  0.00  0.00    +0.159 HD
ENDROOT
BRANCH   1  10
ATOM     10  C   UNL     1      -6.003  -9.303 -10.768  0.00  0.00    +0.151 C 
BRANCH  10  11
ATOM     11  C   UNL     1      -6.200 -10.747 -10.398  0.00  0.00    -0.028 A 
ATOM     12  C   UNL     1      -5.201 -11.447  -9.706  0.00  0.00    +0.005 A 
ATOM     13  C   UNL     1      -7.385 -11.419 -10.732  0.00  0.00    +0.005 A 
ATOM     14  C   UNL     1      -5.395 -12.780  -9.336  0.00  0.00    +0.000 A 
ATOM     15  C   UNL     1      -7.575 -12.750 -10.361  0.00  0.00    +0.000 A 
ATOM     16  C   UNL     1      -6.581 -13.429  -9.661  0.00  0.00    +0.000 A 
ENDBRANCH  10  11
ENDBRANCH   1  10
TORSDOF 2
ENDMDL
MODEL 6
REMARK VINA RESULT:    -5.772     26.830     28.114
REMARK INTER + INTRA:          -6.506
REMARK INTER:                  -6.330
REMARK INTRA:                  -0.176
REMARK UNBOUND:                -0.059
REMARK  Name = 1550473
REMARK  2 active torsions:
REMARK  status: ('A' for Active; 'I' for Inactive)
REMARK    1  A    between atoms: N_1  and  C_4
REMARK    2  A    between atoms: C_4  and  C_5
REMARK                            x       y       z     vdW  Elec       q    Type
REMARK                         _______ _______ _______ _____ _____    ______ ____
ROOT
ATOM      1  N   UNL     1       4.384  10.868   2.062  0.00  0.00    -0.354 N 
ATOM      2  N   UNL     1       3.613  10.428  -0.077  0.00  0.00    -0.372 N 
ATOM      3  N   UNL     1       3.336   8.835   1.551  0.00  0.00    -0.372 N 
ATOM      4  C   UNL     1       3.782  10.044   1.194  0.00  0.00    +0.166 C 
ATOM      5  H   UNL     1       4.726  11.759   1.722  0.00  0.00    +0.163 HD
ATOM      6  H   UNL     1       3.159   9.830  -0.754  0.00  0.00    +0.159 HD
ATOM      7  H   UNL     1       3.915  11.338  -0.403  0.00  0.00    +0.159 HD
ATOM      8  H   UNL     1       3.439   8.483   2.493  0.00  0.00    +0.159 HD
ATOM      9  H   UNL     1       2.890   8.217   0.885  0.00  0.00    +0.159 HD
ENDROOT
BRANCH   1  10
ATOM     10  C   UNL     1       4.569  10.567   3.481  0.00  0.00    +0.151 C 
BRANCH  10  11
ATOM     11  C   UNL     1       6.014  10.230   3.727  0.00  0.00    -0.028 A 
ATOM     12  C   UNL     1       6.396   8.915   4.031  0.00  0.00    +0.005 A 
ATOM     13  C   UNL     1       7.006  11.219   3.651  0.00  0.00    +0.005 A 
ATOM     14  C   UNL     1       7.741   8.595   4.230  0.00  0.00    +0.000 A 
ATOM     15  C   UNL     1       8.348  10.896   3.851  0.00  0.00    +0.000 A 
ATOM     16  C   UNL     1       8.716   9.584   4.138  0.00  0.00    +0.000 A 
ENDBRANCH  10  11
ENDBRANCH   1  10
TORSDOF 2
ENDMDL
MODEL 7
REMARK VINA RESULT:    -5.577     27.541     28.577
REMARK INTER + INTRA:          -6.287
REMARK INTER:                  -6.134
REMARK INTRA:                  -0.154
REMARK UNBOUND:                -0.059
REMARK  Name = 1550473
REMARK  2 active torsions:
REMARK  status: ('A' for Active; 'I' for Inactive)
REMARK    1  A    between atoms: N_1  and  C_4
REMARK    2  A    between atoms: C_4  and  C_5
REMARK                            x       y       z     vdW  Elec       q    Type
REMARK                         _______ _______ _______ _____ _____    ______ ____
ROOT
ATOM      1  N   UNL     1       3.928  11.340   4.114  0.00  0.00    -0.354 N 
ATOM      2  N   UNL     1       2.222  11.207   5.675  0.00  0.00    -0.372 N 
ATOM      3  N   UNL     1       2.212   9.759   3.895  0.00  0.00    -0.372 N 
ATOM      4  C   UNL     1       2.798  10.768   4.549  0.00  0.00    +0.166 C 
ATOM      5  H   UNL     1       4.306  12.120   4.639  0.00  0.00    +0.163 HD
ATOM      6  H   UNL     1       1.371  10.793   6.030  0.00  0.00    +0.159 HD
ATOM      7  H   UNL     1       2.627  11.957   6.222  0.00  0.00    +0.159 HD
ATOM      8  H   UNL     1       2.593   9.385   3.036  0.00  0.00    +0.159 HD
ATOM      9  H   UNL     1       1.354   9.339   4.228  0.00  0.00    +0.159 HD
ENDROOT
BRANCH   1  10
ATOM     10  C   UNL     1       4.664  10.900   2.929  0.00  0.00    +0.151 C 
BRANCH  10  11
ATOM     11  C   UNL     1       6.030  10.429   3.346  0.00  0.00    -0.028 A 
ATOM     12  C   UNL     1       6.243   9.090   3.703  0.00  0.00    +0.005 A 
ATOM     13  C   UNL     1       7.117  11.316   3.380  0.00  0.00    +0.005 A 
ATOM     14  C   UNL     1       7.517   8.645   4.061  0.00  0.00    +0.000 A 
ATOM     15  C   UNL     1       8.388  10.868   3.738  0.00  0.00    +0.000 A 
ATOM     16  C   UNL     1       8.588   9.532   4.077  0.00  0.00    +0.000 A 
ENDBRANCH  10  11
ENDBRANCH   1  10
TORSDOF 2
ENDMDL
MODEL 8
REMARK VINA RESULT:    -5.564      9.887     11.530
REMARK INTER + INTRA:          -6.274
REMARK INTER:                  -6.171
REMARK INTRA:                  -0.103
REMARK UNBOUND:                -0.059
REMARK  Name = 1550473
REMARK  2 active torsions:
REMARK  status: ('A' for Active; 'I' for Inactive)
REMARK    1  A    between atoms: N_1  and  C_4
REMARK    2  A    between atoms: C_4  and  C_5
REMARK                            x       y       z     vdW  Elec       q    Type
REMARK                         _______ _______ _______ _____ _____    ______ ____
ROOT
ATOM      1  N   UNL     1       4.589  -9.443 -11.179  0.00  0.00    -0.354 N 
ATOM      2  N   UNL     1       5.197 -10.525 -13.134  0.00  0.00    -0.372 N 
ATOM      3  N   UNL     1       6.101 -11.233 -11.148  0.00  0.00    -0.372 N 
ATOM      4  C   UNL     1       5.293 -10.395 -11.805  0.00  0.00    +0.166 C 
ATOM      5  H   UNL     1       4.018  -8.820 -11.738  0.00  0.00    +0.163 HD
ATOM      6  H   UNL     1       5.714 -11.236 -13.634  0.00  0.00    +0.159 HD
ATOM      7  H   UNL     1       4.590  -9.931 -13.685  0.00  0.00    +0.159 HD
ATOM      8  H   UNL     1       6.223 -11.183 -10.145  0.00  0.00    +0.159 HD
ATOM      9  H   UNL     1       6.636 -11.943 -11.632  0.00  0.00    +0.159 HD
ENDROOT
BRANCH   1  10
ATOM     10  C   UNL     1       4.582  -9.252  -9.729  0.00  0.00    +0.151 C 
BRANCH  10  11
ATOM     11  C   UNL     1       3.282  -8.614  -9.324  0.00  0.00    -0.028 A 
ATOM     12  C   UNL     1       3.217  -7.240  -9.052  0.00  0.00    +0.005 A 
ATOM     13  C   UNL     1       2.109  -9.378  -9.216  0.00  0.00    +0.005 A 
ATOM     14  C   UNL     1       2.003  -6.641  -8.705  0.00  0.00    +0.000 A 
ATOM     15  C   UNL     1       0.900  -8.777  -8.869  0.00  0.00    +0.000 A 
ATOM     16  C   UNL     1       0.846  -7.408  -8.616  0.00  0.00    +0.000 A 
ENDBRANCH  10  11
ENDBRANCH   1  10
TORSDOF 2
ENDMDL
MODEL 9
REMARK VINA RESULT:    -5.414     29.093     30.156
REMARK INTER + INTRA:          -6.106
REMARK INTER:                  -5.982
REMARK INTRA:                  -0.124
REMARK UNBOUND:                -0.059
REMARK  Name = 1550473
REMARK  2 active torsions:
REMARK  status: ('A' for Active; 'I' for Inactive)
REMARK    1  A    between atoms: N_1  and  C_4
REMARK    2  A    between atoms: C_4  and  C_5
REMARK                            x       y       z     vdW  Elec       q    Type
REMARK                         _______ _______ _______ _____ _____    ______ ____
ROOT
ATOM      1  N   UNL     1       4.996   8.713   7.369  0.00  0.00    -0.354 N 
ATOM      2  N   UNL     1       3.486   8.322   9.081  0.00  0.00    -0.372 N 
ATOM      3  N   UNL     1       3.232  10.199   7.785  0.00  0.00    -0.372 N 
ATOM      4  C   UNL     1       3.914   9.083   8.067  0.00  0.00    +0.166 C 
ATOM      5  H   UNL     1       5.486   7.872   7.652  0.00  0.00    +0.163 HD
ATOM      6  H   UNL     1       2.670   8.574   9.623  0.00  0.00    +0.159 HD
ATOM      7  H   UNL     1       3.951   7.458   9.332  0.00  0.00    +0.159 HD
ATOM      8  H   UNL     1       3.507  10.819   7.036  0.00  0.00    +0.159 HD
ATOM      9  H   UNL     1       2.420  10.474   8.324  0.00  0.00    +0.159 HD
ENDROOT
BRANCH   1  10
ATOM     10  C   UNL     1       5.513   9.443   6.213  0.00  0.00    +0.151 C 
BRANCH  10  11
ATOM     11  C   UNL     1       6.909   9.915   6.513  0.00  0.00    -0.028 A 
ATOM     12  C   UNL     1       7.425   9.828   7.815  0.00  0.00    +0.005 A 
ATOM     13  C   UNL     1       7.722  10.445   5.500  0.00  0.00    +0.005 A 
ATOM     14  C   UNL     1       8.732  10.239   8.088  0.00  0.00    +0.000 A 
ATOM     15  C   UNL     1       9.026  10.855   5.778  0.00  0.00    +0.000 A 
ATOM     16  C   UNL     1       9.531  10.750   7.071  0.00  0.00    +0.000 A 
ENDBRANCH  10  11
ENDBRANCH   1  10
TORSDOF 2
ENDMDL
