MODEL 1
REMARK VINA RESULT:    -5.026      0.000      0.000
REMARK INTER + INTRA:          -5.789
REMARK INTER:                  -5.613
REMARK INTRA:                  -0.176
REMARK UNBOUND:                -0.176
REMARK  Name = 1550473
REMARK  2 active torsions:
REMARK  status: ('A' for Active; 'I' for Inactive)
REMARK    1  A    between atoms: N_1  and  C_4
REMARK    2  A    between atoms: C_4  and  C_5
REMARK                            x       y       z     vdW  Elec       q    Type
REMARK                         _______ _______ _______ _____ _____    ______ ____
ROOT
ATOM      1  N   UNL     1       0.030  -1.333   6.324  0.00  0.00    -0.354 N 
ATOM      2  N   UNL     1      -0.022   0.317   7.949  0.00  0.00    -0.372 N 
ATOM      3  N   UNL     1      -0.281  -1.873   8.583  0.00  0.00    -0.372 N 
ATOM      4  C   UNL     1      -0.091  -0.976   7.610  0.00  0.00    +0.166 C 
ATOM      5  H   UNL     1       0.142  -0.603   5.631  0.00  0.00    +0.163 HD
ATOM      6  H   UNL     1      -0.107   0.616   8.912  0.00  0.00    +0.159 HD
ATOM      7  H   UNL     1       0.136   1.041   7.259  0.00  0.00    +0.159 HD
ATOM      8  H   UNL     1      -0.349  -2.864   8.393  0.00  0.00    +0.159 HD
ATOM      9  H   UNL     1      -0.380  -1.593   9.551  0.00  0.00    +0.159 HD
ENDROOT
BRANCH   1  10
ATOM     10  C   UNL     1       0.023  -2.718   5.856  0.00  0.00    +0.151 C 
BRANCH  10  11
ATOM     11  C   UNL     1       1.431  -3.133   5.530  0.00  0.00    -0.028 A 
ATOM     12  C   UNL     1       2.255  -3.694   6.516  0.00  0.00    +0.005 A 
ATOM     13  C   UNL     1       1.945  -2.974   4.234  0.00  0.00    +0.005 A 
ATOM     14  C   UNL     1       3.553  -4.107   6.206  0.00  0.00    +0.000 A 
ATOM     15  C   UNL     1       3.242  -3.387   3.928  0.00  0.00    +0.000 A 
ATOM     16  C   UNL     1       4.044  -3.956   4.914  0.00  0.00    +0.000 A 
ENDBRANCH  10  11
ENDBRANCH   1  10
TORSDOF 2
ENDMDL
MODEL 2
REMARK VINA RESULT:    -5.008      1.227      1.425
REMARK INTER + INTRA:          -5.769
REMARK INTER:                  -5.606
REMARK INTRA:                  -0.164
REMARK UNBOUND:                -0.176
REMARK  Name = 1550473
REMARK  2 active torsions:
REMARK  status: ('A' for Active; 'I' for Inactive)
REMARK    1  A    between atoms: N_1  and  C_4
REMARK    2  A    between atoms: C_4  and  C_5
REMARK                            x       y       z     vdW  Elec       q    Type
REMARK                         _______ _______ _______ _____ _____    ______ ____
ROOT
ATOM      1  N   UNL     1       0.504  -0.762   6.748  0.00  0.00    -0.354 N 
ATOM      2  N   UNL     1      -0.176  -0.876   8.959  0.00  0.00    -0.372 N 
ATOM      3  N   UNL     1      -0.989  -2.418   7.467  0.00  0.00    -0.372 N 
ATOM      4  C   UNL     1      -0.218  -1.353   7.709  0.00  0.00    +0.166 C 
ATOM      5  H   UNL     1       1.046   0.060   6.990  0.00  0.00    +0.163 HD
ATOM      6  H   UNL     1      -0.708  -1.304   9.706  0.00  0.00    +0.159 HD
ATOM      7  H   UNL     1       0.401  -0.082   9.207  0.00  0.00    +0.159 HD
ATOM      8  H   UNL     1      -1.069  -2.823   6.544  0.00  0.00    +0.159 HD
ATOM      9  H   UNL     1      -1.538  -2.853   8.199  0.00  0.00    +0.159 HD
ENDROOT
BRANCH   1  10
ATOM     10  C   UNL     1       0.571  -1.236   5.367  0.00  0.00    +0.151 C 
BRANCH  10  11
ATOM     11  C   UNL     1       1.719  -2.198   5.233  0.00  0.00    -0.028 A 
ATOM     12  C   UNL     1       3.043  -1.744   5.320  0.00  0.00    +0.005 A 
ATOM     13  C   UNL     1       1.489  -3.567   5.024  0.00  0.00    +0.005 A 
ATOM     14  C   UNL     1       4.109  -2.642   5.226  0.00  0.00    +0.000 A 
ATOM     15  C   UNL     1       2.556  -4.460   4.930  0.00  0.00    +0.000 A 
ATOM     16  C   UNL     1       3.865  -3.998   5.033  0.00  0.00    +0.000 A 
ENDBRANCH  10  11
ENDBRANCH   1  10
TORSDOF 2
ENDMDL
MODEL 3
REMARK VINA RESULT:    -4.895      9.430     10.754
REMARK INTER + INTRA:          -5.642
REMARK INTER:                  -5.536
REMARK INTRA:                  -0.106
REMARK UNBOUND:                -0.176
REMARK  Name = 1550473
REMARK  2 active torsions:
REMARK  status: ('A' for Active; 'I' for Inactive)
REMARK    1  A    between atoms: N_1  and  C_4
REMARK    2  A    between atoms: C_4  and  C_5
REMARK                            x       y       z     vdW  Elec       q    Type
REMARK                         _______ _______ _______ _____ _____    ______ ____
ROOT
ATOM      1  N   UNL     1      -4.719  -3.529  -3.364  0.00  0.00    -0.354 N 
ATOM      2  N   UNL     1      -5.962  -5.483  -3.398  0.00  0.00    -0.372 N 
ATOM      3  N   UNL     1      -7.057  -3.474  -3.223  0.00  0.00    -0.372 N 
ATOM      4  C   UNL     1      -5.907  -4.147  -3.327  0.00  0.00    +0.166 C 
ATOM      5  H   UNL     1      -3.881  -4.097  -3.414  0.00  0.00    +0.163 HD
ATOM      6  H   UNL     1      -6.844  -5.977  -3.376  0.00  0.00    +0.159 HD
ATOM      7  H   UNL     1      -5.126  -6.046  -3.493  0.00  0.00    +0.159 HD
ATOM      8  H   UNL     1      -7.084  -2.465  -3.160  0.00  0.00    +0.159 HD
ATOM      9  H   UNL     1      -7.949  -3.951  -3.188  0.00  0.00    +0.159 HD
ENDROOT
BRANCH   1  10
ATOM     10  C   UNL     1      -4.552  -2.076  -3.348  0.00  0.00    +0.151 C 
BRANCH  10  11
ATOM     11  C   UNL     1      -3.849  -1.676  -2.081  0.00  0.00    -0.028 A 
ATOM     12  C   UNL     1      -2.938  -0.610  -2.078  0.00  0.00    +0.005 A 
ATOM     13  C   UNL     1      -4.093  -2.356  -0.878  0.00  0.00    +0.005 A 
ATOM     14  C   UNL     1      -2.306  -0.219  -0.895  0.00  0.00    +0.000 A 
ATOM     15  C   UNL     1      -3.460  -1.963   0.302  0.00  0.00    +0.000 A 
ATOM     16  C   UNL     1      -2.569  -0.893   0.293  0.00  0.00    +0.000 A 
ENDBRANCH  10  11
ENDBRANCH   1  10
TORSDOF 2
ENDMDL
MODEL 4
REMARK VINA RESULT:    -4.800     11.035     12.350
REMARK INTER + INTRA:          -5.536
REMARK INTER:                  -5.569
REMARK INTRA:                   0.032
REMARK UNBOUND:                -0.176
REMARK  Name = 1550473
REMARK  2 active torsions:
REMARK  status: ('A' for Active; 'I' for Inactive)
REMARK    1  A    between atoms: N_1  and  C_4
REMARK    2  A    between atoms: C_4  and  C_5
REMARK                            x       y       z     vdW  Elec       q    Type
REMARK                         _______ _______ _______ _____ _____    ______ ____
ROOT
ATOM      1  N   UNL     1      -4.692  -3.972  -2.595  0.00  0.00    -0.354 N 
ATOM      2  N   UNL     1      -5.892  -5.726  -3.516  0.00  0.00    -0.372 N 
ATOM      3  N   UNL     1      -6.962  -3.734  -3.126  0.00  0.00    -0.372 N 
ATOM      4  C   UNL     1      -5.843  -4.464  -3.073  0.00  0.00    +0.166 C 
ATOM      5  H   UNL     1      -3.887  -4.586  -2.553  0.00  0.00    +0.163 HD
ATOM      6  H   UNL     1      -6.746  -6.124  -3.885  0.00  0.00    +0.159 HD
ATOM      7  H   UNL     1      -5.074  -6.323  -3.515  0.00  0.00    +0.159 HD
ATOM      8  H   UNL     1      -6.993  -2.777  -2.802  0.00  0.00    +0.159 HD
ATOM      9  H   UNL     1      -7.829  -4.118  -3.481  0.00  0.00    +0.159 HD
ENDROOT
BRANCH   1  10
ATOM     10  C   UNL     1      -4.519  -2.594  -2.138  0.00  0.00    +0.151 C 
BRANCH  10  11
ATOM     11  C   UNL     1      -4.488  -1.681  -3.333  0.00  0.00    -0.028 A 
ATOM     12  C   UNL     1      -5.383  -0.607  -3.431  0.00  0.00    +0.005 A 
ATOM     13  C   UNL     1      -3.560  -1.882  -4.367  0.00  0.00    +0.005 A 
ATOM     14  C   UNL     1      -5.335   0.260  -4.526  0.00  0.00    +0.000 A 
ATOM     15  C   UNL     1      -3.516  -1.015  -5.459  0.00  0.00    +0.000 A 
ATOM     16  C   UNL     1      -4.401   0.057  -5.537  0.00  0.00    +0.000 A 
ENDBRANCH  10  11
ENDBRANCH   1  10
TORSDOF 2
ENDMDL
MODEL 5
REMARK VINA RESULT:    -4.601     13.125     14.363
REMARK INTER + INTRA:          -5.314
REMARK INTER:                  -5.186
REMARK INTRA:                  -0.128
REMARK UNBOUND:                -0.176
REMARK  Name = 1550473
REMARK  2 active torsions:
REMARK  status: ('A' for Active; 'I' for Inactive)
REMARK    1  A    between atoms: N_1  and  C_4
REMARK    2  A    between atoms: C_4  and  C_5
REMARK                            x       y       z     vdW  Elec       q    Type
REMARK                         _______ _______ _______ _____ _____    ______ ____
ROOT
ATOM      1  N   UNL     1      10.642   7.266  11.977  0.00  0.00    -0.354 N 
ATOM      2  N   UNL     1      12.193   8.957  11.664  0.00  0.00    -0.372 N 
ATOM      3  N   UNL     1      12.918   6.780  11.703  0.00  0.00    -0.372 N 
ATOM      4  C   UNL     1      11.909   7.655  11.784  0.00  0.00    +0.166 C 
ATOM      5  H   UNL     1       9.927   7.980  12.060  0.00  0.00    +0.163 HD
ATOM      6  H   UNL     1      13.140   9.280  11.514  0.00  0.00    +0.159 HD
ATOM      7  H   UNL     1      11.471   9.666  11.701  0.00  0.00    +0.159 HD
ATOM      8  H   UNL     1      12.771   5.784  11.790  0.00  0.00    +0.159 HD
ATOM      9  H   UNL     1      13.873   7.085  11.564  0.00  0.00    +0.159 HD
ENDROOT
BRANCH   1  10
ATOM     10  C   UNL     1      10.219   5.870  12.066  0.00  0.00    +0.151 C 
BRANCH  10  11
ATOM     11  C   UNL     1       8.900   5.801  12.785  0.00  0.00    -0.028 A 
ATOM     12  C   UNL     1       8.386   6.930  13.440  0.00  0.00    +0.005 A 
ATOM     13  C   UNL     1       8.156   4.611  12.810  0.00  0.00    +0.005 A 
ATOM     14  C   UNL     1       7.147   6.874  14.083  0.00  0.00    +0.000 A 
ATOM     15  C   UNL     1       6.920   4.560  13.454  0.00  0.00    +0.000 A 
ATOM     16  C   UNL     1       6.415   5.692  14.088  0.00  0.00    +0.000 A 
ENDBRANCH  10  11
ENDBRANCH   1  10
TORSDOF 2
ENDMDL
MODEL 6
REMARK VINA RESULT:    -4.575      2.756      3.214
REMARK INTER + INTRA:          -5.286
REMARK INTER:                  -5.162
REMARK INTRA:                  -0.123
REMARK UNBOUND:                -0.176
REMARK  Name = 1550473
REMARK  2 active torsions:
REMARK  status: ('A' for Active; 'I' for Inactive)
REMARK    1  A    between atoms: N_1  and  C_4
REMARK    2  A    between atoms: C_4  and  C_5
REMARK                            x       y       z     vdW  Elec       q    Type
REMARK                         _______ _______ _______ _____ _____    ______ ____
ROOT
ATOM      1  N   UNL     1       1.213   0.259   4.551  0.00  0.00    -0.354 N 
ATOM      2  N   UNL     1       1.325   2.103   3.154  0.00  0.00    -0.372 N 
ATOM      3  N   UNL     1       2.423   2.169   5.168  0.00  0.00    -0.372 N 
ATOM      4  C   UNL     1       1.655   1.499   4.303  0.00  0.00    +0.166 C 
ATOM      5  H   UNL     1       0.609  -0.183   3.868  0.00  0.00    +0.163 HD
ATOM      6  H   UNL     1       1.646   3.037   2.937  0.00  0.00    +0.159 HD
ATOM      7  H   UNL     1       0.759   1.641   2.453  0.00  0.00    +0.159 HD
ATOM      8  H   UNL     1       2.702   1.771   6.055  0.00  0.00    +0.159 HD
ATOM      9  H   UNL     1       2.745   3.109   4.974  0.00  0.00    +0.159 HD
ENDROOT
BRANCH   1  10
ATOM     10  C   UNL     1       1.559  -0.507   5.747  0.00  0.00    +0.151 C 
BRANCH  10  11
ATOM     11  C   UNL     1       2.066  -1.861   5.334  0.00  0.00    -0.028 A 
ATOM     12  C   UNL     1       3.443  -2.124   5.292  0.00  0.00    +0.005 A 
ATOM     13  C   UNL     1       1.174  -2.888   4.988  0.00  0.00    +0.005 A 
ATOM     14  C   UNL     1       3.913  -3.390   4.937  0.00  0.00    +0.000 A 
ATOM     15  C   UNL     1       1.648  -4.151   4.634  0.00  0.00    +0.000 A 
ATOM     16  C   UNL     1       3.017  -4.402   4.610  0.00  0.00    +0.000 A 
ENDBRANCH  10  11
ENDBRANCH   1  10
TORSDOF 2
ENDMDL
MODEL 7
REMARK VINA RESULT:    -4.507      2.860      3.527
REMARK INTER + INTRA:          -5.209
REMARK INTER:                  -5.118
REMARK INTRA:                  -0.091
REMARK UNBOUND:                -0.176
REMARK  Name = 1550473
REMARK  2 active torsions:
REMARK  status: ('A' for Active; 'I' for Inactive)
REMARK    1  A    between atoms: N_1  and  C_4
REMARK    2  A    between atoms: C_4  and  C_5
REMARK                            x       y       z     vdW  Elec       q    Type
REMARK                         _______ _______ _______ _____ _____    ______ ____
ROOT
ATOM      1  N   UNL     1       0.574  -1.028   3.119  0.00  0.00    -0.354 N 
ATOM      2  N   UNL     1      -0.273  -0.084   1.181  0.00  0.00    -0.372 N 
ATOM      3  N   UNL     1      -1.501   0.060   3.114  0.00  0.00    -0.372 N 
ATOM      4  C   UNL     1      -0.397  -0.357   2.486  0.00  0.00    +0.166 C 
ATOM      5  H   UNL     1       1.373  -1.342   2.580  0.00  0.00    +0.163 HD
ATOM      6  H   UNL     1      -0.988   0.423   0.678  0.00  0.00    +0.159 HD
ATOM      7  H   UNL     1       0.547  -0.360   0.655  0.00  0.00    +0.159 HD
ATOM      8  H   UNL     1      -1.658  -0.119   4.097  0.00  0.00    +0.159 HD
ATOM      9  H   UNL     1      -2.233   0.559   2.625  0.00  0.00    +0.159 HD
ENDROOT
BRANCH   1  10
ATOM     10  C   UNL     1       0.562  -1.328   4.550  0.00  0.00    +0.151 C 
BRANCH  10  11
ATOM     11  C   UNL     1       1.682  -2.282   4.861  0.00  0.00    -0.028 A 
ATOM     12  C   UNL     1       2.948  -1.799   5.224  0.00  0.00    +0.005 A 
ATOM     13  C   UNL     1       1.483  -3.670   4.802  0.00  0.00    +0.005 A 
ATOM     14  C   UNL     1       3.981  -2.685   5.542  0.00  0.00    +0.000 A 
ATOM     15  C   UNL     1       2.516  -4.550   5.120  0.00  0.00    +0.000 A 
ATOM     16  C   UNL     1       3.764  -4.058   5.492  0.00  0.00    +0.000 A 
ENDBRANCH  10  11
ENDBRANCH   1  10
TORSDOF 2
ENDMDL
MODEL 8
REMARK VINA RESULT:    -4.457     12.472     13.332
REMARK INTER + INTRA:          -5.154
REMARK INTER:                  -5.019
REMARK INTRA:                  -0.135
REMARK UNBOUND:                -0.176
REMARK  Name = 1550473
REMARK  2 active torsions:
REMARK  status: ('A' for Active; 'I' for Inactive)
REMARK    1  A    between atoms: N_1  and  C_4
REMARK    2  A    between atoms: C_4  and  C_5
REMARK                            x       y       z     vdW  Elec       q    Type
REMARK                         _______ _______ _______ _____ _____    ______ ____
ROOT
ATOM      1  N   UNL     1      -3.349   6.780  13.504  0.00  0.00    -0.354 N 
ATOM      2  N   UNL     1      -3.614   6.985  15.796  0.00  0.00    -0.372 N 
ATOM      3  N   UNL     1      -5.451   6.509  14.506  0.00  0.00    -0.372 N 
ATOM      4  C   UNL     1      -4.139   6.757  14.586  0.00  0.00    +0.166 C 
ATOM      5  H   UNL     1      -2.369   7.004  13.629  0.00  0.00    +0.163 HD
ATOM      6  H   UNL     1      -4.184   6.971  16.631  0.00  0.00    +0.159 HD
ATOM      7  H   UNL     1      -2.625   7.163  15.923  0.00  0.00    +0.159 HD
ATOM      8  H   UNL     1      -5.909   6.335  13.622  0.00  0.00    +0.159 HD
ATOM      9  H   UNL     1      -6.040   6.502  15.329  0.00  0.00    +0.159 HD
ENDROOT
BRANCH   1  10
ATOM     10  C   UNL     1      -3.812   6.491  12.148  0.00  0.00    +0.151 C 
BRANCH  10  11
ATOM     11  C   UNL     1      -3.539   7.683  11.272  0.00  0.00    -0.028 A 
ATOM     12  C   UNL     1      -2.228   8.144  11.086  0.00  0.00    +0.005 A 
ATOM     13  C   UNL     1      -4.587   8.351  10.620  0.00  0.00    +0.005 A 
ATOM     14  C   UNL     1      -1.970   9.232  10.248  0.00  0.00    +0.000 A 
ATOM     15  C   UNL     1      -4.326   9.437   9.785  0.00  0.00    +0.000 A 
ATOM     16  C   UNL     1      -3.017   9.876   9.598  0.00  0.00    +0.000 A 
ENDBRANCH  10  11
ENDBRANCH   1  10
TORSDOF 2
ENDMDL
MODEL 9
REMARK VINA RESULT:    -4.228      8.811     11.363
REMARK INTER + INTRA:          -4.898
REMARK INTER:                  -4.758
REMARK INTRA:                  -0.140
REMARK UNBOUND:                -0.176
REMARK  Name = 1550473
REMARK  2 active torsions:
REMARK  status: ('A' for Active; 'I' for Inactive)
REMARK    1  A    between atoms: N_1  and  C_4
REMARK    2  A    between atoms: C_4  and  C_5
REMARK                            x       y       z     vdW  Elec       q    Type
REMARK                         _______ _______ _______ _____ _____    ______ ____
ROOT
ATOM      1  N   UNL     1      -3.512   2.001  13.009  0.00  0.00    -0.354 N 
ATOM      2  N   UNL     1      -2.729   0.245  11.718  0.00  0.00    -0.372 N 
ATOM      3  N   UNL     1      -2.031   0.417  13.897  0.00  0.00    -0.372 N 
ATOM      4  C   UNL     1      -2.761   0.899  12.885  0.00  0.00    +0.166 C 
ATOM      5  H   UNL     1      -4.018   2.333  12.196  0.00  0.00    +0.163 HD
ATOM      6  H   UNL     1      -2.174  -0.591  11.595  0.00  0.00    +0.159 HD
ATOM      7  H   UNL     1      -3.272   0.553  10.920  0.00  0.00    +0.159 HD
ATOM      8  H   UNL     1      -2.007   0.867  14.802  0.00  0.00    +0.159 HD
ATOM      9  H   UNL     1      -1.460  -0.413  13.790  0.00  0.00    +0.159 HD
ENDROOT
BRANCH   1  10
ATOM     10  C   UNL     1      -3.658   2.756  14.253  0.00  0.00    +0.151 C 
BRANCH  10  11
ATOM     11  C   UNL     1      -3.233   4.179  14.016  0.00  0.00    -0.028 A 
ATOM     12  C   UNL     1      -4.007   5.243  14.504  0.00  0.00    +0.005 A 
ATOM     13  C   UNL     1      -2.056   4.471  13.311  0.00  0.00    +0.005 A 
ATOM     14  C   UNL     1      -3.598   6.564  14.311  0.00  0.00    +0.000 A 
ATOM     15  C   UNL     1      -1.652   5.792  13.119  0.00  0.00    +0.000 A 
ATOM     16  C   UNL     1      -2.421   6.838  13.621  0.00  0.00    +0.000 A 
ENDBRANCH  10  11
ENDBRANCH   1  10
TORSDOF 2
ENDMDL
