MODEL 1
REMARK VINA RESULT:    -6.251      0.000      0.000
REMARK INTER + INTRA:          -7.100
REMARK INTER:                  -6.982
REMARK INTRA:                  -0.118
REMARK UNBOUND:                -0.118
REMARK  Name = 1550473
REMARK  2 active torsions:
REMARK  status: ('A' for Active; 'I' for Inactive)
REMARK    1  A    between atoms: N_1  and  C_4
REMARK    2  A    between atoms: C_4  and  C_5
REMARK                            x       y       z     vdW  Elec       q    Type
REMARK                         _______ _______ _______ _____ _____    ______ ____
ROOT
ATOM      1  N   UNL     1      -2.704  -1.018  -7.496  0.00  0.00    -0.354 N 
ATOM      2  N   UNL     1      -4.515  -2.425  -7.816  0.00  0.00    -0.372 N 
ATOM      3  N   UNL     1      -3.376  -1.650  -9.650  0.00  0.00    -0.372 N 
ATOM      4  C   UNL     1      -3.519  -1.688  -8.321  0.00  0.00    +0.166 C 
ATOM      5  H   UNL     1      -2.884  -1.063  -6.500  0.00  0.00    +0.163 HD
ATOM      6  H   UNL     1      -5.144  -2.945  -8.413  0.00  0.00    +0.159 HD
ATOM      7  H   UNL     1      -4.664  -2.506  -6.817  0.00  0.00    +0.159 HD
ATOM      8  H   UNL     1      -2.648  -1.107 -10.095  0.00  0.00    +0.159 HD
ATOM      9  H   UNL     1      -4.003  -2.153 -10.266  0.00  0.00    +0.159 HD
ENDROOT
BRANCH   1  10
ATOM     10  C   UNL     1      -1.557  -0.229  -7.943  0.00  0.00    +0.151 C 
BRANCH  10  11
ATOM     11  C   UNL     1      -0.294  -0.866  -7.432  0.00  0.00    -0.028 A 
ATOM     12  C   UNL     1      -0.077  -2.243  -7.588  0.00  0.00    +0.005 A 
ATOM     13  C   UNL     1       0.693  -0.097  -6.796  0.00  0.00    +0.005 A 
ATOM     14  C   UNL     1       1.109  -2.830  -7.140  0.00  0.00    +0.000 A 
ATOM     15  C   UNL     1       1.875  -0.687  -6.350  0.00  0.00    +0.000 A 
ATOM     16  C   UNL     1       2.084  -2.053  -6.524  0.00  0.00    +0.000 A 
ENDBRANCH  10  11
ENDBRANCH   1  10
TORSDOF 2
ENDMDL
MODEL 2
REMARK VINA RESULT:    -6.128      9.189     10.233
REMARK INTER + INTRA:          -6.963
REMARK INTER:                  -6.787
REMARK INTRA:                  -0.176
REMARK UNBOUND:                -0.118
REMARK  Name = 1550473
REMARK  2 active torsions:
REMARK  status: ('A' for Active; 'I' for Inactive)
REMARK    1  A    between atoms: N_1  and  C_4
REMARK    2  A    between atoms: C_4  and  C_5
REMARK                            x       y       z     vdW  Elec       q    Type
REMARK                         _______ _______ _______ _____ _____    ______ ____
ROOT
ATOM      1  N   UNL     1      -9.027  -6.186  -6.642  0.00  0.00    -0.354 N 
ATOM      2  N   UNL     1      -7.072  -6.756  -5.539  0.00  0.00    -0.372 N 
ATOM      3  N   UNL     1      -8.736  -5.692  -4.370  0.00  0.00    -0.372 N 
ATOM      4  C   UNL     1      -8.293  -6.206  -5.522  0.00  0.00    +0.166 C 
ATOM      5  H   UNL     1      -8.622  -6.565  -7.490  0.00  0.00    +0.163 HD
ATOM      6  H   UNL     1      -6.496  -6.788  -4.709  0.00  0.00    +0.159 HD
ATOM      7  H   UNL     1      -6.688  -7.175  -6.377  0.00  0.00    +0.159 HD
ATOM      8  H   UNL     1      -9.646  -5.258  -4.292  0.00  0.00    +0.159 HD
ATOM      9  H   UNL     1      -8.169  -5.705  -3.531  0.00  0.00    +0.159 HD
ENDROOT
BRANCH   1  10
ATOM     10  C   UNL     1     -10.389  -5.660  -6.717  0.00  0.00    +0.151 C 
BRANCH  10  11
ATOM     11  C   UNL     1     -10.371  -4.357  -7.469  0.00  0.00    -0.028 A 
ATOM     12  C   UNL     1     -10.133  -3.150  -6.796  0.00  0.00    +0.005 A 
ATOM     13  C   UNL     1     -10.587  -4.325  -8.856  0.00  0.00    +0.005 A 
ATOM     14  C   UNL     1     -10.087  -1.943  -7.499  0.00  0.00    +0.000 A 
ATOM     15  C   UNL     1     -10.540  -3.118  -9.553  0.00  0.00    +0.000 A 
ATOM     16  C   UNL     1     -10.288  -1.928  -8.875  0.00  0.00    +0.000 A 
ENDBRANCH  10  11
ENDBRANCH   1  10
TORSDOF 2
ENDMDL
MODEL 3
REMARK VINA RESULT:    -5.983      8.577      9.976
REMARK INTER + INTRA:          -6.801
REMARK INTER:                  -6.698
REMARK INTRA:                  -0.103
REMARK UNBOUND:                -0.118
REMARK  Name = 1550473
REMARK  2 active torsions:
REMARK  status: ('A' for Active; 'I' for Inactive)
REMARK    1  A    between atoms: N_1  and  C_4
REMARK    2  A    between atoms: C_4  and  C_5
REMARK                            x       y       z     vdW  Elec       q    Type
REMARK                         _______ _______ _______ _____ _____    ______ ____
ROOT
ATOM      1  N   UNL     1      -8.618  -5.609  -4.474  0.00  0.00    -0.354 N 
ATOM      2  N   UNL     1      -7.751  -7.735  -4.780  0.00  0.00    -0.372 N 
ATOM      3  N   UNL     1      -6.824  -5.982  -5.935  0.00  0.00    -0.372 N 
ATOM      4  C   UNL     1      -7.735  -6.427  -5.063  0.00  0.00    +0.166 C 
ATOM      5  H   UNL     1      -9.302  -6.012  -3.845  0.00  0.00    +0.163 HD
ATOM      6  H   UNL     1      -7.094  -8.375  -5.206  0.00  0.00    +0.159 HD
ATOM      7  H   UNL     1      -8.406  -8.128  -4.116  0.00  0.00    +0.159 HD
ATOM      8  H   UNL     1      -6.763  -5.007  -6.196  0.00  0.00    +0.159 HD
ATOM      9  H   UNL     1      -6.166  -6.610  -6.381  0.00  0.00    +0.159 HD
ENDROOT
BRANCH   1  10
ATOM     10  C   UNL     1      -8.650  -4.161  -4.673  0.00  0.00    +0.151 C 
BRANCH  10  11
ATOM     11  C   UNL     1      -9.467  -3.851  -5.897  0.00  0.00    -0.028 A 
ATOM     12  C   UNL     1      -9.025  -2.898  -6.826  0.00  0.00    +0.005 A 
ATOM     13  C   UNL     1     -10.682  -4.512  -6.136  0.00  0.00    +0.005 A 
ATOM     14  C   UNL     1      -9.768  -2.632  -7.978  0.00  0.00    +0.000 A 
ATOM     15  C   UNL     1     -11.422  -4.243  -7.288  0.00  0.00    +0.000 A 
ATOM     16  C   UNL     1     -10.964  -3.304  -8.209  0.00  0.00    +0.000 A 
ENDBRANCH  10  11
ENDBRANCH   1  10
TORSDOF 2
ENDMDL
MODEL 4
REMARK VINA RESULT:    -5.959      4.549      7.323
REMARK INTER + INTRA:          -6.774
REMARK INTER:                  -6.663
REMARK INTRA:                  -0.111
REMARK UNBOUND:                -0.118
REMARK  Name = 1550473
REMARK  2 active torsions:
REMARK  status: ('A' for Active; 'I' for Inactive)
REMARK    1  A    between atoms: N_1  and  C_4
REMARK    2  A    between atoms: C_4  and  C_5
REMARK                            x       y       z     vdW  Elec       q    Type
REMARK                         _______ _______ _______ _____ _____    ______ ____
ROOT
ATOM      1  N   UNL     1      -5.250  -2.534  -7.482  0.00  0.00    -0.354 N 
ATOM      2  N   UNL     1      -3.119  -1.718  -7.879  0.00  0.00    -0.372 N 
ATOM      3  N   UNL     1      -4.901  -0.279  -8.016  0.00  0.00    -0.372 N 
ATOM      4  C   UNL     1      -4.439  -1.513  -7.790  0.00  0.00    +0.166 C 
ATOM      5  H   UNL     1      -4.841  -3.452  -7.353  0.00  0.00    +0.163 HD
ATOM      6  H   UNL     1      -2.482  -0.967  -8.107  0.00  0.00    +0.159 HD
ATOM      7  H   UNL     1      -2.708  -2.627  -7.704  0.00  0.00    +0.159 HD
ATOM      8  H   UNL     1      -5.887  -0.059  -7.970  0.00  0.00    +0.159 HD
ATOM      9  H   UNL     1      -4.280   0.484  -8.256  0.00  0.00    +0.159 HD
ENDROOT
BRANCH   1  10
ATOM     10  C   UNL     1      -6.696  -2.405  -7.308  0.00  0.00    +0.151 C 
BRANCH  10  11
ATOM     11  C   UNL     1      -7.198  -3.567  -6.495  0.00  0.00    -0.028 A 
ATOM     12  C   UNL     1      -8.206  -3.383  -5.538  0.00  0.00    +0.005 A 
ATOM     13  C   UNL     1      -6.673  -4.855  -6.683  0.00  0.00    +0.005 A 
ATOM     14  C   UNL     1      -8.693  -4.467  -4.804  0.00  0.00    +0.000 A 
ATOM     15  C   UNL     1      -7.162  -5.935  -5.948  0.00  0.00    +0.000 A 
ATOM     16  C   UNL     1      -8.174  -5.741  -5.010  0.00  0.00    +0.000 A 
ENDBRANCH  10  11
ENDBRANCH   1  10
TORSDOF 2
ENDMDL
MODEL 5
REMARK VINA RESULT:    -5.875      1.393      2.347
REMARK INTER + INTRA:          -6.680
REMARK INTER:                  -6.525
REMARK INTRA:                  -0.155
REMARK UNBOUND:                -0.118
REMARK  Name = 1550473
REMARK  2 active torsions:
REMARK  status: ('A' for Active; 'I' for Inactive)
REMARK    1  A    between atoms: N_1  and  C_4
REMARK    2  A    between atoms: C_4  and  C_5
REMARK                            x       y       z     vdW  Elec       q    Type
REMARK                         _______ _______ _______ _____ _____    ______ ____
ROOT
ATOM      1  N   UNL     1      -2.284  -0.940  -9.005  0.00  0.00    -0.354 N 
ATOM      2  N   UNL     1      -2.663  -0.795 -11.285  0.00  0.00    -0.372 N 
ATOM      3  N   UNL     1      -2.095   1.106 -10.132  0.00  0.00    -0.372 N 
ATOM      4  C   UNL     1      -2.344  -0.208 -10.125  0.00  0.00    +0.166 C 
ATOM      5  H   UNL     1      -2.513  -1.925  -9.061  0.00  0.00    +0.163 HD
ATOM      6  H   UNL     1      -2.713  -0.269 -12.147  0.00  0.00    +0.159 HD
ATOM      7  H   UNL     1      -2.847  -1.789 -11.346  0.00  0.00    +0.159 HD
ATOM      8  H   UNL     1      -1.856   1.610  -9.289  0.00  0.00    +0.159 HD
ATOM      9  H   UNL     1      -2.152   1.652 -10.983  0.00  0.00    +0.159 HD
ENDROOT
BRANCH   1  10
ATOM     10  C   UNL     1      -1.894  -0.407  -7.700  0.00  0.00    +0.151 C 
BRANCH  10  11
ATOM     11  C   UNL     1      -0.547  -0.962  -7.326  0.00  0.00    -0.028 A 
ATOM     12  C   UNL     1       0.445  -0.124  -6.795  0.00  0.00    +0.005 A 
ATOM     13  C   UNL     1      -0.259  -2.325  -7.494  0.00  0.00    +0.005 A 
ATOM     14  C   UNL     1       1.686  -0.644  -6.419  0.00  0.00    +0.000 A 
ATOM     15  C   UNL     1       0.982  -2.840  -7.118  0.00  0.00    +0.000 A 
ATOM     16  C   UNL     1       1.953  -2.000  -6.578  0.00  0.00    +0.000 A 
ENDBRANCH  10  11
ENDBRANCH   1  10
TORSDOF 2
ENDMDL
MODEL 6
REMARK VINA RESULT:    -5.692     25.043     25.697
REMARK INTER + INTRA:          -6.476
REMARK INTER:                  -6.379
REMARK INTRA:                  -0.097
REMARK UNBOUND:                -0.118
REMARK  Name = 1550473
REMARK  2 active torsions:
REMARK  status: ('A' for Active; 'I' for Inactive)
REMARK    1  A    between atoms: N_1  and  C_4
REMARK    2  A    between atoms: C_4  and  C_5
REMARK                            x       y       z     vdW  Elec       q    Type
REMARK                         _______ _______ _______ _____ _____    ______ ____
ROOT
ATOM      1  N   UNL     1       7.499 -22.734   3.407  0.00  0.00    -0.354 N 
ATOM      2  N   UNL     1       7.262 -24.401   1.816  0.00  0.00    -0.372 N 
ATOM      3  N   UNL     1       8.804 -22.740   1.460  0.00  0.00    -0.372 N 
ATOM      4  C   UNL     1       7.858 -23.279   2.237  0.00  0.00    +0.166 C 
ATOM      5  H   UNL     1       6.754 -23.175   3.934  0.00  0.00    +0.163 HD
ATOM      6  H   UNL     1       7.515 -24.837   0.940  0.00  0.00    +0.159 HD
ATOM      7  H   UNL     1       6.550 -24.865   2.367  0.00  0.00    +0.159 HD
ATOM      8  H   UNL     1       9.288 -21.890   1.718  0.00  0.00    +0.159 HD
ATOM      9  H   UNL     1       9.063 -23.155   0.574  0.00  0.00    +0.159 HD
ENDROOT
BRANCH   1  10
ATOM     10  C   UNL     1       8.123 -21.543   3.980  0.00  0.00    +0.151 C 
BRANCH  10  11
ATOM     11  C   UNL     1       7.667 -21.387   5.405  0.00  0.00    -0.028 A 
ATOM     12  C   UNL     1       6.315 -21.157   5.698  0.00  0.00    +0.005 A 
ATOM     13  C   UNL     1       8.581 -21.475   6.466  0.00  0.00    +0.005 A 
ATOM     14  C   UNL     1       5.885 -21.042   7.022  0.00  0.00    +0.000 A 
ATOM     15  C   UNL     1       8.148 -21.358   7.787  0.00  0.00    +0.000 A 
ATOM     16  C   UNL     1       6.800 -21.144   8.065  0.00  0.00    +0.000 A 
ENDBRANCH  10  11
ENDBRANCH   1  10
TORSDOF 2
ENDMDL
MODEL 7
REMARK VINA RESULT:    -5.647      3.070      4.888
REMARK INTER + INTRA:          -6.426
REMARK INTER:                  -6.286
REMARK INTRA:                  -0.140
REMARK UNBOUND:                -0.118
REMARK  Name = 1550473
REMARK  2 active torsions:
REMARK  status: ('A' for Active; 'I' for Inactive)
REMARK    1  A    between atoms: N_1  and  C_4
REMARK    2  A    between atoms: C_4  and  C_5
REMARK                            x       y       z     vdW  Elec       q    Type
REMARK                         _______ _______ _______ _____ _____    ______ ____
ROOT
ATOM      1  N   UNL     1       1.339  -0.858  -7.658  0.00  0.00    -0.354 N 
ATOM      2  N   UNL     1       2.516  -2.031  -6.045  0.00  0.00    -0.372 N 
ATOM      3  N   UNL     1       1.034  -3.165  -7.381  0.00  0.00    -0.372 N 
ATOM      4  C   UNL     1       1.620  -2.012  -7.040  0.00  0.00    +0.166 C 
ATOM      5  H   UNL     1       1.795  -0.013  -7.332  0.00  0.00    +0.163 HD
ATOM      6  H   UNL     1       2.751  -2.888  -5.562  0.00  0.00    +0.159 HD
ATOM      7  H   UNL     1       3.004  -1.194  -5.752  0.00  0.00    +0.159 HD
ATOM      8  H   UNL     1       0.345  -3.217  -8.120  0.00  0.00    +0.159 HD
ATOM      9  H   UNL     1       1.248  -4.030  -6.902  0.00  0.00    +0.159 HD
ENDROOT
BRANCH   1  10
ATOM     10  C   UNL     1       0.419  -0.738  -8.788  0.00  0.00    +0.151 C 
BRANCH  10  11
ATOM     11  C   UNL     1      -0.448   0.474  -8.590  0.00  0.00    -0.028 A 
ATOM     12  C   UNL     1      -0.628   1.019  -7.311  0.00  0.00    +0.005 A 
ATOM     13  C   UNL     1      -1.088   1.086  -9.679  0.00  0.00    +0.005 A 
ATOM     14  C   UNL     1      -1.409   2.163  -7.130  0.00  0.00    +0.000 A 
ATOM     15  C   UNL     1      -1.868   2.227  -9.494  0.00  0.00    +0.000 A 
ATOM     16  C   UNL     1      -2.026   2.767  -8.220  0.00  0.00    +0.000 A 
ENDBRANCH  10  11
ENDBRANCH   1  10
TORSDOF 2
ENDMDL
MODEL 8
REMARK VINA RESULT:    -5.600      4.207      7.377
REMARK INTER + INTRA:          -6.372
REMARK INTER:                  -6.244
REMARK INTRA:                  -0.128
REMARK UNBOUND:                -0.118
REMARK  Name = 1550473
REMARK  2 active torsions:
REMARK  status: ('A' for Active; 'I' for Inactive)
REMARK    1  A    between atoms: N_1  and  C_4
REMARK    2  A    between atoms: C_4  and  C_5
REMARK                            x       y       z     vdW  Elec       q    Type
REMARK                         _______ _______ _______ _____ _____    ______ ____
ROOT
ATOM      1  N   UNL     1      -5.261  -1.835  -8.254  0.00  0.00    -0.354 N 
ATOM      2  N   UNL     1      -2.987  -1.703  -7.834  0.00  0.00    -0.372 N 
ATOM      3  N   UNL     1      -4.265   0.191  -7.627  0.00  0.00    -0.372 N 
ATOM      4  C   UNL     1      -4.187  -1.114  -7.908  0.00  0.00    +0.166 C 
ATOM      5  H   UNL     1      -5.130  -2.814  -8.484  0.00  0.00    +0.163 HD
ATOM      6  H   UNL     1      -2.159  -1.185  -7.572  0.00  0.00    +0.159 HD
ATOM      7  H   UNL     1      -2.867  -2.691  -8.020  0.00  0.00    +0.159 HD
ATOM      8  H   UNL     1      -5.140   0.697  -7.670  0.00  0.00    +0.159 HD
ATOM      9  H   UNL     1      -3.446   0.730  -7.374  0.00  0.00    +0.159 HD
ENDROOT
BRANCH   1  10
ATOM     10  C   UNL     1      -6.621  -1.302  -8.311  0.00  0.00    +0.151 C 
BRANCH  10  11
ATOM     11  C   UNL     1      -7.512  -2.131  -7.427  0.00  0.00    -0.028 A 
ATOM     12  C   UNL     1      -6.966  -2.909  -6.396  0.00  0.00    +0.005 A 
ATOM     13  C   UNL     1      -8.903  -2.138  -7.613  0.00  0.00    +0.005 A 
ATOM     14  C   UNL     1      -7.795  -3.656  -5.556  0.00  0.00    +0.000 A 
ATOM     15  C   UNL     1      -9.727  -2.886  -6.773  0.00  0.00    +0.000 A 
ATOM     16  C   UNL     1      -9.174  -3.643  -5.743  0.00  0.00    +0.000 A 
ENDBRANCH  10  11
ENDBRANCH   1  10
TORSDOF 2
ENDMDL
MODEL 9
REMARK VINA RESULT:    -5.419      7.898      9.746
REMARK INTER + INTRA:          -6.170
REMARK INTER:                  -6.053
REMARK INTRA:                  -0.117
REMARK UNBOUND:                -0.118
REMARK  Name = 1550473
REMARK  2 active torsions:
REMARK  status: ('A' for Active; 'I' for Inactive)
REMARK    1  A    between atoms: N_1  and  C_4
REMARK    2  A    between atoms: C_4  and  C_5
REMARK                            x       y       z     vdW  Elec       q    Type
REMARK                         _______ _______ _______ _____ _____    ______ ____
ROOT
ATOM      1  N   UNL     1      -7.876  -3.876  -6.235  0.00  0.00    -0.354 N 
ATOM      2  N   UNL     1      -6.184  -5.416  -6.592  0.00  0.00    -0.372 N 
ATOM      3  N   UNL     1      -8.346  -6.165  -6.409  0.00  0.00    -0.372 N 
ATOM      4  C   UNL     1      -7.482  -5.144  -6.409  0.00  0.00    +0.166 C 
ATOM      5  H   UNL     1      -7.169  -3.150  -6.215  0.00  0.00    +0.163 HD
ATOM      6  H   UNL     1      -5.858  -6.363  -6.730  0.00  0.00    +0.159 HD
ATOM      7  H   UNL     1      -5.485  -4.685  -6.618  0.00  0.00    +0.159 HD
ATOM      8  H   UNL     1      -9.338  -6.027  -6.271  0.00  0.00    +0.159 HD
ATOM      9  H   UNL     1      -8.037  -7.121  -6.534  0.00  0.00    +0.159 HD
ENDROOT
BRANCH   1  10
ATOM     10  C   UNL     1      -9.271  -3.467  -6.081  0.00  0.00    +0.151 C 
BRANCH  10  11
ATOM     11  C   UNL     1      -9.889  -3.306  -7.443  0.00  0.00    -0.028 A 
ATOM     12  C   UNL     1     -10.963  -4.116  -7.838  0.00  0.00    +0.005 A 
ATOM     13  C   UNL     1      -9.407  -2.341  -8.341  0.00  0.00    +0.005 A 
ATOM     14  C   UNL     1     -11.556  -3.947  -9.091  0.00  0.00    +0.000 A 
ATOM     15  C   UNL     1     -10.002  -2.175  -9.592  0.00  0.00    +0.000 A 
ATOM     16  C   UNL     1     -11.078  -2.977  -9.965  0.00  0.00    +0.000 A 
ENDBRANCH  10  11
ENDBRANCH   1  10
TORSDOF 2
ENDMDL
