MODEL 1
REMARK VINA RESULT:    -5.216      0.000      0.000
REMARK INTER + INTRA:          -5.990
REMARK INTER:                  -5.826
REMARK INTRA:                  -0.164
REMARK UNBOUND:                -0.164
REMARK  Name = 1550473
REMARK  2 active torsions:
REMARK  status: ('A' for Active; 'I' for Inactive)
REMARK    1  A    between atoms: N_1  and  C_4
REMARK    2  A    between atoms: C_4  and  C_5
REMARK                            x       y       z     vdW  Elec       q    Type
REMARK                         _______ _______ _______ _____ _____    ______ ____
ROOT
ATOM      1  N   UNL     1     -18.099 -21.071 -28.138  0.00  0.00    -0.354 N 
ATOM      2  N   UNL     1     -18.581 -23.150 -27.238  0.00  0.00    -0.372 N 
ATOM      3  N   UNL     1     -20.312 -21.728 -27.734  0.00  0.00    -0.372 N 
ATOM      4  C   UNL     1     -18.997 -21.968 -27.709  0.00  0.00    +0.166 C 
ATOM      5  H   UNL     1     -17.115 -21.301 -28.065  0.00  0.00    +0.163 HD
ATOM      6  H   UNL     1     -19.234 -23.848 -26.911  0.00  0.00    +0.159 HD
ATOM      7  H   UNL     1     -17.599 -23.396 -27.209  0.00  0.00    +0.159 HD
ATOM      8  H   UNL     1     -20.691 -20.854 -28.072  0.00  0.00    +0.159 HD
ATOM      9  H   UNL     1     -20.982 -22.410 -27.400  0.00  0.00    +0.159 HD
ENDROOT
BRANCH   1  10
ATOM     10  C   UNL     1     -18.451 -19.776 -28.719  0.00  0.00    +0.151 C 
BRANCH  10  11
ATOM     11  C   UNL     1     -18.377 -18.721 -27.649  0.00  0.00    -0.028 A 
ATOM     12  C   UNL     1     -17.317 -18.711 -26.731  0.00  0.00    +0.005 A 
ATOM     13  C   UNL     1     -19.362 -17.726 -27.552  0.00  0.00    +0.005 A 
ATOM     14  C   UNL     1     -17.232 -17.714 -25.757  0.00  0.00    +0.000 A 
ATOM     15  C   UNL     1     -19.274 -16.733 -26.577  0.00  0.00    +0.000 A 
ATOM     16  C   UNL     1     -18.208 -16.726 -25.681  0.00  0.00    +0.000 A 
ENDBRANCH  10  11
ENDBRANCH   1  10
TORSDOF 2
ENDMDL
MODEL 2
REMARK VINA RESULT:    -5.096      1.632      2.307
REMARK INTER + INTRA:          -5.856
REMARK INTER:                  -5.711
REMARK INTRA:                  -0.146
REMARK UNBOUND:                -0.164
REMARK  Name = 1550473
REMARK  2 active torsions:
REMARK  status: ('A' for Active; 'I' for Inactive)
REMARK    1  A    between atoms: N_1  and  C_4
REMARK    2  A    between atoms: C_4  and  C_5
REMARK                            x       y       z     vdW  Elec       q    Type
REMARK                         _______ _______ _______ _____ _____    ______ ____
ROOT
ATOM      1  N   UNL     1     -16.546 -20.993 -26.688  0.00  0.00    -0.354 N 
ATOM      2  N   UNL     1     -15.787 -22.783 -25.429  0.00  0.00    -0.372 N 
ATOM      3  N   UNL     1     -17.835 -22.936 -26.453  0.00  0.00    -0.372 N 
ATOM      4  C   UNL     1     -16.730 -22.227 -26.199  0.00  0.00    +0.166 C 
ATOM      5  H   UNL     1     -15.700 -20.496 -26.434  0.00  0.00    +0.163 HD
ATOM      6  H   UNL     1     -15.897 -23.714 -25.049  0.00  0.00    +0.159 HD
ATOM      7  H   UNL     1     -14.922 -22.302 -25.214  0.00  0.00    +0.159 HD
ATOM      8  H   UNL     1     -18.587 -22.571 -27.022  0.00  0.00    +0.159 HD
ATOM      9  H   UNL     1     -17.968 -23.864 -26.072  0.00  0.00    +0.159 HD
ENDROOT
BRANCH   1  10
ATOM     10  C   UNL     1     -17.487 -20.318 -27.580  0.00  0.00    +0.151 C 
BRANCH  10  11
ATOM     11  C   UNL     1     -17.830 -18.972 -27.004  0.00  0.00    -0.028 A 
ATOM     12  C   UNL     1     -18.872 -18.208 -27.550  0.00  0.00    +0.005 A 
ATOM     13  C   UNL     1     -17.120 -18.456 -25.908  0.00  0.00    +0.005 A 
ATOM     14  C   UNL     1     -19.210 -16.971 -26.997  0.00  0.00    +0.000 A 
ATOM     15  C   UNL     1     -17.461 -17.220 -25.359  0.00  0.00    +0.000 A 
ATOM     16  C   UNL     1     -18.507 -16.479 -25.902  0.00  0.00    +0.000 A 
ENDBRANCH  10  11
ENDBRANCH   1  10
TORSDOF 2
ENDMDL
MODEL 3
REMARK VINA RESULT:    -4.542     18.709     19.463
REMARK INTER + INTRA:          -5.237
REMARK INTER:                  -5.116
REMARK INTRA:                  -0.121
REMARK UNBOUND:                -0.164
REMARK  Name = 1550473
REMARK  2 active torsions:
REMARK  status: ('A' for Active; 'I' for Inactive)
REMARK    1  A    between atoms: N_1  and  C_4
REMARK    2  A    between atoms: C_4  and  C_5
REMARK                            x       y       z     vdW  Elec       q    Type
REMARK                         _______ _______ _______ _____ _____    ______ ____
ROOT
ATOM      1  N   UNL     1      -7.880  -7.879 -15.956  0.00  0.00    -0.354 N 
ATOM      2  N   UNL     1      -6.383  -7.951 -17.722  0.00  0.00    -0.372 N 
ATOM      3  N   UNL     1      -5.641  -8.485 -15.617  0.00  0.00    -0.372 N 
ATOM      4  C   UNL     1      -6.643  -8.105 -16.418  0.00  0.00    +0.166 C 
ATOM      5  H   UNL     1      -8.587  -7.564 -16.610  0.00  0.00    +0.163 HD
ATOM      6  H   UNL     1      -5.460  -8.118 -18.100  0.00  0.00    +0.159 HD
ATOM      7  H   UNL     1      -7.103  -7.680 -18.381  0.00  0.00    +0.159 HD
ATOM      8  H   UNL     1      -5.771  -8.614 -14.623  0.00  0.00    +0.159 HD
ATOM      9  H   UNL     1      -4.708  -8.645 -15.975  0.00  0.00    +0.159 HD
ENDROOT
BRANCH   1  10
ATOM     10  C   UNL     1      -8.280  -8.070 -14.563  0.00  0.00    +0.151 C 
BRANCH  10  11
ATOM     11  C   UNL     1      -9.775  -7.944 -14.460  0.00  0.00    -0.028 A 
ATOM     12  C   UNL     1     -10.450  -8.397 -13.318  0.00  0.00    +0.005 A 
ATOM     13  C   UNL     1     -10.521  -7.366 -15.499  0.00  0.00    +0.005 A 
ATOM     14  C   UNL     1     -11.836  -8.253 -13.209  0.00  0.00    +0.000 A 
ATOM     15  C   UNL     1     -11.904  -7.224 -15.386  0.00  0.00    +0.000 A 
ATOM     16  C   UNL     1     -12.560  -7.666 -14.240  0.00  0.00    +0.000 A 
ENDBRANCH  10  11
ENDBRANCH   1  10
TORSDOF 2
ENDMDL
MODEL 4
REMARK VINA RESULT:    -4.448     60.032     61.513
REMARK INTER + INTRA:          -5.133
REMARK INTER:                  -5.015
REMARK INTRA:                  -0.118
REMARK UNBOUND:                -0.164
REMARK  Name = 1550473
REMARK  2 active torsions:
REMARK  status: ('A' for Active; 'I' for Inactive)
REMARK    1  A    between atoms: N_1  and  C_4
REMARK    2  A    between atoms: C_4  and  C_5
REMARK                            x       y       z     vdW  Elec       q    Type
REMARK                         _______ _______ _______ _____ _____    ______ ____
ROOT
ATOM      1  N   UNL     1       4.336   6.453  24.837  0.00  0.00    -0.354 N 
ATOM      2  N   UNL     1       3.212   7.883  26.271  0.00  0.00    -0.372 N 
ATOM      3  N   UNL     1       3.719   8.608  24.153  0.00  0.00    -0.372 N 
ATOM      4  C   UNL     1       3.763   7.640  25.075  0.00  0.00    +0.166 C 
ATOM      5  H   UNL     1       4.363   5.772  25.587  0.00  0.00    +0.163 HD
ATOM      6  H   UNL     1       2.770   8.768  26.479  0.00  0.00    +0.159 HD
ATOM      7  H   UNL     1       3.200   7.184  27.004  0.00  0.00    +0.159 HD
ATOM      8  H   UNL     1       4.122   8.490  23.234  0.00  0.00    +0.159 HD
ATOM      9  H   UNL     1       3.291   9.505  24.347  0.00  0.00    +0.159 HD
ENDROOT
BRANCH   1  10
ATOM     10  C   UNL     1       4.917   6.069  23.551  0.00  0.00    +0.151 C 
BRANCH  10  11
ATOM     11  C   UNL     1       4.979   4.569  23.469  0.00  0.00    -0.028 A 
ATOM     12  C   UNL     1       5.115   3.797  24.632  0.00  0.00    +0.005 A 
ATOM     13  C   UNL     1       4.896   3.912  22.231  0.00  0.00    +0.005 A 
ATOM     14  C   UNL     1       5.143   2.402  24.559  0.00  0.00    +0.000 A 
ATOM     15  C   UNL     1       4.925   2.520  22.162  0.00  0.00    +0.000 A 
ATOM     16  C   UNL     1       5.046   1.765  23.326  0.00  0.00    +0.000 A 
ENDBRANCH  10  11
ENDBRANCH   1  10
TORSDOF 2
ENDMDL
MODEL 5
REMARK VINA RESULT:    -4.442      9.123      9.699
REMARK INTER + INTRA:          -5.125
REMARK INTER:                  -5.008
REMARK INTRA:                  -0.117
REMARK UNBOUND:                -0.164
REMARK  Name = 1550473
REMARK  2 active torsions:
REMARK  status: ('A' for Active; 'I' for Inactive)
REMARK    1  A    between atoms: N_1  and  C_4
REMARK    2  A    between atoms: C_4  and  C_5
REMARK                            x       y       z     vdW  Elec       q    Type
REMARK                         _______ _______ _______ _____ _____    ______ ____
ROOT
ATOM      1  N   UNL     1     -26.926 -19.659 -22.480  0.00  0.00    -0.354 N 
ATOM      2  N   UNL     1     -28.286 -18.657 -24.064  0.00  0.00    -0.372 N 
ATOM      3  N   UNL     1     -27.644 -20.838 -24.373  0.00  0.00    -0.372 N 
ATOM      4  C   UNL     1     -27.609 -19.727 -23.630  0.00  0.00    +0.166 C 
ATOM      5  H   UNL     1     -26.915 -18.778 -21.978  0.00  0.00    +0.163 HD
ATOM      6  H   UNL     1     -28.813 -18.679 -24.927  0.00  0.00    +0.159 HD
ATOM      7  H   UNL     1     -28.310 -17.792 -23.538  0.00  0.00    +0.159 HD
ATOM      8  H   UNL     1     -27.150 -21.678 -24.104  0.00  0.00    +0.159 HD
ATOM      9  H   UNL     1     -28.157 -20.877 -25.246  0.00  0.00    +0.159 HD
ENDROOT
BRANCH   1  10
ATOM     10  C   UNL     1     -26.201 -20.784 -21.891  0.00  0.00    +0.151 C 
BRANCH  10  11
ATOM     11  C   UNL     1     -25.188 -20.257 -20.913  0.00  0.00    -0.028 A 
ATOM     12  C   UNL     1     -25.421 -19.058 -20.223  0.00  0.00    +0.005 A 
ATOM     13  C   UNL     1     -23.996 -20.956 -20.666  0.00  0.00    +0.005 A 
ATOM     14  C   UNL     1     -24.494 -18.584 -19.292  0.00  0.00    +0.000 A 
ATOM     15  C   UNL     1     -23.073 -20.478 -19.735  0.00  0.00    +0.000 A 
ATOM     16  C   UNL     1     -23.323 -19.294 -19.047  0.00  0.00    +0.000 A 
ENDBRANCH  10  11
ENDBRANCH   1  10
TORSDOF 2
ENDMDL
MODEL 6
REMARK VINA RESULT:    -4.436     57.947     59.338
REMARK INTER + INTRA:          -5.119
REMARK INTER:                  -4.994
REMARK INTRA:                  -0.125
REMARK UNBOUND:                -0.164
REMARK  Name = 1550473
REMARK  2 active torsions:
REMARK  status: ('A' for Active; 'I' for Inactive)
REMARK    1  A    between atoms: N_1  and  C_4
REMARK    2  A    between atoms: C_4  and  C_5
REMARK                            x       y       z     vdW  Elec       q    Type
REMARK                         _______ _______ _______ _____ _____    ______ ____
ROOT
ATOM      1  N   UNL     1       6.736  17.322  11.250  0.00  0.00    -0.354 N 
ATOM      2  N   UNL     1       8.737  17.400  10.086  0.00  0.00    -0.372 N 
ATOM      3  N   UNL     1       7.132  15.895   9.434  0.00  0.00    -0.372 N 
ATOM      4  C   UNL     1       7.520  16.870  10.263  0.00  0.00    +0.166 C 
ATOM      5  H   UNL     1       7.101  18.042  11.863  0.00  0.00    +0.163 HD
ATOM      6  H   UNL     1       9.350  17.081   9.348  0.00  0.00    +0.159 HD
ATOM      7  H   UNL     1       9.081  18.151  10.672  0.00  0.00    +0.159 HD
ATOM      8  H   UNL     1       6.228  15.449   9.518  0.00  0.00    +0.159 HD
ATOM      9  H   UNL     1       7.736  15.554   8.697  0.00  0.00    +0.159 HD
ENDROOT
BRANCH   1  10
ATOM     10  C   UNL     1       5.374  16.850  11.494  0.00  0.00    +0.151 C 
BRANCH  10  11
ATOM     11  C   UNL     1       5.057  16.998  12.957  0.00  0.00    -0.028 A 
ATOM     12  C   UNL     1       3.763  17.342  13.374  0.00  0.00    +0.005 A 
ATOM     13  C   UNL     1       6.046  16.789  13.931  0.00  0.00    +0.005 A 
ATOM     14  C   UNL     1       3.461  17.450  14.733  0.00  0.00    +0.000 A 
ATOM     15  C   UNL     1       5.740  16.899  15.287  0.00  0.00    +0.000 A 
ATOM     16  C   UNL     1       4.447  17.227  15.688  0.00  0.00    +0.000 A 
ENDBRANCH  10  11
ENDBRANCH   1  10
TORSDOF 2
ENDMDL
MODEL 7
REMARK VINA RESULT:    -4.396     10.229     11.122
REMARK INTER + INTRA:          -5.074
REMARK INTER:                  -4.982
REMARK INTRA:                  -0.092
REMARK UNBOUND:                -0.164
REMARK  Name = 1550473
REMARK  2 active torsions:
REMARK  status: ('A' for Active; 'I' for Inactive)
REMARK    1  A    between atoms: N_1  and  C_4
REMARK    2  A    between atoms: C_4  and  C_5
REMARK                            x       y       z     vdW  Elec       q    Type
REMARK                         _______ _______ _______ _____ _____    ______ ____
ROOT
ATOM      1  N   UNL     1     -19.076 -15.683 -17.535  0.00  0.00    -0.354 N 
ATOM      2  N   UNL     1     -20.316 -17.485 -18.298  0.00  0.00    -0.372 N 
ATOM      3  N   UNL     1     -21.324 -15.945 -16.928  0.00  0.00    -0.372 N 
ATOM      4  C   UNL     1     -20.232 -16.358 -17.580  0.00  0.00    +0.166 C 
ATOM      5  H   UNL     1     -18.276 -16.065 -18.027  0.00  0.00    +0.163 HD
ATOM      6  H   UNL     1     -21.176 -18.014 -18.353  0.00  0.00    +0.159 HD
ATOM      7  H   UNL     1     -19.528 -17.840 -18.826  0.00  0.00    +0.159 HD
ATOM      8  H   UNL     1     -21.325 -15.106 -16.364  0.00  0.00    +0.159 HD
ATOM      9  H   UNL     1     -22.191 -16.467 -16.962  0.00  0.00    +0.159 HD
ENDROOT
BRANCH   1  10
ATOM     10  C   UNL     1     -18.895 -14.418 -16.827  0.00  0.00    +0.151 C 
BRANCH  10  11
ATOM     11  C   UNL     1     -17.572 -13.820 -17.219  0.00  0.00    -0.028 A 
ATOM     12  C   UNL     1     -16.383 -14.276 -16.631  0.00  0.00    +0.005 A 
ATOM     13  C   UNL     1     -17.500 -12.802 -18.182  0.00  0.00    +0.005 A 
ATOM     14  C   UNL     1     -15.151 -13.742 -17.017  0.00  0.00    +0.000 A 
ATOM     15  C   UNL     1     -16.268 -12.271 -18.564  0.00  0.00    +0.000 A 
ATOM     16  C   UNL     1     -15.093 -12.743 -17.983  0.00  0.00    +0.000 A 
ENDBRANCH  10  11
ENDBRANCH   1  10
TORSDOF 2
ENDMDL
MODEL 8
REMARK VINA RESULT:    -4.369     19.563     20.530
REMARK INTER + INTRA:          -5.045
REMARK INTER:                  -4.919
REMARK INTRA:                  -0.126
REMARK UNBOUND:                -0.164
REMARK  Name = 1550473
REMARK  2 active torsions:
REMARK  status: ('A' for Active; 'I' for Inactive)
REMARK    1  A    between atoms: N_1  and  C_4
REMARK    2  A    between atoms: C_4  and  C_5
REMARK                            x       y       z     vdW  Elec       q    Type
REMARK                         _______ _______ _______ _____ _____    ______ ____
ROOT
ATOM      1  N   UNL     1      -7.575  -8.351 -15.204  0.00  0.00    -0.354 N 
ATOM      2  N   UNL     1      -5.332  -8.523 -15.755  0.00  0.00    -0.372 N 
ATOM      3  N   UNL     1      -6.598  -6.892 -16.757  0.00  0.00    -0.372 N 
ATOM      4  C   UNL     1      -6.517  -7.919 -15.904  0.00  0.00    +0.166 C 
ATOM      5  H   UNL     1      -7.455  -9.153 -14.596  0.00  0.00    +0.163 HD
ATOM      6  H   UNL     1      -4.515  -8.217 -16.267  0.00  0.00    +0.159 HD
ATOM      7  H   UNL     1      -5.204  -9.295 -15.113  0.00  0.00    +0.159 HD
ATOM      8  H   UNL     1      -7.466  -6.398 -16.919  0.00  0.00    +0.159 HD
ATOM      9  H   UNL     1      -5.795  -6.579 -17.287  0.00  0.00    +0.159 HD
ENDROOT
BRANCH   1  10
ATOM     10  C   UNL     1      -8.897  -7.728 -15.252  0.00  0.00    +0.151 C 
BRANCH  10  11
ATOM     11  C   UNL     1      -9.469  -7.682 -13.862  0.00  0.00    -0.028 A 
ATOM     12  C   UNL     1     -10.651  -8.371 -13.556  0.00  0.00    +0.005 A 
ATOM     13  C   UNL     1      -8.830  -6.955 -12.846  0.00  0.00    +0.005 A 
ATOM     14  C   UNL     1     -11.167  -8.352 -12.257  0.00  0.00    +0.000 A 
ATOM     15  C   UNL     1      -9.348  -6.938 -11.551  0.00  0.00    +0.000 A 
ATOM     16  C   UNL     1     -10.515  -7.639 -11.257  0.00  0.00    +0.000 A 
ENDBRANCH  10  11
ENDBRANCH   1  10
TORSDOF 2
ENDMDL
MODEL 9
REMARK VINA RESULT:    -4.359     57.483     58.561
REMARK INTER + INTRA:          -5.033
REMARK INTER:                  -4.920
REMARK INTRA:                  -0.113
REMARK UNBOUND:                -0.164
REMARK  Name = 1550473
REMARK  2 active torsions:
REMARK  status: ('A' for Active; 'I' for Inactive)
REMARK    1  A    between atoms: N_1  and  C_4
REMARK    2  A    between atoms: C_4  and  C_5
REMARK                            x       y       z     vdW  Elec       q    Type
REMARK                         _______ _______ _______ _____ _____    ______ ____
ROOT
ATOM      1  N   UNL     1       9.294  16.776   9.330  0.00  0.00    -0.354 N 
ATOM      2  N   UNL     1       8.142  16.683  11.337  0.00  0.00    -0.372 N 
ATOM      3  N   UNL     1       7.090  15.985   9.421  0.00  0.00    -0.372 N 
ATOM      4  C   UNL     1       8.181  16.481  10.014  0.00  0.00    +0.166 C 
ATOM      5  H   UNL     1      10.077  17.178   9.833  0.00  0.00    +0.163 HD
ATOM      6  H   UNL     1       7.318  16.467  11.881  0.00  0.00    +0.159 HD
ATOM      7  H   UNL     1       8.942  17.042  11.845  0.00  0.00    +0.159 HD
ATOM      8  H   UNL     1       7.052  15.815   8.425  0.00  0.00    +0.159 HD
ATOM      9  H   UNL     1       6.251  15.774   9.947  0.00  0.00    +0.159 HD
ENDROOT
BRANCH   1  10
ATOM     10  C   UNL     1       9.457  16.544   7.896  0.00  0.00    +0.151 C 
BRANCH  10  11
ATOM     11  C   UNL     1      10.887  16.813   7.514  0.00  0.00    -0.028 A 
ATOM     12  C   UNL     1      11.936  16.398   8.347  0.00  0.00    +0.005 A 
ATOM     13  C   UNL     1      11.198  17.479   6.319  0.00  0.00    +0.005 A 
ATOM     14  C   UNL     1      13.265  16.621   7.978  0.00  0.00    +0.000 A 
ATOM     15  C   UNL     1      12.526  17.701   5.955  0.00  0.00    +0.000 A 
ATOM     16  C   UNL     1      13.559  17.270   6.783  0.00  0.00    +0.000 A 
ENDBRANCH  10  11
ENDBRANCH   1  10
TORSDOF 2
ENDMDL
