MODEL 1
REMARK VINA RESULT:    -5.458      0.000      0.000
REMARK INTER + INTRA:          -6.231
REMARK INTER:                  -6.097
REMARK INTRA:                  -0.135
REMARK UNBOUND:                -0.135
REMARK  Name = 1550473
REMARK  2 active torsions:
REMARK  status: ('A' for Active; 'I' for Inactive)
REMARK    1  A    between atoms: N_1  and  C_4
REMARK    2  A    between atoms: C_4  and  C_5
REMARK                            x       y       z     vdW  Elec       q    Type
REMARK                         _______ _______ _______ _____ _____    ______ ____
ROOT
ATOM      1  N   UNL     1      -8.583  -4.253 -18.249  0.00  0.00    -0.354 N 
ATOM      2  N   UNL     1      -9.589  -4.437 -20.327  0.00  0.00    -0.372 N 
ATOM      3  N   UNL     1      -9.262  -2.349 -19.434  0.00  0.00    -0.372 N 
ATOM      4  C   UNL     1      -9.138  -3.675 -19.323  0.00  0.00    +0.166 C 
ATOM      5  H   UNL     1      -8.546  -5.265 -18.212  0.00  0.00    +0.163 HD
ATOM      6  H   UNL     1     -10.010  -4.029 -21.151  0.00  0.00    +0.159 HD
ATOM      7  H   UNL     1      -9.510  -5.446 -20.307  0.00  0.00    +0.159 HD
ATOM      8  H   UNL     1      -8.946  -1.719 -18.709  0.00  0.00    +0.159 HD
ATOM      9  H   UNL     1      -9.691  -1.922 -20.246  0.00  0.00    +0.159 HD
ENDROOT
BRANCH   1  10
ATOM     10  C   UNL     1      -8.012  -3.512 -17.126  0.00  0.00    +0.151 C 
BRANCH  10  11
ATOM     11  C   UNL     1      -6.746  -4.192 -16.682  0.00  0.00    -0.028 A 
ATOM     12  C   UNL     1      -6.347  -4.146 -15.338  0.00  0.00    +0.005 A 
ATOM     13  C   UNL     1      -5.943  -4.887 -17.600  0.00  0.00    +0.005 A 
ATOM     14  C   UNL     1      -5.186  -4.802 -14.920  0.00  0.00    +0.000 A 
ATOM     15  C   UNL     1      -4.785  -5.541 -17.178  0.00  0.00    +0.000 A 
ATOM     16  C   UNL     1      -4.409  -5.500 -15.838  0.00  0.00    +0.000 A 
ENDBRANCH  10  11
ENDBRANCH   1  10
TORSDOF 2
ENDMDL
MODEL 2
REMARK VINA RESULT:    -5.401     10.682     11.512
REMARK INTER + INTRA:          -6.167
REMARK INTER:                  -6.058
REMARK INTRA:                  -0.109
REMARK UNBOUND:                -0.135
REMARK  Name = 1550473
REMARK  2 active torsions:
REMARK  status: ('A' for Active; 'I' for Inactive)
REMARK    1  A    between atoms: N_1  and  C_4
REMARK    2  A    between atoms: C_4  and  C_5
REMARK                            x       y       z     vdW  Elec       q    Type
REMARK                         _______ _______ _______ _____ _____    ______ ____
ROOT
ATOM      1  N   UNL     1      -6.965   6.449 -12.163  0.00  0.00    -0.354 N 
ATOM      2  N   UNL     1      -8.981   6.778 -13.255  0.00  0.00    -0.372 N 
ATOM      3  N   UNL     1      -7.839   4.819 -13.603  0.00  0.00    -0.372 N 
ATOM      4  C   UNL     1      -7.914   6.011 -13.001  0.00  0.00    +0.166 C 
ATOM      5  H   UNL     1      -7.066   7.374 -11.763  0.00  0.00    +0.163 HD
ATOM      6  H   UNL     1      -9.715   6.473 -13.880  0.00  0.00    +0.159 HD
ATOM      7  H   UNL     1      -9.102   7.684 -12.818  0.00  0.00    +0.159 HD
ATOM      8  H   UNL     1      -7.057   4.194 -13.458  0.00  0.00    +0.159 HD
ATOM      9  H   UNL     1      -8.558   4.501 -14.241  0.00  0.00    +0.159 HD
ENDROOT
BRANCH   1  10
ATOM     10  C   UNL     1      -5.791   5.668 -11.778  0.00  0.00    +0.151 C 
BRANCH  10  11
ATOM     11  C   UNL     1      -4.711   5.865 -12.806  0.00  0.00    -0.028 A 
ATOM     12  C   UNL     1      -4.396   7.150 -13.270  0.00  0.00    +0.005 A 
ATOM     13  C   UNL     1      -3.995   4.771 -13.316  0.00  0.00    +0.005 A 
ATOM     14  C   UNL     1      -3.373   7.337 -14.203  0.00  0.00    +0.000 A 
ATOM     15  C   UNL     1      -2.975   4.961 -14.247  0.00  0.00    +0.000 A 
ATOM     16  C   UNL     1      -2.662   6.244 -14.689  0.00  0.00    +0.000 A 
ENDBRANCH  10  11
ENDBRANCH   1  10
TORSDOF 2
ENDMDL
MODEL 3
REMARK VINA RESULT:    -5.164     35.570     36.707
REMARK INTER + INTRA:          -5.902
REMARK INTER:                  -5.791
REMARK INTRA:                  -0.111
REMARK UNBOUND:                -0.135
REMARK  Name = 1550473
REMARK  2 active torsions:
REMARK  status: ('A' for Active; 'I' for Inactive)
REMARK    1  A    between atoms: N_1  and  C_4
REMARK    2  A    between atoms: C_4  and  C_5
REMARK                            x       y       z     vdW  Elec       q    Type
REMARK                         _______ _______ _______ _____ _____    ______ ____
ROOT
ATOM      1  N   UNL     1     -23.978  17.740   4.027  0.00  0.00    -0.354 N 
ATOM      2  N   UNL     1     -24.494  16.957   1.909  0.00  0.00    -0.372 N 
ATOM      3  N   UNL     1     -22.299  17.372   2.434  0.00  0.00    -0.372 N 
ATOM      4  C   UNL     1     -23.584  17.362   2.804  0.00  0.00    +0.166 C 
ATOM      5  H   UNL     1     -24.970  17.738   4.236  0.00  0.00    +0.163 HD
ATOM      6  H   UNL     1     -24.226  16.663   0.980  0.00  0.00    +0.159 HD
ATOM      7  H   UNL     1     -25.480  16.912   2.135  0.00  0.00    +0.159 HD
ATOM      8  H   UNL     1     -21.564  17.673   3.060  0.00  0.00    +0.159 HD
ATOM      9  H   UNL     1     -22.013  17.093   1.504  0.00  0.00    +0.159 HD
ENDROOT
BRANCH   1  10
ATOM     10  C   UNL     1     -23.062  18.146   5.092  0.00  0.00    +0.151 C 
BRANCH  10  11
ATOM     11  C   UNL     1     -23.678  19.281   5.863  0.00  0.00    -0.028 A 
ATOM     12  C   UNL     1     -24.968  19.160   6.398  0.00  0.00    +0.005 A 
ATOM     13  C   UNL     1     -22.974  20.478   6.065  0.00  0.00    +0.005 A 
ATOM     14  C   UNL     1     -25.529  20.203   7.140  0.00  0.00    +0.000 A 
ATOM     15  C   UNL     1     -23.537  21.517   6.806  0.00  0.00    +0.000 A 
ATOM     16  C   UNL     1     -24.814  21.378   7.345  0.00  0.00    +0.000 A 
ENDBRANCH  10  11
ENDBRANCH   1  10
TORSDOF 2
ENDMDL
MODEL 4
REMARK VINA RESULT:    -5.007     12.072     13.058
REMARK INTER + INTRA:          -5.727
REMARK INTER:                  -5.606
REMARK INTRA:                  -0.122
REMARK UNBOUND:                -0.135
REMARK  Name = 1550473
REMARK  2 active torsions:
REMARK  status: ('A' for Active; 'I' for Inactive)
REMARK    1  A    between atoms: N_1  and  C_4
REMARK    2  A    between atoms: C_4  and  C_5
REMARK                            x       y       z     vdW  Elec       q    Type
REMARK                         _______ _______ _______ _____ _____    ______ ____
ROOT
ATOM      1  N   UNL     1      -3.284   6.146 -13.369  0.00  0.00    -0.354 N 
ATOM      2  N   UNL     1      -1.500   6.086 -14.845  0.00  0.00    -0.372 N 
ATOM      3  N   UNL     1      -3.565   6.711 -15.626  0.00  0.00    -0.372 N 
ATOM      4  C   UNL     1      -2.797   6.315 -14.605  0.00  0.00    +0.166 C 
ATOM      5  H   UNL     1      -2.656   5.815 -12.645  0.00  0.00    +0.163 HD
ATOM      6  H   UNL     1      -1.103   6.208 -15.767  0.00  0.00    +0.159 HD
ATOM      7  H   UNL     1      -0.865   5.800 -14.109  0.00  0.00    +0.159 HD
ATOM      8  H   UNL     1      -4.553   6.894 -15.512  0.00  0.00    +0.159 HD
ATOM      9  H   UNL     1      -3.189   6.828 -16.558  0.00  0.00    +0.159 HD
ENDROOT
BRANCH   1  10
ATOM     10  C   UNL     1      -4.669   6.421 -12.991  0.00  0.00    +0.151 C 
BRANCH  10  11
ATOM     11  C   UNL     1      -4.725   6.729 -11.520  0.00  0.00    -0.028 A 
ATOM     12  C   UNL     1      -5.767   6.226 -10.726  0.00  0.00    +0.005 A 
ATOM     13  C   UNL     1      -3.737   7.519 -10.913  0.00  0.00    +0.005 A 
ATOM     14  C   UNL     1      -5.803   6.487  -9.355  0.00  0.00    +0.000 A 
ATOM     15  C   UNL     1      -3.777   7.778  -9.543  0.00  0.00    +0.000 A 
ATOM     16  C   UNL     1      -4.809   7.260  -8.764  0.00  0.00    +0.000 A 
ENDBRANCH  10  11
ENDBRANCH   1  10
TORSDOF 2
ENDMDL
MODEL 5
REMARK VINA RESULT:    -4.944      1.736      2.679
REMARK INTER + INTRA:          -5.657
REMARK INTER:                  -5.527
REMARK INTRA:                  -0.131
REMARK UNBOUND:                -0.135
REMARK  Name = 1550473
REMARK  2 active torsions:
REMARK  status: ('A' for Active; 'I' for Inactive)
REMARK    1  A    between atoms: N_1  and  C_4
REMARK    2  A    between atoms: C_4  and  C_5
REMARK                            x       y       z     vdW  Elec       q    Type
REMARK                         _______ _______ _______ _____ _____    ______ ____
ROOT
ATOM      1  N   UNL     1      -8.417  -2.316 -16.439  0.00  0.00    -0.354 N 
ATOM      2  N   UNL     1      -9.648  -0.400 -16.859  0.00  0.00    -0.372 N 
ATOM      3  N   UNL     1      -9.166  -1.813 -18.602  0.00  0.00    -0.372 N 
ATOM      4  C   UNL     1      -9.069  -1.523 -17.300  0.00  0.00    +0.166 C 
ATOM      5  H   UNL     1      -8.353  -2.025 -15.470  0.00  0.00    +0.163 HD
ATOM      6  H   UNL     1     -10.150   0.216 -17.485  0.00  0.00    +0.159 HD
ATOM      7  H   UNL     1      -9.622  -0.135 -15.882  0.00  0.00    +0.159 HD
ATOM      8  H   UNL     1      -8.745  -2.643 -18.999  0.00  0.00    +0.159 HD
ATOM      9  H   UNL     1      -9.654  -1.203 -19.246  0.00  0.00    +0.159 HD
ENDROOT
BRANCH   1  10
ATOM     10  C   UNL     1      -7.797  -3.588 -16.807  0.00  0.00    +0.151 C 
BRANCH  10  11
ATOM     11  C   UNL     1      -6.561  -3.791 -15.975  0.00  0.00    -0.028 A 
ATOM     12  C   UNL     1      -5.648  -4.807 -16.293  0.00  0.00    +0.005 A 
ATOM     13  C   UNL     1      -6.294  -2.967 -14.871  0.00  0.00    +0.005 A 
ATOM     14  C   UNL     1      -4.484  -4.977 -15.538  0.00  0.00    +0.000 A 
ATOM     15  C   UNL     1      -5.132  -3.140 -14.119  0.00  0.00    +0.000 A 
ATOM     16  C   UNL     1      -4.226  -4.144 -14.455  0.00  0.00    +0.000 A 
ENDBRANCH  10  11
ENDBRANCH   1  10
TORSDOF 2
ENDMDL
MODEL 6
REMARK VINA RESULT:    -4.673     12.963     14.029
REMARK INTER + INTRA:          -5.354
REMARK INTER:                  -5.214
REMARK INTRA:                  -0.140
REMARK UNBOUND:                -0.135
REMARK  Name = 1550473
REMARK  2 active torsions:
REMARK  status: ('A' for Active; 'I' for Inactive)
REMARK    1  A    between atoms: N_1  and  C_4
REMARK    2  A    between atoms: C_4  and  C_5
REMARK                            x       y       z     vdW  Elec       q    Type
REMARK                         _______ _______ _______ _____ _____    ______ ____
ROOT
ATOM      1  N   UNL     1      -4.021   8.411 -10.213  0.00  0.00    -0.354 N 
ATOM      2  N   UNL     1      -4.394   9.470  -8.187  0.00  0.00    -0.372 N 
ATOM      3  N   UNL     1      -2.986   7.659  -8.249  0.00  0.00    -0.372 N 
ATOM      4  C   UNL     1      -3.796   8.504  -8.895  0.00  0.00    +0.166 C 
ATOM      5  H   UNL     1      -4.670   9.064 -10.638  0.00  0.00    +0.163 HD
ATOM      6  H   UNL     1      -4.241   9.567  -7.192  0.00  0.00    +0.159 HD
ATOM      7  H   UNL     1      -5.006  10.149  -8.622  0.00  0.00    +0.159 HD
ATOM      8  H   UNL     1      -2.510   6.905  -8.726  0.00  0.00    +0.159 HD
ATOM      9  H   UNL     1      -2.829   7.733  -7.252  0.00  0.00    +0.159 HD
ENDROOT
BRANCH   1  10
ATOM     10  C   UNL     1      -3.378   7.430 -11.085  0.00  0.00    +0.151 C 
BRANCH  10  11
ATOM     11  C   UNL     1      -4.425   6.775 -11.943  0.00  0.00    -0.028 A 
ATOM     12  C   UNL     1      -5.736   6.614 -11.470  0.00  0.00    +0.005 A 
ATOM     13  C   UNL     1      -4.114   6.319 -13.234  0.00  0.00    +0.005 A 
ATOM     14  C   UNL     1      -6.716   6.034 -12.279  0.00  0.00    +0.000 A 
ATOM     15  C   UNL     1      -5.095   5.739 -14.038  0.00  0.00    +0.000 A 
ATOM     16  C   UNL     1      -6.396   5.599 -13.561  0.00  0.00    +0.000 A 
ENDBRANCH  10  11
ENDBRANCH   1  10
TORSDOF 2
ENDMDL
MODEL 7
REMARK VINA RESULT:    -4.670     29.178     30.848
REMARK INTER + INTRA:          -5.351
REMARK INTER:                  -5.222
REMARK INTRA:                  -0.129
REMARK UNBOUND:                -0.135
REMARK  Name = 1550473
REMARK  2 active torsions:
REMARK  status: ('A' for Active; 'I' for Inactive)
REMARK    1  A    between atoms: N_1  and  C_4
REMARK    2  A    between atoms: C_4  and  C_5
REMARK                            x       y       z     vdW  Elec       q    Type
REMARK                         _______ _______ _______ _____ _____    ______ ____
ROOT
ATOM      1  N   UNL     1      14.132   6.073   4.089  0.00  0.00    -0.354 N 
ATOM      2  N   UNL     1      14.949   7.538   5.686  0.00  0.00    -0.372 N 
ATOM      3  N   UNL     1      16.336   5.902   4.868  0.00  0.00    -0.372 N 
ATOM      4  C   UNL     1      15.136   6.493   4.871  0.00  0.00    +0.166 C 
ATOM      5  H   UNL     1      13.238   6.544   4.159  0.00  0.00    +0.163 HD
ATOM      6  H   UNL     1      15.689   7.879   6.285  0.00  0.00    +0.159 HD
ATOM      7  H   UNL     1      14.068   8.036   5.721  0.00  0.00    +0.159 HD
ATOM      8  H   UNL     1      16.539   5.105   4.280  0.00  0.00    +0.159 HD
ATOM      9  H   UNL     1      17.085   6.222   5.469  0.00  0.00    +0.159 HD
ENDROOT
BRANCH   1  10
ATOM     10  C   UNL     1      14.248   4.978   3.127  0.00  0.00    +0.151 C 
BRANCH  10  11
ATOM     11  C   UNL     1      13.235   5.177   2.033  0.00  0.00    -0.028 A 
ATOM     12  C   UNL     1      12.380   6.288   2.048  0.00  0.00    +0.005 A 
ATOM     13  C   UNL     1      13.129   4.259   0.977  0.00  0.00    +0.005 A 
ATOM     14  C   UNL     1      11.459   6.489   1.016  0.00  0.00    +0.000 A 
ATOM     15  C   UNL     1      12.207   4.462  -0.051  0.00  0.00    +0.000 A 
ATOM     16  C   UNL     1      11.375   5.578  -0.032  0.00  0.00    +0.000 A 
ENDBRANCH  10  11
ENDBRANCH   1  10
TORSDOF 2
ENDMDL
MODEL 8
REMARK VINA RESULT:    -4.664     12.199     13.141
REMARK INTER + INTRA:          -5.344
REMARK INTER:                  -5.232
REMARK INTRA:                  -0.113
REMARK UNBOUND:                -0.135
REMARK  Name = 1550473
REMARK  2 active torsions:
REMARK  status: ('A' for Active; 'I' for Inactive)
REMARK    1  A    between atoms: N_1  and  C_4
REMARK    2  A    between atoms: C_4  and  C_5
REMARK                            x       y       z     vdW  Elec       q    Type
REMARK                         _______ _______ _______ _____ _____    ______ ____
ROOT
ATOM      1  N   UNL     1      -7.233   6.450 -12.048  0.00  0.00    -0.354 N 
ATOM      2  N   UNL     1      -9.298   6.327 -13.090  0.00  0.00    -0.372 N 
ATOM      3  N   UNL     1      -7.641   4.876 -13.736  0.00  0.00    -0.372 N 
ATOM      4  C   UNL     1      -8.042   5.884 -12.953  0.00  0.00    +0.166 C 
ATOM      5  H   UNL     1      -7.588   7.230 -11.506  0.00  0.00    +0.163 HD
ATOM      6  H   UNL     1      -9.932   5.917 -13.762  0.00  0.00    +0.159 HD
ATOM      7  H   UNL     1      -9.664   7.076 -12.516  0.00  0.00    +0.159 HD
ATOM      8  H   UNL     1      -6.704   4.500 -13.686  0.00  0.00    +0.159 HD
ATOM      9  H   UNL     1      -8.258   4.461 -14.422  0.00  0.00    +0.159 HD
ENDROOT
BRANCH   1  10
ATOM     10  C   UNL     1      -5.866   6.006 -11.782  0.00  0.00    +0.151 C 
BRANCH  10  11
ATOM     11  C   UNL     1      -5.182   7.019 -10.906  0.00  0.00    -0.028 A 
ATOM     12  C   UNL     1      -5.901   7.706  -9.917  0.00  0.00    +0.005 A 
ATOM     13  C   UNL     1      -3.814   7.293 -11.057  0.00  0.00    +0.005 A 
ATOM     14  C   UNL     1      -5.259   8.625  -9.083  0.00  0.00    +0.000 A 
ATOM     15  C   UNL     1      -3.177   8.212 -10.223  0.00  0.00    +0.000 A 
ATOM     16  C   UNL     1      -3.900   8.876  -9.235  0.00  0.00    +0.000 A 
ENDBRANCH  10  11
ENDBRANCH   1  10
TORSDOF 2
ENDMDL
MODEL 9
REMARK VINA RESULT:    -4.458     42.531     43.938
REMARK INTER + INTRA:          -5.114
REMARK INTER:                  -4.957
REMARK INTRA:                  -0.157
REMARK UNBOUND:                -0.135
REMARK  Name = 1550473
REMARK  2 active torsions:
REMARK  status: ('A' for Active; 'I' for Inactive)
REMARK    1  A    between atoms: N_1  and  C_4
REMARK    2  A    between atoms: C_4  and  C_5
REMARK                            x       y       z     vdW  Elec       q    Type
REMARK                         _______ _______ _______ _____ _____    ______ ____
ROOT
ATOM      1  N   UNL     1      14.748  15.888  14.847  0.00  0.00    -0.354 N 
ATOM      2  N   UNL     1      16.169  17.716  14.902  0.00  0.00    -0.372 N 
ATOM      3  N   UNL     1      16.084  16.322  16.723  0.00  0.00    -0.372 N 
ATOM      4  C   UNL     1      15.658  16.629  15.493  0.00  0.00    +0.166 C 
ATOM      5  H   UNL     1      14.444  16.192  13.929  0.00  0.00    +0.163 HD
ATOM      6  H   UNL     1      16.860  18.292  15.363  0.00  0.00    +0.159 HD
ATOM      7  H   UNL     1      15.898  17.991  13.966  0.00  0.00    +0.159 HD
ATOM      8  H   UNL     1      15.733  15.518  17.226  0.00  0.00    +0.159 HD
ATOM      9  H   UNL     1      16.767  16.893  17.205  0.00  0.00    +0.159 HD
ENDROOT
BRANCH   1  10
ATOM     10  C   UNL     1      14.169  14.656  15.380  0.00  0.00    +0.151 C 
BRANCH  10  11
ATOM     11  C   UNL     1      12.716  14.890  15.691  0.00  0.00    -0.028 A 
ATOM     12  C   UNL     1      11.821  15.254  14.674  0.00  0.00    +0.005 A 
ATOM     13  C   UNL     1      12.228  14.744  16.998  0.00  0.00    +0.005 A 
ATOM     14  C   UNL     1      10.465  15.442  14.957  0.00  0.00    +0.000 A 
ATOM     15  C   UNL     1      10.874  14.933  17.276  0.00  0.00    +0.000 A 
ATOM     16  C   UNL     1       9.993  15.280  16.255  0.00  0.00    +0.000 A 
ENDBRANCH  10  11
ENDBRANCH   1  10
TORSDOF 2
ENDMDL
