MODEL 1
REMARK VINA RESULT:    -5.255      0.000      0.000
REMARK INTER + INTRA:          -5.987
REMARK INTER:                  -5.869
REMARK INTRA:                  -0.118
REMARK UNBOUND:                -0.118
REMARK  Name = 1550473
REMARK  2 active torsions:
REMARK  status: ('A' for Active; 'I' for Inactive)
REMARK    1  A    between atoms: N_1  and  C_4
REMARK    2  A    between atoms: C_4  and  C_5
REMARK                            x       y       z     vdW  Elec       q    Type
REMARK                         _______ _______ _______ _____ _____    ______ ____
ROOT
ATOM      1  N   UNL     1      12.099   3.128 -18.055  0.00  0.00    -0.354 N 
ATOM      2  N   UNL     1      11.724   4.812 -19.599  0.00  0.00    -0.372 N 
ATOM      3  N   UNL     1       9.921   3.780 -18.625  0.00  0.00    -0.372 N 
ATOM      4  C   UNL     1      11.248   3.895 -18.749  0.00  0.00    +0.166 C 
ATOM      5  H   UNL     1      13.093   3.243 -18.217  0.00  0.00    +0.163 HD
ATOM      6  H   UNL     1      11.106   5.408 -20.134  0.00  0.00    +0.159 HD
ATOM      7  H   UNL     1      12.718   4.957 -19.725  0.00  0.00    +0.159 HD
ATOM      8  H   UNL     1       9.498   3.103 -18.004  0.00  0.00    +0.159 HD
ATOM      9  H   UNL     1       9.286   4.359 -19.160  0.00  0.00    +0.159 HD
ENDROOT
BRANCH   1  10
ATOM     10  C   UNL     1      11.684   2.136 -17.064  0.00  0.00    +0.151 C 
BRANCH  10  11
ATOM     11  C   UNL     1      12.059   0.765 -17.555  0.00  0.00    -0.028 A 
ATOM     12  C   UNL     1      11.793   0.385 -18.878  0.00  0.00    +0.005 A 
ATOM     13  C   UNL     1      12.687  -0.157 -16.702  0.00  0.00    +0.005 A 
ATOM     14  C   UNL     1      12.169  -0.878 -19.342  0.00  0.00    +0.000 A 
ATOM     15  C   UNL     1      13.059  -1.417 -17.169  0.00  0.00    +0.000 A 
ATOM     16  C   UNL     1      12.803  -1.776 -18.490  0.00  0.00    +0.000 A 
ENDBRANCH  10  11
ENDBRANCH   1  10
TORSDOF 2
ENDMDL
MODEL 2
REMARK VINA RESULT:    -5.235     21.899     23.167
REMARK INTER + INTRA:          -5.965
REMARK INTER:                  -5.870
REMARK INTRA:                  -0.094
REMARK UNBOUND:                -0.118
REMARK  Name = 1550473
REMARK  2 active torsions:
REMARK  status: ('A' for Active; 'I' for Inactive)
REMARK    1  A    between atoms: N_1  and  C_4
REMARK    2  A    between atoms: C_4  and  C_5
REMARK                            x       y       z     vdW  Elec       q    Type
REMARK                         _______ _______ _______ _____ _____    ______ ____
ROOT
ATOM      1  N   UNL     1      13.991  17.215   0.457  0.00  0.00    -0.354 N 
ATOM      2  N   UNL     1      14.714  19.189   1.428  0.00  0.00    -0.372 N 
ATOM      3  N   UNL     1      13.336  17.803   2.629  0.00  0.00    -0.372 N 
ATOM      4  C   UNL     1      14.007  18.055   1.500  0.00  0.00    +0.166 C 
ATOM      5  H   UNL     1      14.496  17.479  -0.381  0.00  0.00    +0.163 HD
ATOM      6  H   UNL     1      14.748  19.841   2.200  0.00  0.00    +0.159 HD
ATOM      7  H   UNL     1      15.255  19.428   0.606  0.00  0.00    +0.159 HD
ATOM      8  H   UNL     1      12.778  16.967   2.745  0.00  0.00    +0.159 HD
ATOM      9  H   UNL     1      13.348  18.448   3.409  0.00  0.00    +0.159 HD
ENDROOT
BRANCH   1  10
ATOM     10  C   UNL     1      13.296  15.929   0.454  0.00  0.00    +0.151 C 
BRANCH  10  11
ATOM     11  C   UNL     1      13.747  15.130  -0.738  0.00  0.00    -0.028 A 
ATOM     12  C   UNL     1      13.352  15.497  -2.032  0.00  0.00    +0.005 A 
ATOM     13  C   UNL     1      14.575  14.008  -0.579  0.00  0.00    +0.005 A 
ATOM     14  C   UNL     1      13.795  14.773  -3.142  0.00  0.00    +0.000 A 
ATOM     15  C   UNL     1      15.015  13.287  -1.689  0.00  0.00    +0.000 A 
ATOM     16  C   UNL     1      14.626  13.671  -2.970  0.00  0.00    +0.000 A 
ENDBRANCH  10  11
ENDBRANCH   1  10
TORSDOF 2
ENDMDL
MODEL 3
REMARK VINA RESULT:    -5.064      1.589      2.261
REMARK INTER + INTRA:          -5.774
REMARK INTER:                  -5.643
REMARK INTRA:                  -0.131
REMARK UNBOUND:                -0.118
REMARK  Name = 1550473
REMARK  2 active torsions:
REMARK  status: ('A' for Active; 'I' for Inactive)
REMARK    1  A    between atoms: N_1  and  C_4
REMARK    2  A    between atoms: C_4  and  C_5
REMARK                            x       y       z     vdW  Elec       q    Type
REMARK                         _______ _______ _______ _____ _____    ______ ____
ROOT
ATOM      1  N   UNL     1      11.703   2.931 -17.035  0.00  0.00    -0.354 N 
ATOM      2  N   UNL     1      11.876   5.231 -17.249  0.00  0.00    -0.372 N 
ATOM      3  N   UNL     1      13.796   3.980 -17.139  0.00  0.00    -0.372 N 
ATOM      4  C   UNL     1      12.460   4.031 -17.139  0.00  0.00    +0.166 C 
ATOM      5  H   UNL     1      10.695   3.041 -17.011  0.00  0.00    +0.163 HD
ATOM      6  H   UNL     1      12.421   6.078 -17.333  0.00  0.00    +0.159 HD
ATOM      7  H   UNL     1      10.869   5.333 -17.271  0.00  0.00    +0.159 HD
ATOM      8  H   UNL     1      14.298   3.106 -17.053  0.00  0.00    +0.159 HD
ATOM      9  H   UNL     1      14.359   4.818 -17.210  0.00  0.00    +0.159 HD
ENDROOT
BRANCH   1  10
ATOM     10  C   UNL     1      12.239   1.573 -16.965  0.00  0.00    +0.151 C 
BRANCH  10  11
ATOM     11  C   UNL     1      11.873   0.835 -18.223  0.00  0.00    -0.028 A 
ATOM     12  C   UNL     1      10.986   1.402 -19.149  0.00  0.00    +0.005 A 
ATOM     13  C   UNL     1      12.415  -0.430 -18.497  0.00  0.00    +0.005 A 
ATOM     14  C   UNL     1      10.669   0.730 -20.332  0.00  0.00    +0.000 A 
ATOM     15  C   UNL     1      12.096  -1.099 -19.679  0.00  0.00    +0.000 A 
ATOM     16  C   UNL     1      11.224  -0.517 -20.597  0.00  0.00    +0.000 A 
ENDBRANCH  10  11
ENDBRANCH   1  10
TORSDOF 2
ENDMDL
MODEL 4
REMARK VINA RESULT:    -4.883      1.320      2.296
REMARK INTER + INTRA:          -5.572
REMARK INTER:                  -5.597
REMARK INTRA:                   0.025
REMARK UNBOUND:                -0.118
REMARK  Name = 1550473
REMARK  2 active torsions:
REMARK  status: ('A' for Active; 'I' for Inactive)
REMARK    1  A    between atoms: N_1  and  C_4
REMARK    2  A    between atoms: C_4  and  C_5
REMARK                            x       y       z     vdW  Elec       q    Type
REMARK                         _______ _______ _______ _____ _____    ______ ____
ROOT
ATOM      1  N   UNL     1      11.503   3.436 -17.795  0.00  0.00    -0.354 N 
ATOM      2  N   UNL     1      12.177   5.098 -16.328  0.00  0.00    -0.372 N 
ATOM      3  N   UNL     1      13.658   4.349 -17.913  0.00  0.00    -0.372 N 
ATOM      4  C   UNL     1      12.444   4.283 -17.356  0.00  0.00    +0.166 C 
ATOM      5  H   UNL     1      10.613   3.413 -17.311  0.00  0.00    +0.163 HD
ATOM      6  H   UNL     1      12.865   5.750 -15.978  0.00  0.00    +0.159 HD
ATOM      7  H   UNL     1      11.270   5.105 -15.876  0.00  0.00    +0.159 HD
ATOM      8  H   UNL     1      13.925   3.757 -18.688  0.00  0.00    +0.159 HD
ATOM      9  H   UNL     1      14.365   4.987 -17.568  0.00  0.00    +0.159 HD
ENDROOT
BRANCH   1  10
ATOM     10  C   UNL     1      11.675   2.546 -18.941  0.00  0.00    +0.151 C 
BRANCH  10  11
ATOM     11  C   UNL     1      12.053   1.176 -18.447  0.00  0.00    -0.028 A 
ATOM     12  C   UNL     1      12.369   0.969 -17.097  0.00  0.00    +0.005 A 
ATOM     13  C   UNL     1      12.091   0.081 -19.324  0.00  0.00    +0.005 A 
ATOM     14  C   UNL     1      12.691  -0.308 -16.631  0.00  0.00    +0.000 A 
ATOM     15  C   UNL     1      12.414  -1.193 -18.855  0.00  0.00    +0.000 A 
ATOM     16  C   UNL     1      12.711  -1.387 -17.509  0.00  0.00    +0.000 A 
ENDBRANCH  10  11
ENDBRANCH   1  10
TORSDOF 2
ENDMDL
MODEL 5
REMARK VINA RESULT:    -4.824     13.249     14.177
REMARK INTER + INTRA:          -5.505
REMARK INTER:                  -5.379
REMARK INTRA:                  -0.127
REMARK UNBOUND:                -0.118
REMARK  Name = 1550473
REMARK  2 active torsions:
REMARK  status: ('A' for Active; 'I' for Inactive)
REMARK    1  A    between atoms: N_1  and  C_4
REMARK    2  A    between atoms: C_4  and  C_5
REMARK                            x       y       z     vdW  Elec       q    Type
REMARK                         _______ _______ _______ _____ _____    ______ ____
ROOT
ATOM      1  N   UNL     1      11.154  -7.960  -8.333  0.00  0.00    -0.354 N 
ATOM      2  N   UNL     1      13.412  -8.230  -7.895  0.00  0.00    -0.372 N 
ATOM      3  N   UNL     1      12.014 -10.035  -7.666  0.00  0.00    -0.372 N 
ATOM      4  C   UNL     1      12.178  -8.742  -7.967  0.00  0.00    +0.166 C 
ATOM      5  H   UNL     1      11.340  -6.981  -8.520  0.00  0.00    +0.163 HD
ATOM      6  H   UNL     1      14.205  -8.797  -7.625  0.00  0.00    +0.159 HD
ATOM      7  H   UNL     1      13.602  -7.263  -8.126  0.00  0.00    +0.159 HD
ATOM      8  H   UNL     1      11.107 -10.481  -7.695  0.00  0.00    +0.159 HD
ATOM      9  H   UNL     1      12.793 -10.616  -7.382  0.00  0.00    +0.159 HD
ENDROOT
BRANCH   1  10
ATOM     10  C   UNL     1       9.780  -8.432  -8.495  0.00  0.00    +0.151 C 
BRANCH  10  11
ATOM     11  C   UNL     1       8.847  -7.254  -8.446  0.00  0.00    -0.028 A 
ATOM     12  C   UNL     1       9.292  -6.012  -7.971  0.00  0.00    +0.005 A 
ATOM     13  C   UNL     1       7.517  -7.372  -8.879  0.00  0.00    +0.005 A 
ATOM     14  C   UNL     1       8.434  -4.909  -7.954  0.00  0.00    +0.000 A 
ATOM     15  C   UNL     1       6.664  -6.269  -8.860  0.00  0.00    +0.000 A 
ATOM     16  C   UNL     1       7.123  -5.038  -8.400  0.00  0.00    +0.000 A 
ENDBRANCH  10  11
ENDBRANCH   1  10
TORSDOF 2
ENDMDL
MODEL 6
REMARK VINA RESULT:    -4.801      9.983     11.136
REMARK INTER + INTRA:          -5.480
REMARK INTER:                  -5.345
REMARK INTRA:                  -0.135
REMARK UNBOUND:                -0.118
REMARK  Name = 1550473
REMARK  2 active torsions:
REMARK  status: ('A' for Active; 'I' for Inactive)
REMARK    1  A    between atoms: N_1  and  C_4
REMARK    2  A    between atoms: C_4  and  C_5
REMARK                            x       y       z     vdW  Elec       q    Type
REMARK                         _______ _______ _______ _____ _____    ______ ____
ROOT
ATOM      1  N   UNL     1      13.188  -1.426  -7.782  0.00  0.00    -0.354 N 
ATOM      2  N   UNL     1      12.720   0.802  -7.360  0.00  0.00    -0.372 N 
ATOM      3  N   UNL     1      13.121   0.143  -9.521  0.00  0.00    -0.372 N 
ATOM      4  C   UNL     1      13.013  -0.175  -8.226  0.00  0.00    +0.166 C 
ATOM      5  H   UNL     1      13.123  -1.597  -6.785  0.00  0.00    +0.163 HD
ATOM      6  H   UNL     1      12.579   1.755  -7.666  0.00  0.00    +0.159 HD
ATOM      7  H   UNL     1      12.610   0.621  -6.369  0.00  0.00    +0.159 HD
ATOM      8  H   UNL     1      13.346  -0.547 -10.225  0.00  0.00    +0.159 HD
ATOM      9  H   UNL     1      12.995   1.094  -9.845  0.00  0.00    +0.159 HD
ENDROOT
BRANCH   1  10
ATOM     10  C   UNL     1      13.458  -2.572  -8.649  0.00  0.00    +0.151 C 
BRANCH  10  11
ATOM     11  C   UNL     1      12.473  -3.665  -8.339  0.00  0.00    -0.028 A 
ATOM     12  C   UNL     1      12.848  -4.755  -7.540  0.00  0.00    +0.005 A 
ATOM     13  C   UNL     1      11.162  -3.614  -8.836  0.00  0.00    +0.005 A 
ATOM     14  C   UNL     1      11.925  -5.756  -7.226  0.00  0.00    +0.000 A 
ATOM     15  C   UNL     1      10.243  -4.616  -8.521  0.00  0.00    +0.000 A 
ATOM     16  C   UNL     1      10.625  -5.685  -7.714  0.00  0.00    +0.000 A 
ENDBRANCH  10  11
ENDBRANCH   1  10
TORSDOF 2
ENDMDL
MODEL 7
REMARK VINA RESULT:    -4.631      2.980      3.705
REMARK INTER + INTRA:          -5.290
REMARK INTER:                  -5.178
REMARK INTRA:                  -0.112
REMARK UNBOUND:                -0.118
REMARK  Name = 1550473
REMARK  2 active torsions:
REMARK  status: ('A' for Active; 'I' for Inactive)
REMARK    1  A    between atoms: N_1  and  C_4
REMARK    2  A    between atoms: C_4  and  C_5
REMARK                            x       y       z     vdW  Elec       q    Type
REMARK                         _______ _______ _______ _____ _____    ______ ____
ROOT
ATOM      1  N   UNL     1      10.776   1.735 -21.666  0.00  0.00    -0.354 N 
ATOM      2  N   UNL     1      10.310   3.044 -23.518  0.00  0.00    -0.372 N 
ATOM      3  N   UNL     1       9.357   0.963 -23.363  0.00  0.00    -0.372 N 
ATOM      4  C   UNL     1      10.149   1.903 -22.838  0.00  0.00    +0.166 C 
ATOM      5  H   UNL     1      11.387   2.474 -21.336  0.00  0.00    +0.163 HD
ATOM      6  H   UNL     1       9.847   3.201 -24.404  0.00  0.00    +0.159 HD
ATOM      7  H   UNL     1      10.884   3.800 -23.165  0.00  0.00    +0.159 HD
ATOM      8  H   UNL     1       9.200   0.076 -22.902  0.00  0.00    +0.159 HD
ATOM      9  H   UNL     1       8.895   1.096 -24.254  0.00  0.00    +0.159 HD
ENDROOT
BRANCH   1  10
ATOM     10  C   UNL     1      10.626   0.552 -20.820  0.00  0.00    +0.151 C 
BRANCH  10  11
ATOM     11  C   UNL     1      11.173   0.853 -19.452  0.00  0.00    -0.028 A 
ATOM     12  C   UNL     1      10.825   2.040 -18.791  0.00  0.00    +0.005 A 
ATOM     13  C   UNL     1      12.037  -0.047 -18.809  0.00  0.00    +0.005 A 
ATOM     14  C   UNL     1      11.309   2.307 -17.508  0.00  0.00    +0.000 A 
ATOM     15  C   UNL     1      12.519   0.223 -17.528  0.00  0.00    +0.000 A 
ATOM     16  C   UNL     1      12.152   1.399 -16.877  0.00  0.00    +0.000 A 
ENDBRANCH  10  11
ENDBRANCH   1  10
TORSDOF 2
ENDMDL
MODEL 8
REMARK VINA RESULT:    -4.608      7.638      8.723
REMARK INTER + INTRA:          -5.264
REMARK INTER:                  -5.111
REMARK INTRA:                  -0.152
REMARK UNBOUND:                -0.118
REMARK  Name = 1550473
REMARK  2 active torsions:
REMARK  status: ('A' for Active; 'I' for Inactive)
REMARK    1  A    between atoms: N_1  and  C_4
REMARK    2  A    between atoms: C_4  and  C_5
REMARK                            x       y       z     vdW  Elec       q    Type
REMARK                         _______ _______ _______ _____ _____    ______ ____
ROOT
ATOM      1  N   UNL     1       4.530   5.209 -15.495  0.00  0.00    -0.354 N 
ATOM      2  N   UNL     1       5.233   7.319 -14.849  0.00  0.00    -0.372 N 
ATOM      3  N   UNL     1       3.158   6.591 -14.192  0.00  0.00    -0.372 N 
ATOM      4  C   UNL     1       4.300   6.359 -14.848  0.00  0.00    +0.166 C 
ATOM      5  H   UNL     1       5.403   5.106 -16.000  0.00  0.00    +0.163 HD
ATOM      6  H   UNL     1       5.089   8.196 -14.366  0.00  0.00    +0.159 HD
ATOM      7  H   UNL     1       6.124   7.196 -15.315  0.00  0.00    +0.159 HD
ATOM      8  H   UNL     1       2.411   5.910 -14.158  0.00  0.00    +0.159 HD
ATOM      9  H   UNL     1       2.991   7.468 -13.713  0.00  0.00    +0.159 HD
ENDROOT
BRANCH   1  10
ATOM     10  C   UNL     1       3.601   4.080 -15.511  0.00  0.00    +0.151 C 
BRANCH  10  11
ATOM     11  C   UNL     1       4.256   2.896 -14.856  0.00  0.00    -0.028 A 
ATOM     12  C   UNL     1       4.071   2.645 -13.489  0.00  0.00    +0.005 A 
ATOM     13  C   UNL     1       5.059   2.016 -15.599  0.00  0.00    +0.005 A 
ATOM     14  C   UNL     1       4.654   1.528 -12.886  0.00  0.00    +0.000 A 
ATOM     15  C   UNL     1       5.641   0.903 -14.993  0.00  0.00    +0.000 A 
ATOM     16  C   UNL     1       5.437   0.658 -13.637  0.00  0.00    +0.000 A 
ENDBRANCH  10  11
ENDBRANCH   1  10
TORSDOF 2
ENDMDL
MODEL 9
REMARK VINA RESULT:    -4.462     21.785     23.052
REMARK INTER + INTRA:          -5.101
REMARK INTER:                  -4.970
REMARK INTRA:                  -0.130
REMARK UNBOUND:                -0.118
REMARK  Name = 1550473
REMARK  2 active torsions:
REMARK  status: ('A' for Active; 'I' for Inactive)
REMARK    1  A    between atoms: N_1  and  C_4
REMARK    2  A    between atoms: C_4  and  C_5
REMARK                            x       y       z     vdW  Elec       q    Type
REMARK                         _______ _______ _______ _____ _____    ______ ____
ROOT
ATOM      1  N   UNL     1      12.264  18.101  -1.179  0.00  0.00    -0.354 N 
ATOM      2  N   UNL     1      10.966  19.648  -0.045  0.00  0.00    -0.372 N 
ATOM      3  N   UNL     1      12.863  20.365  -1.119  0.00  0.00    -0.372 N 
ATOM      4  C   UNL     1      12.042  19.363  -0.789  0.00  0.00    +0.166 C 
ATOM      5  H   UNL     1      11.619  17.381  -0.871  0.00  0.00    +0.163 HD
ATOM      6  H   UNL     1      10.771  20.592   0.261  0.00  0.00    +0.159 HD
ATOM      7  H   UNL     1      10.299  18.935   0.223  0.00  0.00    +0.159 HD
ATOM      8  H   UNL     1      13.696  20.215  -1.673  0.00  0.00    +0.159 HD
ATOM      9  H   UNL     1      12.691  21.315  -0.812  0.00  0.00    +0.159 HD
ENDROOT
BRANCH   1  10
ATOM     10  C   UNL     1      13.376  17.693  -2.036  0.00  0.00    +0.151 C 
BRANCH  10  11
ATOM     11  C   UNL     1      13.736  16.266  -1.727  0.00  0.00    -0.028 A 
ATOM     12  C   UNL     1      14.745  15.614  -2.451  0.00  0.00    +0.005 A 
ATOM     13  C   UNL     1      13.077  15.562  -0.707  0.00  0.00    +0.005 A 
ATOM     14  C   UNL     1      15.100  14.298  -2.145  0.00  0.00    +0.000 A 
ATOM     15  C   UNL     1      13.434  14.249  -0.405  0.00  0.00    +0.000 A 
ATOM     16  C   UNL     1      14.448  13.618  -1.122  0.00  0.00    +0.000 A 
ENDBRANCH  10  11
ENDBRANCH   1  10
TORSDOF 2
ENDMDL
