MODEL 1
REMARK VINA RESULT:    -5.014      0.000      0.000
REMARK INTER + INTRA:          -5.752
REMARK INTER:                  -5.600
REMARK INTRA:                  -0.152
REMARK UNBOUND:                -0.152
REMARK  Name = 1550473
REMARK  2 active torsions:
REMARK  status: ('A' for Active; 'I' for Inactive)
REMARK    1  A    between atoms: N_1  and  C_4
REMARK    2  A    between atoms: C_4  and  C_5
REMARK                            x       y       z     vdW  Elec       q    Type
REMARK                         _______ _______ _______ _____ _____    ______ ____
ROOT
ATOM      1  N   UNL     1      17.436  -8.128  -1.345  0.00  0.00    -0.354 N 
ATOM      2  N   UNL     1      15.320  -9.069  -1.374  0.00  0.00    -0.372 N 
ATOM      3  N   UNL     1      15.668  -7.090  -2.482  0.00  0.00    -0.372 N 
ATOM      4  C   UNL     1      16.154  -8.087  -1.735  0.00  0.00    +0.166 C 
ATOM      5  H   UNL     1      17.735  -8.895  -0.755  0.00  0.00    +0.163 HD
ATOM      6  H   UNL     1      14.349  -9.067  -1.656  0.00  0.00    +0.159 HD
ATOM      7  H   UNL     1      15.633  -9.858  -0.822  0.00  0.00    +0.159 HD
ATOM      8  H   UNL     1      16.245  -6.316  -2.783  0.00  0.00    +0.159 HD
ATOM      9  H   UNL     1      14.696  -7.065  -2.765  0.00  0.00    +0.159 HD
ENDROOT
BRANCH   1  10
ATOM     10  C   UNL     1      18.439  -7.136  -1.729  0.00  0.00    +0.151 C 
BRANCH  10  11
ATOM     11  C   UNL     1      18.863  -6.368  -0.508  0.00  0.00    -0.028 A 
ATOM     12  C   UNL     1      19.025  -7.020   0.723  0.00  0.00    +0.005 A 
ATOM     13  C   UNL     1      19.109  -4.988  -0.576  0.00  0.00    +0.005 A 
ATOM     14  C   UNL     1      19.448  -6.313   1.851  0.00  0.00    +0.000 A 
ATOM     15  C   UNL     1      19.530  -4.285   0.552  0.00  0.00    +0.000 A 
ATOM     16  C   UNL     1      19.702  -4.948   1.765  0.00  0.00    +0.000 A 
ENDBRANCH  10  11
ENDBRANCH   1  10
TORSDOF 2
ENDMDL
MODEL 2
REMARK VINA RESULT:    -4.868     15.777     16.872
REMARK INTER + INTRA:          -5.589
REMARK INTER:                  -5.449
REMARK INTRA:                  -0.140
REMARK UNBOUND:                -0.152
REMARK  Name = 1550473
REMARK  2 active torsions:
REMARK  status: ('A' for Active; 'I' for Inactive)
REMARK    1  A    between atoms: N_1  and  C_4
REMARK    2  A    between atoms: C_4  and  C_5
REMARK                            x       y       z     vdW  Elec       q    Type
REMARK                         _______ _______ _______ _____ _____    ______ ____
ROOT
ATOM      1  N   UNL     1       5.413   1.224  -8.697  0.00  0.00    -0.354 N 
ATOM      2  N   UNL     1       3.332   0.299  -9.121  0.00  0.00    -0.372 N 
ATOM      3  N   UNL     1       5.088  -1.096  -8.634  0.00  0.00    -0.372 N 
ATOM      4  C   UNL     1       4.626   0.146  -8.815  0.00  0.00    +0.166 C 
ATOM      5  H   UNL     1       5.010   2.136  -8.875  0.00  0.00    +0.163 HD
ATOM      6  H   UNL     1       2.714  -0.495  -9.214  0.00  0.00    +0.159 HD
ATOM      7  H   UNL     1       2.921   1.215  -9.254  0.00  0.00    +0.159 HD
ATOM      8  H   UNL     1       6.056  -1.280  -8.407  0.00  0.00    +0.159 HD
ATOM      9  H   UNL     1       4.486  -1.905  -8.734  0.00  0.00    +0.159 HD
ENDROOT
BRANCH   1  10
ATOM     10  C   UNL     1       6.823   1.169  -8.313  0.00  0.00    +0.151 C 
BRANCH  10  11
ATOM     11  C   UNL     1       7.627   1.994  -9.280  0.00  0.00    -0.028 A 
ATOM     12  C   UNL     1       7.197   2.159 -10.604  0.00  0.00    +0.005 A 
ATOM     13  C   UNL     1       8.817   2.618  -8.875  0.00  0.00    +0.005 A 
ATOM     14  C   UNL     1       7.928   2.950 -11.494  0.00  0.00    +0.000 A 
ATOM     15  C   UNL     1       9.544   3.406  -9.767  0.00  0.00    +0.000 A 
ATOM     16  C   UNL     1       9.098   3.574 -11.075  0.00  0.00    +0.000 A 
ENDBRANCH  10  11
ENDBRANCH   1  10
TORSDOF 2
ENDMDL
MODEL 3
REMARK VINA RESULT:    -4.665     16.194     16.916
REMARK INTER + INTRA:          -5.362
REMARK INTER:                  -5.269
REMARK INTRA:                  -0.094
REMARK UNBOUND:                -0.152
REMARK  Name = 1550473
REMARK  2 active torsions:
REMARK  status: ('A' for Active; 'I' for Inactive)
REMARK    1  A    between atoms: N_1  and  C_4
REMARK    2  A    between atoms: C_4  and  C_5
REMARK                            x       y       z     vdW  Elec       q    Type
REMARK                         _______ _______ _______ _____ _____    ______ ____
ROOT
ATOM      1  N   UNL     1       4.230   0.025  -8.634  0.00  0.00    -0.354 N 
ATOM      2  N   UNL     1       2.019   0.136  -7.953  0.00  0.00    -0.372 N 
ATOM      3  N   UNL     1       3.044  -1.914  -8.062  0.00  0.00    -0.372 N 
ATOM      4  C   UNL     1       3.113  -0.588  -8.221  0.00  0.00    +0.166 C 
ATOM      5  H   UNL     1       4.208   1.030  -8.763  0.00  0.00    +0.163 HD
ATOM      6  H   UNL     1       1.163  -0.299  -7.637  0.00  0.00    +0.159 HD
ATOM      7  H   UNL     1       2.014   1.145  -8.039  0.00  0.00    +0.159 HD
ATOM      8  H   UNL     1       3.833  -2.518  -8.253  0.00  0.00    +0.159 HD
ATOM      9  H   UNL     1       2.193  -2.368  -7.758  0.00  0.00    +0.159 HD
ENDROOT
BRANCH   1  10
ATOM     10  C   UNL     1       5.491  -0.666  -8.901  0.00  0.00    +0.151 C 
BRANCH  10  11
ATOM     11  C   UNL     1       6.514   0.338  -9.356  0.00  0.00    -0.028 A 
ATOM     12  C   UNL     1       6.888   0.411 -10.706  0.00  0.00    +0.005 A 
ATOM     13  C   UNL     1       7.109   1.222  -8.444  0.00  0.00    +0.005 A 
ATOM     14  C   UNL     1       7.816   1.363 -11.135  0.00  0.00    +0.000 A 
ATOM     15  C   UNL     1       8.036   2.171  -8.876  0.00  0.00    +0.000 A 
ATOM     16  C   UNL     1       8.387   2.243 -10.221  0.00  0.00    +0.000 A 
ENDBRANCH  10  11
ENDBRANCH   1  10
TORSDOF 2
ENDMDL
MODEL 4
REMARK VINA RESULT:    -4.578     15.251     17.248
REMARK INTER + INTRA:          -5.266
REMARK INTER:                  -5.124
REMARK INTRA:                  -0.142
REMARK UNBOUND:                -0.152
REMARK  Name = 1550473
REMARK  2 active torsions:
REMARK  status: ('A' for Active; 'I' for Inactive)
REMARK    1  A    between atoms: N_1  and  C_4
REMARK    2  A    between atoms: C_4  and  C_5
REMARK                            x       y       z     vdW  Elec       q    Type
REMARK                         _______ _______ _______ _____ _____    ______ ____
ROOT
ATOM      1  N   UNL     1       7.639   1.322  -9.967  0.00  0.00    -0.354 N 
ATOM      2  N   UNL     1       9.110   2.218  -8.420  0.00  0.00    -0.372 N 
ATOM      3  N   UNL     1       8.305   0.096  -8.085  0.00  0.00    -0.372 N 
ATOM      4  C   UNL     1       8.341   1.203  -8.833  0.00  0.00    +0.166 C 
ATOM      5  H   UNL     1       7.686   2.199 -10.473  0.00  0.00    +0.163 HD
ATOM      6  H   UNL     1       9.654   2.157  -7.570  0.00  0.00    +0.159 HD
ATOM      7  H   UNL     1       9.191   3.076  -8.951  0.00  0.00    +0.159 HD
ATOM      8  H   UNL     1       7.740  -0.703  -8.338  0.00  0.00    +0.159 HD
ATOM      9  H   UNL     1       8.833   0.020  -7.224  0.00  0.00    +0.159 HD
ENDROOT
BRANCH   1  10
ATOM     10  C   UNL     1       6.813   0.256 -10.533  0.00  0.00    +0.151 C 
BRANCH  10  11
ATOM     11  C   UNL     1       7.216   0.029 -11.964  0.00  0.00    -0.028 A 
ATOM     12  C   UNL     1       6.512  -0.881 -12.766  0.00  0.00    +0.005 A 
ATOM     13  C   UNL     1       8.298   0.725 -12.525  0.00  0.00    +0.005 A 
ATOM     14  C   UNL     1       6.867  -1.070 -14.104  0.00  0.00    +0.000 A 
ATOM     15  C   UNL     1       8.649   0.533 -13.861  0.00  0.00    +0.000 A 
ATOM     16  C   UNL     1       7.932  -0.363 -14.651  0.00  0.00    +0.000 A 
ENDBRANCH  10  11
ENDBRANCH   1  10
TORSDOF 2
ENDMDL
MODEL 5
REMARK VINA RESULT:    -4.557     32.532     33.375
REMARK INTER + INTRA:          -5.242
REMARK INTER:                  -5.117
REMARK INTRA:                  -0.125
REMARK UNBOUND:                -0.152
REMARK  Name = 1550473
REMARK  2 active torsions:
REMARK  status: ('A' for Active; 'I' for Inactive)
REMARK    1  A    between atoms: N_1  and  C_4
REMARK    2  A    between atoms: C_4  and  C_5
REMARK                            x       y       z     vdW  Elec       q    Type
REMARK                         _______ _______ _______ _____ _____    ______ ____
ROOT
ATOM      1  N   UNL     1      -8.867   5.560  11.576  0.00  0.00    -0.354 N 
ATOM      2  N   UNL     1      -7.262   4.031  12.248  0.00  0.00    -0.372 N 
ATOM      3  N   UNL     1      -7.063   5.014  10.184  0.00  0.00    -0.372 N 
ATOM      4  C   UNL     1      -7.740   4.879  11.329  0.00  0.00    +0.166 C 
ATOM      5  H   UNL     1      -9.350   5.391  12.451  0.00  0.00    +0.163 HD
ATOM      6  H   UNL     1      -6.413   3.505  12.090  0.00  0.00    +0.159 HD
ATOM      7  H   UNL     1      -7.722   3.898  13.140  0.00  0.00    +0.159 HD
ATOM      8  H   UNL     1      -7.374   5.633   9.447  0.00  0.00    +0.159 HD
ATOM      9  H   UNL     1      -6.217   4.488  10.003  0.00  0.00    +0.159 HD
ENDROOT
BRANCH   1  10
ATOM     10  C   UNL     1      -9.442   6.548  10.665  0.00  0.00    +0.151 C 
BRANCH  10  11
ATOM     11  C   UNL     1     -10.941   6.418  10.683  0.00  0.00    -0.028 A 
ATOM     12  C   UNL     1     -11.606   6.007  11.847  0.00  0.00    +0.005 A 
ATOM     13  C   UNL     1     -11.701   6.712   9.541  0.00  0.00    +0.005 A 
ATOM     14  C   UNL     1     -12.999   5.916  11.873  0.00  0.00    +0.000 A 
ATOM     15  C   UNL     1     -13.092   6.619   9.571  0.00  0.00    +0.000 A 
ATOM     16  C   UNL     1     -13.741   6.223  10.738  0.00  0.00    +0.000 A 
ENDBRANCH  10  11
ENDBRANCH   1  10
TORSDOF 2
ENDMDL
MODEL 6
REMARK VINA RESULT:    -4.508     16.791     18.189
REMARK INTER + INTRA:          -5.188
REMARK INTER:                  -5.083
REMARK INTRA:                  -0.104
REMARK UNBOUND:                -0.152
REMARK  Name = 1550473
REMARK  2 active torsions:
REMARK  status: ('A' for Active; 'I' for Inactive)
REMARK    1  A    between atoms: N_1  and  C_4
REMARK    2  A    between atoms: C_4  and  C_5
REMARK                            x       y       z     vdW  Elec       q    Type
REMARK                         _______ _______ _______ _____ _____    ______ ____
ROOT
ATOM      1  N   UNL     1       4.891   2.771 -11.194  0.00  0.00    -0.354 N 
ATOM      2  N   UNL     1       2.931   3.903 -11.685  0.00  0.00    -0.372 N 
ATOM      3  N   UNL     1       2.801   1.844 -10.681  0.00  0.00    -0.372 N 
ATOM      4  C   UNL     1       3.553   2.830 -11.183  0.00  0.00    +0.166 C 
ATOM      5  H   UNL     1       5.403   3.537 -11.617  0.00  0.00    +0.163 HD
ATOM      6  H   UNL     1       1.923   3.977 -11.687  0.00  0.00    +0.159 HD
ATOM      7  H   UNL     1       3.447   4.688 -12.065  0.00  0.00    +0.159 HD
ATOM      8  H   UNL     1       3.208   1.004 -10.292  0.00  0.00    +0.159 HD
ATOM      9  H   UNL     1       1.790   1.895 -10.684  0.00  0.00    +0.159 HD
ENDROOT
BRANCH   1  10
ATOM     10  C   UNL     1       5.666   1.671 -10.623  0.00  0.00    +0.151 C 
BRANCH  10  11
ATOM     11  C   UNL     1       7.063   2.150 -10.339  0.00  0.00    -0.028 A 
ATOM     12  C   UNL     1       7.812   2.793 -11.336  0.00  0.00    +0.005 A 
ATOM     13  C   UNL     1       7.641   1.969  -9.073  0.00  0.00    +0.005 A 
ATOM     14  C   UNL     1       9.098   3.265 -11.063  0.00  0.00    +0.000 A 
ATOM     15  C   UNL     1       8.926   2.441  -8.806  0.00  0.00    +0.000 A 
ATOM     16  C   UNL     1       9.653   3.091  -9.800  0.00  0.00    +0.000 A 
ENDBRANCH  10  11
ENDBRANCH   1  10
TORSDOF 2
ENDMDL
MODEL 7
REMARK VINA RESULT:    -4.432     16.141     18.099
REMARK INTER + INTRA:          -5.103
REMARK INTER:                  -4.969
REMARK INTRA:                  -0.133
REMARK UNBOUND:                -0.152
REMARK  Name = 1550473
REMARK  2 active torsions:
REMARK  status: ('A' for Active; 'I' for Inactive)
REMARK    1  A    between atoms: N_1  and  C_4
REMARK    2  A    between atoms: C_4  and  C_5
REMARK                            x       y       z     vdW  Elec       q    Type
REMARK                         _______ _______ _______ _____ _____    ______ ____
ROOT
ATOM      1  N   UNL     1       7.440   1.028  -9.801  0.00  0.00    -0.354 N 
ATOM      2  N   UNL     1       9.259   1.772  -8.576  0.00  0.00    -0.372 N 
ATOM      3  N   UNL     1       8.156  -0.118  -7.886  0.00  0.00    -0.372 N 
ATOM      4  C   UNL     1       8.272   0.887  -8.761  0.00  0.00    +0.166 C 
ATOM      5  H   UNL     1       7.563   1.828 -10.411  0.00  0.00    +0.163 HD
ATOM      6  H   UNL     1       9.905   1.690  -7.802  0.00  0.00    +0.159 HD
ATOM      7  H   UNL     1       9.408   2.545  -9.214  0.00  0.00    +0.159 HD
ATOM      8  H   UNL     1       7.428  -0.815  -7.966  0.00  0.00    +0.159 HD
ATOM      9  H   UNL     1       8.785  -0.210  -7.099  0.00  0.00    +0.159 HD
ENDROOT
BRANCH   1  10
ATOM     10  C   UNL     1       6.366   0.090 -10.122  0.00  0.00    +0.151 C 
BRANCH  10  11
ATOM     11  C   UNL     1       5.132   0.864 -10.493  0.00  0.00    -0.028 A 
ATOM     12  C   UNL     1       5.231   2.188 -10.946  0.00  0.00    +0.005 A 
ATOM     13  C   UNL     1       3.860   0.278 -10.399  0.00  0.00    +0.005 A 
ATOM     14  C   UNL     1       4.087   2.897 -11.319  0.00  0.00    +0.000 A 
ATOM     15  C   UNL     1       2.720   0.990 -10.771  0.00  0.00    +0.000 A 
ATOM     16  C   UNL     1       2.834   2.299 -11.234  0.00  0.00    +0.000 A 
ENDBRANCH  10  11
ENDBRANCH   1  10
TORSDOF 2
ENDMDL
MODEL 8
REMARK VINA RESULT:    -4.423     27.238     28.164
REMARK INTER + INTRA:          -5.092
REMARK INTER:                  -4.938
REMARK INTRA:                  -0.154
REMARK UNBOUND:                -0.152
REMARK  Name = 1550473
REMARK  2 active torsions:
REMARK  status: ('A' for Active; 'I' for Inactive)
REMARK    1  A    between atoms: N_1  and  C_4
REMARK    2  A    between atoms: C_4  and  C_5
REMARK                            x       y       z     vdW  Elec       q    Type
REMARK                         _______ _______ _______ _____ _____    ______ ____
ROOT
ATOM      1  N   UNL     1      -5.835 -18.517   8.700  0.00  0.00    -0.354 N 
ATOM      2  N   UNL     1      -5.203 -16.418   9.447  0.00  0.00    -0.372 N 
ATOM      3  N   UNL     1      -5.422 -18.119  10.972  0.00  0.00    -0.372 N 
ATOM      4  C   UNL     1      -5.491 -17.700   9.704  0.00  0.00    +0.166 C 
ATOM      5  H   UNL     1      -5.898 -18.131   7.765  0.00  0.00    +0.163 HD
ATOM      6  H   UNL     1      -4.937 -15.779  10.184  0.00  0.00    +0.159 HD
ATOM      7  H   UNL     1      -5.222 -16.046   8.505  0.00  0.00    +0.159 HD
ATOM      8  H   UNL     1      -5.633 -19.072  11.234  0.00  0.00    +0.159 HD
ATOM      9  H   UNL     1      -5.169 -17.491  11.725  0.00  0.00    +0.159 HD
ENDROOT
BRANCH   1  10
ATOM     10  C   UNL     1      -6.116 -19.943   8.866  0.00  0.00    +0.151 C 
BRANCH  10  11
ATOM     11  C   UNL     1      -4.977 -20.738   8.289  0.00  0.00    -0.028 A 
ATOM     12  C   UNL     1      -3.756 -20.832   8.974  0.00  0.00    +0.005 A 
ATOM     13  C   UNL     1      -5.115 -21.404   7.062  0.00  0.00    +0.005 A 
ATOM     14  C   UNL     1      -2.708 -21.595   8.453  0.00  0.00    +0.000 A 
ATOM     15  C   UNL     1      -4.066 -22.164   6.545  0.00  0.00    +0.000 A 
ATOM     16  C   UNL     1      -2.864 -22.262   7.242  0.00  0.00    +0.000 A 
ENDBRANCH  10  11
ENDBRANCH   1  10
TORSDOF 2
ENDMDL
MODEL 9
REMARK VINA RESULT:    -4.211      7.559      8.998
REMARK INTER + INTRA:          -4.855
REMARK INTER:                  -4.683
REMARK INTRA:                  -0.173
REMARK UNBOUND:                -0.152
REMARK  Name = 1550473
REMARK  2 active torsions:
REMARK  status: ('A' for Active; 'I' for Inactive)
REMARK    1  A    between atoms: N_1  and  C_4
REMARK    2  A    between atoms: C_4  and  C_5
REMARK                            x       y       z     vdW  Elec       q    Type
REMARK                         _______ _______ _______ _____ _____    ______ ____
ROOT
ATOM      1  N   UNL     1      18.934   2.810   0.496  0.00  0.00    -0.354 N 
ATOM      2  N   UNL     1      19.982   4.137   2.079  0.00  0.00    -0.372 N 
ATOM      3  N   UNL     1      17.798   3.520   2.419  0.00  0.00    -0.372 N 
ATOM      4  C   UNL     1      18.895   3.481   1.655  0.00  0.00    +0.166 C 
ATOM      5  H   UNL     1      19.786   2.844  -0.051  0.00  0.00    +0.163 HD
ATOM      6  H   UNL     1      19.984   4.648   2.951  0.00  0.00    +0.159 HD
ATOM      7  H   UNL     1      20.847   4.131   1.552  0.00  0.00    +0.159 HD
ATOM      8  H   UNL     1      16.943   3.051   2.153  0.00  0.00    +0.159 HD
ATOM      9  H   UNL     1      17.777   4.036   3.290  0.00  0.00    +0.159 HD
ENDROOT
BRANCH   1  10
ATOM     10  C   UNL     1      17.822   2.019  -0.029  0.00  0.00    +0.151 C 
BRANCH  10  11
ATOM     11  C   UNL     1      17.975   0.595   0.428  0.00  0.00    -0.028 A 
ATOM     12  C   UNL     1      16.992  -0.005   1.229  0.00  0.00    +0.005 A 
ATOM     13  C   UNL     1      19.097  -0.162   0.059  0.00  0.00    +0.005 A 
ATOM     14  C   UNL     1      17.119  -1.338   1.628  0.00  0.00    +0.000 A 
ATOM     15  C   UNL     1      19.220  -1.492   0.461  0.00  0.00    +0.000 A 
ATOM     16  C   UNL     1      18.230  -2.081   1.243  0.00  0.00    +0.000 A 
ENDBRANCH  10  11
ENDBRANCH   1  10
TORSDOF 2
ENDMDL
