MODEL 1
REMARK VINA RESULT:    -5.151      0.000      0.000
REMARK INTER + INTRA:          -5.865
REMARK INTER:                  -5.753
REMARK INTRA:                  -0.111
REMARK UNBOUND:                -0.111
REMARK  Name = 1550473
REMARK  2 active torsions:
REMARK  status: ('A' for Active; 'I' for Inactive)
REMARK    1  A    between atoms: N_1  and  C_4
REMARK    2  A    between atoms: C_4  and  C_5
REMARK                            x       y       z     vdW  Elec       q    Type
REMARK                         _______ _______ _______ _____ _____    ______ ____
ROOT
ATOM      1  N   UNL     1      15.992  -4.174  -4.672  0.00  0.00    -0.354 N 
ATOM      2  N   UNL     1      15.637  -5.868  -3.134  0.00  0.00    -0.372 N 
ATOM      3  N   UNL     1      15.851  -3.712  -2.379  0.00  0.00    -0.372 N 
ATOM      4  C   UNL     1      15.829  -4.572  -3.403  0.00  0.00    +0.166 C 
ATOM      5  H   UNL     1      15.996  -4.879  -5.401  0.00  0.00    +0.163 HD
ATOM      6  H   UNL     1      15.507  -6.198  -2.187  0.00  0.00    +0.159 HD
ATOM      7  H   UNL     1      15.595  -6.565  -3.868  0.00  0.00    +0.159 HD
ATOM      8  H   UNL     1      15.997  -2.721  -2.515  0.00  0.00    +0.159 HD
ATOM      9  H   UNL     1      15.735  -4.024  -1.423  0.00  0.00    +0.159 HD
ENDROOT
BRANCH   1  10
ATOM     10  C   UNL     1      16.154  -2.779  -5.078  0.00  0.00    +0.151 C 
BRANCH  10  11
ATOM     11  C   UNL     1      16.043  -2.686  -6.574  0.00  0.00    -0.028 A 
ATOM     12  C   UNL     1      15.015  -3.354  -7.255  0.00  0.00    +0.005 A 
ATOM     13  C   UNL     1      16.960  -1.927  -7.318  0.00  0.00    +0.005 A 
ATOM     14  C   UNL     1      14.893  -3.244  -8.642  0.00  0.00    +0.000 A 
ATOM     15  C   UNL     1      16.836  -1.820  -8.703  0.00  0.00    +0.000 A 
ATOM     16  C   UNL     1      15.801  -2.476  -9.364  0.00  0.00    +0.000 A 
ENDBRANCH  10  11
ENDBRANCH   1  10
TORSDOF 2
ENDMDL
MODEL 2
REMARK VINA RESULT:    -5.086      1.408      2.340
REMARK INTER + INTRA:          -5.792
REMARK INTER:                  -5.682
REMARK INTRA:                  -0.110
REMARK UNBOUND:                -0.111
REMARK  Name = 1550473
REMARK  2 active torsions:
REMARK  status: ('A' for Active; 'I' for Inactive)
REMARK    1  A    between atoms: N_1  and  C_4
REMARK    2  A    between atoms: C_4  and  C_5
REMARK                            x       y       z     vdW  Elec       q    Type
REMARK                         _______ _______ _______ _____ _____    ______ ____
ROOT
ATOM      1  N   UNL     1      16.217  -2.206  -4.610  0.00  0.00    -0.354 N 
ATOM      2  N   UNL     1      16.092  -1.003  -2.635  0.00  0.00    -0.372 N 
ATOM      3  N   UNL     1      14.950  -2.986  -2.800  0.00  0.00    -0.372 N 
ATOM      4  C   UNL     1      15.752  -2.075  -3.361  0.00  0.00    +0.166 C 
ATOM      5  H   UNL     1      16.796  -1.465  -4.988  0.00  0.00    +0.163 HD
ATOM      6  H   UNL     1      15.759  -0.879  -1.688  0.00  0.00    +0.159 HD
ATOM      7  H   UNL     1      16.708  -0.287  -2.999  0.00  0.00    +0.159 HD
ATOM      8  H   UNL     1      14.651  -3.815  -3.297  0.00  0.00    +0.159 HD
ATOM      9  H   UNL     1      14.597  -2.874  -1.858  0.00  0.00    +0.159 HD
ENDROOT
BRANCH   1  10
ATOM     10  C   UNL     1      15.950  -3.361  -5.465  0.00  0.00    +0.151 C 
BRANCH  10  11
ATOM     11  C   UNL     1      15.991  -2.927  -6.904  0.00  0.00    -0.028 A 
ATOM     12  C   UNL     1      17.035  -2.118  -7.375  0.00  0.00    +0.005 A 
ATOM     13  C   UNL     1      14.991  -3.327  -7.804  0.00  0.00    +0.005 A 
ATOM     14  C   UNL     1      17.089  -1.739  -8.718  0.00  0.00    +0.000 A 
ATOM     15  C   UNL     1      15.048  -2.946  -9.145  0.00  0.00    +0.000 A 
ATOM     16  C   UNL     1      16.098  -2.154  -9.602  0.00  0.00    +0.000 A 
ENDBRANCH  10  11
ENDBRANCH   1  10
TORSDOF 2
ENDMDL
MODEL 3
REMARK VINA RESULT:    -4.939     20.746     22.844
REMARK INTER + INTRA:          -5.628
REMARK INTER:                  -5.497
REMARK INTRA:                  -0.131
REMARK UNBOUND:                -0.111
REMARK  Name = 1550473
REMARK  2 active torsions:
REMARK  status: ('A' for Active; 'I' for Inactive)
REMARK    1  A    between atoms: N_1  and  C_4
REMARK    2  A    between atoms: C_4  and  C_5
REMARK                            x       y       z     vdW  Elec       q    Type
REMARK                         _______ _______ _______ _____ _____    ______ ____
ROOT
ATOM      1  N   UNL     1      17.286   1.504  15.227  0.00  0.00    -0.354 N 
ATOM      2  N   UNL     1      16.446   3.365  14.135  0.00  0.00    -0.372 N 
ATOM      3  N   UNL     1      16.812   1.445  12.933  0.00  0.00    -0.372 N 
ATOM      4  C   UNL     1      16.854   2.091  14.103  0.00  0.00    +0.166 C 
ATOM      5  H   UNL     1      17.322   2.057  16.076  0.00  0.00    +0.163 HD
ATOM      6  H   UNL     1      16.112   3.834  13.304  0.00  0.00    +0.159 HD
ATOM      7  H   UNL     1      16.440   3.902  14.994  0.00  0.00    +0.159 HD
ATOM      8  H   UNL     1      17.112   0.484  12.840  0.00  0.00    +0.159 HD
ATOM      9  H   UNL     1      16.492   1.901  12.087  0.00  0.00    +0.159 HD
ENDROOT
BRANCH   1  10
ATOM     10  C   UNL     1      17.702   0.105  15.311  0.00  0.00    +0.151 C 
BRANCH  10  11
ATOM     11  C   UNL     1      16.865  -0.595  16.346  0.00  0.00    -0.028 A 
ATOM     12  C   UNL     1      17.239  -1.856  16.831  0.00  0.00    +0.005 A 
ATOM     13  C   UNL     1      15.699   0.002  16.851  0.00  0.00    +0.005 A 
ATOM     14  C   UNL     1      16.479  -2.493  17.815  0.00  0.00    +0.000 A 
ATOM     15  C   UNL     1      14.942  -0.638  17.833  0.00  0.00    +0.000 A 
ATOM     16  C   UNL     1      15.333  -1.884  18.316  0.00  0.00    +0.000 A 
ENDBRANCH  10  11
ENDBRANCH   1  10
TORSDOF 2
ENDMDL
MODEL 4
REMARK VINA RESULT:    -4.602     23.503     24.891
REMARK INTER + INTRA:          -5.251
REMARK INTER:                  -5.075
REMARK INTRA:                  -0.176
REMARK UNBOUND:                -0.111
REMARK  Name = 1550473
REMARK  2 active torsions:
REMARK  status: ('A' for Active; 'I' for Inactive)
REMARK    1  A    between atoms: N_1  and  C_4
REMARK    2  A    between atoms: C_4  and  C_5
REMARK                            x       y       z     vdW  Elec       q    Type
REMARK                         _______ _______ _______ _____ _____    ______ ____
ROOT
ATOM      1  N   UNL     1      -1.921 -18.227  -3.738  0.00  0.00    -0.354 N 
ATOM      2  N   UNL     1      -0.746 -16.689  -5.010  0.00  0.00    -0.372 N 
ATOM      3  N   UNL     1      -1.182 -16.206  -2.809  0.00  0.00    -0.372 N 
ATOM      4  C   UNL     1      -1.291 -17.049  -3.841  0.00  0.00    +0.166 C 
ATOM      5  H   UNL     1      -1.996 -18.807  -4.565  0.00  0.00    +0.163 HD
ATOM      6  H   UNL     1      -0.261 -15.808  -5.118  0.00  0.00    +0.159 HD
ATOM      7  H   UNL     1      -0.783 -17.292  -5.823  0.00  0.00    +0.159 HD
ATOM      8  H   UNL     1      -1.576 -16.416  -1.902  0.00  0.00    +0.159 HD
ATOM      9  H   UNL     1      -0.710 -15.315  -2.901  0.00  0.00    +0.159 HD
ENDROOT
BRANCH   1  10
ATOM     10  C   UNL     1      -2.502 -18.736  -2.497  0.00  0.00    +0.151 C 
BRANCH  10  11
ATOM     11  C   UNL     1      -3.989 -18.512  -2.521  0.00  0.00    -0.028 A 
ATOM     12  C   UNL     1      -4.840 -19.443  -3.134  0.00  0.00    +0.005 A 
ATOM     13  C   UNL     1      -4.553 -17.372  -1.928  0.00  0.00    +0.005 A 
ATOM     14  C   UNL     1      -6.223 -19.250  -3.130  0.00  0.00    +0.000 A 
ATOM     15  C   UNL     1      -5.935 -17.182  -1.928  0.00  0.00    +0.000 A 
ATOM     16  C   UNL     1      -6.770 -18.122  -2.527  0.00  0.00    +0.000 A 
ENDBRANCH  10  11
ENDBRANCH   1  10
TORSDOF 2
ENDMDL
MODEL 5
REMARK VINA RESULT:    -4.600     22.364     23.847
REMARK INTER + INTRA:          -5.249
REMARK INTER:                  -5.074
REMARK INTRA:                  -0.175
REMARK UNBOUND:                -0.111
REMARK  Name = 1550473
REMARK  2 active torsions:
REMARK  status: ('A' for Active; 'I' for Inactive)
REMARK    1  A    between atoms: N_1  and  C_4
REMARK    2  A    between atoms: C_4  and  C_5
REMARK                            x       y       z     vdW  Elec       q    Type
REMARK                         _______ _______ _______ _____ _____    ______ ____
ROOT
ATOM      1  N   UNL     1      -0.593 -17.062  -3.595  0.00  0.00    -0.354 N 
ATOM      2  N   UNL     1       0.355 -16.764  -5.686  0.00  0.00    -0.372 N 
ATOM      3  N   UNL     1       0.551 -18.808  -4.661  0.00  0.00    -0.372 N 
ATOM      4  C   UNL     1       0.099 -17.549  -4.633  0.00  0.00    +0.166 C 
ATOM      5  H   UNL     1      -0.882 -16.091  -3.621  0.00  0.00    +0.163 HD
ATOM      6  H   UNL     1       0.872 -17.105  -6.486  0.00  0.00    +0.159 HD
ATOM      7  H   UNL     1       0.026 -15.807  -5.730  0.00  0.00    +0.159 HD
ATOM      8  H   UNL     1       0.396 -19.449  -3.895  0.00  0.00    +0.159 HD
ATOM      9  H   UNL     1       1.080 -19.163  -5.448  0.00  0.00    +0.159 HD
ENDROOT
BRANCH   1  10
ATOM     10  C   UNL     1      -0.972 -17.850  -2.423  0.00  0.00    +0.151 C 
BRANCH  10  11
ATOM     11  C   UNL     1      -2.449 -18.127  -2.474  0.00  0.00    -0.028 A 
ATOM     12  C   UNL     1      -3.361 -17.237  -1.887  0.00  0.00    +0.005 A 
ATOM     13  C   UNL     1      -2.944 -19.275  -3.111  0.00  0.00    +0.005 A 
ATOM     14  C   UNL     1      -4.735 -17.478  -1.960  0.00  0.00    +0.000 A 
ATOM     15  C   UNL     1      -4.317 -19.513  -3.181  0.00  0.00    +0.000 A 
ATOM     16  C   UNL     1      -5.212 -18.613  -2.608  0.00  0.00    +0.000 A 
ENDBRANCH  10  11
ENDBRANCH   1  10
TORSDOF 2
ENDMDL
MODEL 6
REMARK VINA RESULT:    -4.547     27.967     28.490
REMARK INTER + INTRA:          -5.190
REMARK INTER:                  -5.079
REMARK INTRA:                  -0.112
REMARK UNBOUND:                -0.111
REMARK  Name = 1550473
REMARK  2 active torsions:
REMARK  status: ('A' for Active; 'I' for Inactive)
REMARK    1  A    between atoms: N_1  and  C_4
REMARK    2  A    between atoms: C_4  and  C_5
REMARK                            x       y       z     vdW  Elec       q    Type
REMARK                         _______ _______ _______ _____ _____    ______ ____
ROOT
ATOM      1  N   UNL     1       2.901  20.830   2.590  0.00  0.00    -0.354 N 
ATOM      2  N   UNL     1       0.774  21.214   1.758  0.00  0.00    -0.372 N 
ATOM      3  N   UNL     1       1.091  19.491   3.239  0.00  0.00    -0.372 N 
ATOM      4  C   UNL     1       1.602  20.507   2.536  0.00  0.00    +0.166 C 
ATOM      5  H   UNL     1       3.231  21.593   2.009  0.00  0.00    +0.163 HD
ATOM      6  H   UNL     1      -0.212  20.996   1.700  0.00  0.00    +0.159 HD
ATOM      7  H   UNL     1       1.098  22.004   1.214  0.00  0.00    +0.159 HD
ATOM      8  H   UNL     1       1.664  18.914   3.841  0.00  0.00    +0.159 HD
ATOM      9  H   UNL     1       0.109  19.249   3.185  0.00  0.00    +0.159 HD
ENDROOT
BRANCH   1  10
ATOM     10  C   UNL     1       3.876  20.158   3.446  0.00  0.00    +0.151 C 
BRANCH  10  11
ATOM     11  C   UNL     1       5.238  20.745   3.195  0.00  0.00    -0.028 A 
ATOM     12  C   UNL     1       5.658  21.034   1.889  0.00  0.00    +0.005 A 
ATOM     13  C   UNL     1       6.110  21.019   4.260  0.00  0.00    +0.005 A 
ATOM     14  C   UNL     1       6.911  21.607   1.658  0.00  0.00    +0.000 A 
ATOM     15  C   UNL     1       7.360  21.591   4.025  0.00  0.00    +0.000 A 
ATOM     16  C   UNL     1       7.759  21.887   2.724  0.00  0.00    +0.000 A 
ENDBRANCH  10  11
ENDBRANCH   1  10
TORSDOF 2
ENDMDL
MODEL 7
REMARK VINA RESULT:    -4.547     30.963     32.635
REMARK INTER + INTRA:          -5.190
REMARK INTER:                  -5.084
REMARK INTRA:                  -0.106
REMARK UNBOUND:                -0.111
REMARK  Name = 1550473
REMARK  2 active torsions:
REMARK  status: ('A' for Active; 'I' for Inactive)
REMARK    1  A    between atoms: N_1  and  C_4
REMARK    2  A    between atoms: C_4  and  C_5
REMARK                            x       y       z     vdW  Elec       q    Type
REMARK                         _______ _______ _______ _____ _____    ______ ____
ROOT
ATOM      1  N   UNL     1     -10.263  -6.188  11.052  0.00  0.00    -0.354 N 
ATOM      2  N   UNL     1      -8.222  -7.282  11.075  0.00  0.00    -0.372 N 
ATOM      3  N   UNL     1      -9.751  -7.821   9.451  0.00  0.00    -0.372 N 
ATOM      4  C   UNL     1      -9.427  -7.091  10.524  0.00  0.00    +0.166 C 
ATOM      5  H   UNL     1      -9.970  -5.688  11.883  0.00  0.00    +0.163 HD
ATOM      6  H   UNL     1      -7.569  -7.955  10.697  0.00  0.00    +0.159 HD
ATOM      7  H   UNL     1      -7.914  -6.749  11.879  0.00  0.00    +0.159 HD
ATOM      8  H   UNL     1     -10.647  -7.729   8.992  0.00  0.00    +0.159 HD
ATOM      9  H   UNL     1      -9.115  -8.508   9.065  0.00  0.00    +0.159 HD
ENDROOT
BRANCH   1  10
ATOM     10  C   UNL     1     -11.576  -5.865  10.495  0.00  0.00    +0.151 C 
BRANCH  10  11
ATOM     11  C   UNL     1     -12.148  -4.689  11.237  0.00  0.00    -0.028 A 
ATOM     12  C   UNL     1     -12.742  -3.627  10.539  0.00  0.00    +0.005 A 
ATOM     13  C   UNL     1     -12.106  -4.633  12.639  0.00  0.00    +0.005 A 
ATOM     14  C   UNL     1     -13.301  -2.549  11.229  0.00  0.00    +0.000 A 
ATOM     15  C   UNL     1     -12.664  -3.554  13.324  0.00  0.00    +0.000 A 
ATOM     16  C   UNL     1     -13.264  -2.513  12.619  0.00  0.00    +0.000 A 
ENDBRANCH  10  11
ENDBRANCH   1  10
TORSDOF 2
ENDMDL
MODEL 8
REMARK VINA RESULT:    -4.525     21.091     22.110
REMARK INTER + INTRA:          -5.165
REMARK INTER:                  -5.029
REMARK INTRA:                  -0.136
REMARK UNBOUND:                -0.111
REMARK  Name = 1550473
REMARK  2 active torsions:
REMARK  status: ('A' for Active; 'I' for Inactive)
REMARK    1  A    between atoms: N_1  and  C_4
REMARK    2  A    between atoms: C_4  and  C_5
REMARK                            x       y       z     vdW  Elec       q    Type
REMARK                         _______ _______ _______ _____ _____    ______ ____
ROOT
ATOM      1  N   UNL     1      -0.050 -18.403  -4.295  0.00  0.00    -0.354 N 
ATOM      2  N   UNL     1      -1.490 -16.697  -4.914  0.00  0.00    -0.372 N 
ATOM      3  N   UNL     1       0.646 -16.705  -5.753  0.00  0.00    -0.372 N 
ATOM      4  C   UNL     1      -0.286 -17.279  -4.984  0.00  0.00    +0.166 C 
ATOM      5  H   UNL     1      -0.789 -18.771  -3.706  0.00  0.00    +0.163 HD
ATOM      6  H   UNL     1      -1.698 -15.851  -5.426  0.00  0.00    +0.159 HD
ATOM      7  H   UNL     1      -2.241 -17.093  -4.361  0.00  0.00    +0.159 HD
ATOM      8  H   UNL     1       1.576 -17.091  -5.844  0.00  0.00    +0.159 HD
ATOM      9  H   UNL     1       0.460 -15.851  -6.264  0.00  0.00    +0.159 HD
ENDROOT
BRANCH   1  10
ATOM     10  C   UNL     1       1.209 -19.144  -4.345  0.00  0.00    +0.151 C 
BRANCH  10  11
ATOM     11  C   UNL     1       1.676 -19.415  -2.942  0.00  0.00    -0.028 A 
ATOM     12  C   UNL     1       3.046 -19.511  -2.653  0.00  0.00    +0.005 A 
ATOM     13  C   UNL     1       0.755 -19.570  -1.895  0.00  0.00    +0.005 A 
ATOM     14  C   UNL     1       3.481 -19.732  -1.344  0.00  0.00    +0.000 A 
ATOM     15  C   UNL     1       1.194 -19.792  -0.590  0.00  0.00    +0.000 A 
ATOM     16  C   UNL     1       2.557 -19.871  -0.314  0.00  0.00    +0.000 A 
ENDBRANCH  10  11
ENDBRANCH   1  10
TORSDOF 2
ENDMDL
MODEL 9
REMARK VINA RESULT:    -4.409     22.275     23.768
REMARK INTER + INTRA:          -5.035
REMARK INTER:                  -4.890
REMARK INTRA:                  -0.145
REMARK UNBOUND:                -0.111
REMARK  Name = 1550473
REMARK  2 active torsions:
REMARK  status: ('A' for Active; 'I' for Inactive)
REMARK    1  A    between atoms: N_1  and  C_4
REMARK    2  A    between atoms: C_4  and  C_5
REMARK                            x       y       z     vdW  Elec       q    Type
REMARK                         _______ _______ _______ _____ _____    ______ ____
ROOT
ATOM      1  N   UNL     1       0.192 -18.119  -4.045  0.00  0.00    -0.354 N 
ATOM      2  N   UNL     1       0.637 -16.654  -5.783  0.00  0.00    -0.372 N 
ATOM      3  N   UNL     1      -1.498 -16.771  -4.950  0.00  0.00    -0.372 N 
ATOM      4  C   UNL     1      -0.229 -17.191  -4.915  0.00  0.00    +0.166 C 
ATOM      5  H   UNL     1       1.160 -18.416  -4.089  0.00  0.00    +0.163 HD
ATOM      6  H   UNL     1       0.349 -15.950  -6.449  0.00  0.00    +0.159 HD
ATOM      7  H   UNL     1       1.614 -16.920  -5.794  0.00  0.00    +0.159 HD
ATOM      8  H   UNL     1      -2.202 -17.141  -4.326  0.00  0.00    +0.159 HD
ATOM      9  H   UNL     1      -1.808 -16.075  -5.617  0.00  0.00    +0.159 HD
ENDROOT
BRANCH   1  10
ATOM     10  C   UNL     1      -0.658 -18.727  -3.023  0.00  0.00    +0.151 C 
BRANCH  10  11
ATOM     11  C   UNL     1      -0.741 -20.208  -3.270  0.00  0.00    -0.028 A 
ATOM     12  C   UNL     1      -1.927 -20.785  -3.745  0.00  0.00    +0.005 A 
ATOM     13  C   UNL     1       0.366 -21.039  -3.035  0.00  0.00    +0.005 A 
ATOM     14  C   UNL     1      -1.995 -22.157  -4.003  0.00  0.00    +0.000 A 
ATOM     15  C   UNL     1       0.294 -22.408  -3.293  0.00  0.00    +0.000 A 
ATOM     16  C   UNL     1      -0.886 -22.966  -3.779  0.00  0.00    +0.000 A 
ENDBRANCH  10  11
ENDBRANCH   1  10
TORSDOF 2
ENDMDL
