MODEL 1
REMARK VINA RESULT:    -6.006      0.000      0.000
REMARK INTER + INTRA:          -6.847
REMARK INTER:                  -6.709
REMARK INTRA:                  -0.138
REMARK UNBOUND:                -0.138
REMARK  Name = 1550473
REMARK  2 active torsions:
REMARK  status: ('A' for Active; 'I' for Inactive)
REMARK    1  A    between atoms: N_1  and  C_4
REMARK    2  A    between atoms: C_4  and  C_5
REMARK                            x       y       z     vdW  Elec       q    Type
REMARK                         _______ _______ _______ _____ _____    ______ ____
ROOT
ATOM      1  N   UNL     1       9.802   9.188  11.447  0.00  0.00    -0.354 N 
ATOM      2  N   UNL     1      11.436   8.553   9.933  0.00  0.00    -0.372 N 
ATOM      3  N   UNL     1       9.230   8.348   9.335  0.00  0.00    -0.372 N 
ATOM      4  C   UNL     1      10.143   8.700  10.247  0.00  0.00    +0.166 C 
ATOM      5  H   UNL     1      10.542   9.407  12.105  0.00  0.00    +0.163 HD
ATOM      6  H   UNL     1      11.723   8.191   9.033  0.00  0.00    +0.159 HD
ATOM      7  H   UNL     1      12.173   8.817  10.575  0.00  0.00    +0.159 HD
ATOM      8  H   UNL     1       8.238   8.428   9.513  0.00  0.00    +0.159 HD
ATOM      9  H   UNL     1       9.498   7.972   8.434  0.00  0.00    +0.159 HD
ENDROOT
BRANCH   1  10
ATOM     10  C   UNL     1       8.425   9.436  11.867  0.00  0.00    +0.151 C 
BRANCH  10  11
ATOM     11  C   UNL     1       8.264  10.897  12.184  0.00  0.00    -0.028 A 
ATOM     12  C   UNL     1       7.517  11.731  11.340  0.00  0.00    +0.005 A 
ATOM     13  C   UNL     1       8.852  11.453  13.331  0.00  0.00    +0.005 A 
ATOM     14  C   UNL     1       7.342  13.082  11.649  0.00  0.00    +0.000 A 
ATOM     15  C   UNL     1       8.676  12.803  13.637  0.00  0.00    +0.000 A 
ATOM     16  C   UNL     1       7.919  13.616  12.797  0.00  0.00    +0.000 A 
ENDBRANCH  10  11
ENDBRANCH   1  10
TORSDOF 2
ENDMDL
MODEL 2
REMARK VINA RESULT:    -5.984      0.080      1.456
REMARK INTER + INTRA:          -6.822
REMARK INTER:                  -6.685
REMARK INTRA:                  -0.137
REMARK UNBOUND:                -0.138
REMARK  Name = 1550473
REMARK  2 active torsions:
REMARK  status: ('A' for Active; 'I' for Inactive)
REMARK    1  A    between atoms: N_1  and  C_4
REMARK    2  A    between atoms: C_4  and  C_5
REMARK                            x       y       z     vdW  Elec       q    Type
REMARK                         _______ _______ _______ _____ _____    ______ ____
ROOT
ATOM      1  N   UNL     1       9.800   9.243  11.437  0.00  0.00    -0.354 N 
ATOM      2  N   UNL     1      11.457   8.621   9.944  0.00  0.00    -0.372 N 
ATOM      3  N   UNL     1       9.261   8.331   9.347  0.00  0.00    -0.372 N 
ATOM      4  C   UNL     1      10.160   8.735  10.251  0.00  0.00    +0.166 C 
ATOM      5  H   UNL     1      10.530   9.503  12.091  0.00  0.00    +0.163 HD
ATOM      6  H   UNL     1      11.759   8.245   9.055  0.00  0.00    +0.159 HD
ATOM      7  H   UNL     1      12.184   8.925  10.581  0.00  0.00    +0.159 HD
ATOM      8  H   UNL     1       8.266   8.385   9.520  0.00  0.00    +0.159 HD
ATOM      9  H   UNL     1       9.543   7.941   8.457  0.00  0.00    +0.159 HD
ENDROOT
BRANCH   1  10
ATOM     10  C   UNL     1       8.414   9.460  11.848  0.00  0.00    +0.151 C 
BRANCH  10  11
ATOM     11  C   UNL     1       8.212  10.919  12.148  0.00  0.00    -0.028 A 
ATOM     12  C   UNL     1       8.772  11.494  13.299  0.00  0.00    +0.005 A 
ATOM     13  C   UNL     1       7.468  11.735  11.282  0.00  0.00    +0.005 A 
ATOM     14  C   UNL     1       8.610  12.856  13.562  0.00  0.00    +0.000 A 
ATOM     15  C   UNL     1       7.308  13.095  11.549  0.00  0.00    +0.000 A 
ATOM     16  C   UNL     1       7.881  13.655  12.688  0.00  0.00    +0.000 A 
ENDBRANCH  10  11
ENDBRANCH   1  10
TORSDOF 2
ENDMDL
MODEL 3
REMARK VINA RESULT:    -5.370      1.414      2.289
REMARK INTER + INTRA:          -6.136
REMARK INTER:                  -5.971
REMARK INTRA:                  -0.165
REMARK UNBOUND:                -0.138
REMARK  Name = 1550473
REMARK  2 active torsions:
REMARK  status: ('A' for Active; 'I' for Inactive)
REMARK    1  A    between atoms: N_1  and  C_4
REMARK    2  A    between atoms: C_4  and  C_5
REMARK                            x       y       z     vdW  Elec       q    Type
REMARK                         _______ _______ _______ _____ _____    ______ ____
ROOT
ATOM      1  N   UNL     1      11.088   9.601   9.928  0.00  0.00    -0.354 N 
ATOM      2  N   UNL     1      11.221   7.309   9.628  0.00  0.00    -0.372 N 
ATOM      3  N   UNL     1       9.227   8.367   9.217  0.00  0.00    -0.372 N 
ATOM      4  C   UNL     1      10.508   8.441   9.593  0.00  0.00    +0.166 C 
ATOM      5  H   UNL     1      12.054   9.586  10.234  0.00  0.00    +0.163 HD
ATOM      6  H   UNL     1      10.812   6.419   9.377  0.00  0.00    +0.159 HD
ATOM      7  H   UNL     1      12.200   7.303   9.889  0.00  0.00    +0.159 HD
ATOM      8  H   UNL     1       8.633   9.184   9.175  0.00  0.00    +0.159 HD
ATOM      9  H   UNL     1       8.796   7.484   8.973  0.00  0.00    +0.159 HD
ENDROOT
BRANCH   1  10
ATOM     10  C   UNL     1      10.415  10.898   9.872  0.00  0.00    +0.151 C 
BRANCH  10  11
ATOM     11  C   UNL     1       9.908  11.249  11.243  0.00  0.00    -0.028 A 
ATOM     12  C   UNL     1      10.700  11.014  12.377  0.00  0.00    +0.005 A 
ATOM     13  C   UNL     1       8.639  11.822  11.416  0.00  0.00    +0.005 A 
ATOM     14  C   UNL     1      10.242  11.367  13.648  0.00  0.00    +0.000 A 
ATOM     15  C   UNL     1       8.184  12.172  12.687  0.00  0.00    +0.000 A 
ATOM     16  C   UNL     1       8.987  11.947  13.803  0.00  0.00    +0.000 A 
ENDBRANCH  10  11
ENDBRANCH   1  10
TORSDOF 2
ENDMDL
MODEL 4
REMARK VINA RESULT:    -5.353      2.692      3.705
REMARK INTER + INTRA:          -6.117
REMARK INTER:                  -5.993
REMARK INTRA:                  -0.124
REMARK UNBOUND:                -0.138
REMARK  Name = 1550473
REMARK  2 active torsions:
REMARK  status: ('A' for Active; 'I' for Inactive)
REMARK    1  A    between atoms: N_1  and  C_4
REMARK    2  A    between atoms: C_4  and  C_5
REMARK                            x       y       z     vdW  Elec       q    Type
REMARK                         _______ _______ _______ _____ _____    ______ ____
ROOT
ATOM      1  N   UNL     1       6.931   9.894  10.180  0.00  0.00    -0.354 N 
ATOM      2  N   UNL     1       4.739   9.190  10.434  0.00  0.00    -0.372 N 
ATOM      3  N   UNL     1       5.176  11.440  10.330  0.00  0.00    -0.372 N 
ATOM      4  C   UNL     1       5.629  10.182  10.313  0.00  0.00    +0.166 C 
ATOM      5  H   UNL     1       7.213   8.921  10.205  0.00  0.00    +0.163 HD
ATOM      6  H   UNL     1       3.750   9.377  10.532  0.00  0.00    +0.159 HD
ATOM      7  H   UNL     1       5.019   8.217  10.412  0.00  0.00    +0.159 HD
ATOM      8  H   UNL     1       5.798  12.234  10.249  0.00  0.00    +0.159 HD
ATOM      9  H   UNL     1       4.192  11.648  10.440  0.00  0.00    +0.159 HD
ENDROOT
BRANCH   1  10
ATOM     10  C   UNL     1       7.975  10.898   9.988  0.00  0.00    +0.151 C 
BRANCH  10  11
ATOM     11  C   UNL     1       8.736  11.067  11.274  0.00  0.00    -0.028 A 
ATOM     12  C   UNL     1      10.061  10.618  11.381  0.00  0.00    +0.005 A 
ATOM     13  C   UNL     1       8.141  11.681  12.386  0.00  0.00    +0.005 A 
ATOM     14  C   UNL     1      10.778  10.802  12.566  0.00  0.00    +0.000 A 
ATOM     15  C   UNL     1       8.860  11.862  13.567  0.00  0.00    +0.000 A 
ATOM     16  C   UNL     1      10.179  11.425  13.656  0.00  0.00    +0.000 A 
ENDBRANCH  10  11
ENDBRANCH   1  10
TORSDOF 2
ENDMDL
MODEL 5
REMARK VINA RESULT:    -5.274      2.192      3.170
REMARK INTER + INTRA:          -6.029
REMARK INTER:                  -5.884
REMARK INTRA:                  -0.145
REMARK UNBOUND:                -0.138
REMARK  Name = 1550473
REMARK  2 active torsions:
REMARK  status: ('A' for Active; 'I' for Inactive)
REMARK    1  A    between atoms: N_1  and  C_4
REMARK    2  A    between atoms: C_4  and  C_5
REMARK                            x       y       z     vdW  Elec       q    Type
REMARK                         _______ _______ _______ _____ _____    ______ ____
ROOT
ATOM      1  N   UNL     1       7.837  11.085  11.636  0.00  0.00    -0.354 N 
ATOM      2  N   UNL     1       7.752   8.792  11.956  0.00  0.00    -0.372 N 
ATOM      3  N   UNL     1       7.740   9.615   9.814  0.00  0.00    -0.372 N 
ATOM      4  C   UNL     1       7.776   9.846  11.130  0.00  0.00    +0.166 C 
ATOM      5  H   UNL     1       7.832  11.194  12.644  0.00  0.00    +0.163 HD
ATOM      6  H   UNL     1       7.710   7.846  11.603  0.00  0.00    +0.159 HD
ATOM      7  H   UNL     1       7.793   8.903  12.962  0.00  0.00    +0.159 HD
ATOM      8  H   UNL     1       7.749  10.367   9.138  0.00  0.00    +0.159 HD
ATOM      9  H   UNL     1       7.686   8.675   9.442  0.00  0.00    +0.159 HD
ENDROOT
BRANCH   1  10
ATOM     10  C   UNL     1       7.922  12.297  10.823  0.00  0.00    +0.151 C 
BRANCH  10  11
ATOM     11  C   UNL     1       6.791  13.216  11.192  0.00  0.00    -0.028 A 
ATOM     12  C   UNL     1       5.527  13.062  10.605  0.00  0.00    +0.005 A 
ATOM     13  C   UNL     1       6.976  14.241  12.134  0.00  0.00    +0.005 A 
ATOM     14  C   UNL     1       4.468  13.897  10.970  0.00  0.00    +0.000 A 
ATOM     15  C   UNL     1       5.916  15.073  12.495  0.00  0.00    +0.000 A 
ATOM     16  C   UNL     1       4.662  14.899  11.914  0.00  0.00    +0.000 A 
ENDBRANCH  10  11
ENDBRANCH   1  10
TORSDOF 2
ENDMDL
MODEL 6
REMARK VINA RESULT:    -5.180     18.572     20.034
REMARK INTER + INTRA:          -5.924
REMARK INTER:                  -5.802
REMARK INTRA:                  -0.122
REMARK UNBOUND:                -0.138
REMARK  Name = 1550473
REMARK  2 active torsions:
REMARK  status: ('A' for Active; 'I' for Inactive)
REMARK    1  A    between atoms: N_1  and  C_4
REMARK    2  A    between atoms: C_4  and  C_5
REMARK                            x       y       z     vdW  Elec       q    Type
REMARK                         _______ _______ _______ _____ _____    ______ ____
ROOT
ATOM      1  N   UNL     1       8.400  12.230  -6.504  0.00  0.00    -0.354 N 
ATOM      2  N   UNL     1       9.224  11.779  -4.387  0.00  0.00    -0.372 N 
ATOM      3  N   UNL     1       8.715  13.947  -4.940  0.00  0.00    -0.372 N 
ATOM      4  C   UNL     1       8.774  12.658  -5.291  0.00  0.00    +0.166 C 
ATOM      5  H   UNL     1       8.498  11.244  -6.718  0.00  0.00    +0.163 HD
ATOM      6  H   UNL     1       9.510  12.072  -3.462  0.00  0.00    +0.159 HD
ATOM      7  H   UNL     1       9.277  10.788  -4.588  0.00  0.00    +0.159 HD
ATOM      8  H   UNL     1       8.390  14.661  -5.579  0.00  0.00    +0.159 HD
ATOM      9  H   UNL     1       9.007  14.261  -4.024  0.00  0.00    +0.159 HD
ENDROOT
BRANCH   1  10
ATOM     10  C   UNL     1       7.846  13.097  -7.542  0.00  0.00    +0.151 C 
BRANCH  10  11
ATOM     11  C   UNL     1       7.190  12.246  -8.594  0.00  0.00    -0.028 A 
ATOM     12  C   UNL     1       6.666  10.987  -8.267  0.00  0.00    +0.005 A 
ATOM     13  C   UNL     1       7.083  12.697  -9.919  0.00  0.00    +0.005 A 
ATOM     14  C   UNL     1       6.029  10.210  -9.237  0.00  0.00    +0.000 A 
ATOM     15  C   UNL     1       6.448  11.917 -10.885  0.00  0.00    +0.000 A 
ATOM     16  C   UNL     1       5.919  10.675 -10.543  0.00  0.00    +0.000 A 
ENDBRANCH  10  11
ENDBRANCH   1  10
TORSDOF 2
ENDMDL
MODEL 7
REMARK VINA RESULT:    -5.122     19.365     20.840
REMARK INTER + INTRA:          -5.859
REMARK INTER:                  -5.704
REMARK INTRA:                  -0.156
REMARK UNBOUND:                -0.138
REMARK  Name = 1550473
REMARK  2 active torsions:
REMARK  status: ('A' for Active; 'I' for Inactive)
REMARK    1  A    between atoms: N_1  and  C_4
REMARK    2  A    between atoms: C_4  and  C_5
REMARK                            x       y       z     vdW  Elec       q    Type
REMARK                         _______ _______ _______ _____ _____    ______ ____
ROOT
ATOM      1  N   UNL     1       7.600  13.680  -7.608  0.00  0.00    -0.354 N 
ATOM      2  N   UNL     1       6.695  14.440  -5.616  0.00  0.00    -0.372 N 
ATOM      3  N   UNL     1       7.806  12.432  -5.635  0.00  0.00    -0.372 N 
ATOM      4  C   UNL     1       7.374  13.510  -6.299  0.00  0.00    +0.166 C 
ATOM      5  H   UNL     1       7.220  14.504  -8.059  0.00  0.00    +0.163 HD
ATOM      6  H   UNL     1       6.512  14.340  -4.627  0.00  0.00    +0.159 HD
ATOM      7  H   UNL     1       6.356  15.285  -6.060  0.00  0.00    +0.159 HD
ATOM      8  H   UNL     1       8.319  11.691  -6.094  0.00  0.00    +0.159 HD
ATOM      9  H   UNL     1       7.623  12.309  -4.647  0.00  0.00    +0.159 HD
ENDROOT
BRANCH   1  10
ATOM     10  C   UNL     1       8.374  12.753  -8.432  0.00  0.00    +0.151 C 
BRANCH  10  11
ATOM     11  C   UNL     1       7.436  11.979  -9.316  0.00  0.00    -0.028 A 
ATOM     12  C   UNL     1       7.328  12.287 -10.681  0.00  0.00    +0.005 A 
ATOM     13  C   UNL     1       6.656  10.934  -8.798  0.00  0.00    +0.005 A 
ATOM     14  C   UNL     1       6.478  11.549 -11.509  0.00  0.00    +0.000 A 
ATOM     15  C   UNL     1       5.808  10.201  -9.628  0.00  0.00    +0.000 A 
ATOM     16  C   UNL     1       5.722  10.507 -10.984  0.00  0.00    +0.000 A 
ENDBRANCH  10  11
ENDBRANCH   1  10
TORSDOF 2
ENDMDL
MODEL 8
REMARK VINA RESULT:    -5.112     10.062     11.663
REMARK INTER + INTRA:          -5.848
REMARK INTER:                  -5.713
REMARK INTRA:                  -0.135
REMARK UNBOUND:                -0.138
REMARK  Name = 1550473
REMARK  2 active torsions:
REMARK  status: ('A' for Active; 'I' for Inactive)
REMARK    1  A    between atoms: N_1  and  C_4
REMARK    2  A    between atoms: C_4  and  C_5
REMARK                            x       y       z     vdW  Elec       q    Type
REMARK                         _______ _______ _______ _____ _____    ______ ____
ROOT
ATOM      1  N   UNL     1       8.581  11.881   1.119  0.00  0.00    -0.354 N 
ATOM      2  N   UNL     1       6.305  12.309   1.128  0.00  0.00    -0.372 N 
ATOM      3  N   UNL     1       7.456  12.387   3.112  0.00  0.00    -0.372 N 
ATOM      4  C   UNL     1       7.462  12.190   1.789  0.00  0.00    +0.166 C 
ATOM      5  H   UNL     1       8.514  11.714   0.122  0.00  0.00    +0.163 HD
ATOM      6  H   UNL     1       5.445  12.544   1.606  0.00  0.00    +0.159 HD
ATOM      7  H   UNL     1       6.249  12.187   0.125  0.00  0.00    +0.159 HD
ATOM      8  H   UNL     1       8.295  12.306   3.669  0.00  0.00    +0.159 HD
ATOM      9  H   UNL     1       6.604  12.612   3.610  0.00  0.00    +0.159 HD
ENDROOT
BRANCH   1  10
ATOM     10  C   UNL     1       9.902  11.780   1.736  0.00  0.00    +0.151 C 
BRANCH  10  11
ATOM     11  C   UNL     1      10.674  10.678   1.066  0.00  0.00    -0.028 A 
ATOM     12  C   UNL     1      10.084   9.910   0.051  0.00  0.00    +0.005 A 
ATOM     13  C   UNL     1      11.999  10.399   1.437  0.00  0.00    +0.005 A 
ATOM     14  C   UNL     1      10.811   8.906  -0.593  0.00  0.00    +0.000 A 
ATOM     15  C   UNL     1      12.721   9.395   0.793  0.00  0.00    +0.000 A 
ATOM     16  C   UNL     1      12.128   8.650  -0.224  0.00  0.00    +0.000 A 
ENDBRANCH  10  11
ENDBRANCH   1  10
TORSDOF 2
ENDMDL
MODEL 9
REMARK VINA RESULT:    -5.067      4.651      6.086
REMARK INTER + INTRA:          -5.798
REMARK INTER:                  -5.655
REMARK INTRA:                  -0.142
REMARK UNBOUND:                -0.138
REMARK  Name = 1550473
REMARK  2 active torsions:
REMARK  status: ('A' for Active; 'I' for Inactive)
REMARK    1  A    between atoms: N_1  and  C_4
REMARK    2  A    between atoms: C_4  and  C_5
REMARK                            x       y       z     vdW  Elec       q    Type
REMARK                         _______ _______ _______ _____ _____    ______ ____
ROOT
ATOM      1  N   UNL     1       5.261  15.059  11.602  0.00  0.00    -0.354 N 
ATOM      2  N   UNL     1       3.478  16.118  12.633  0.00  0.00    -0.372 N 
ATOM      3  N   UNL     1       3.057  14.362  11.218  0.00  0.00    -0.372 N 
ATOM      4  C   UNL     1       3.942  15.171  11.809  0.00  0.00    +0.166 C 
ATOM      5  H   UNL     1       5.878  15.723  12.056  0.00  0.00    +0.163 HD
ATOM      6  H   UNL     1       2.488  16.225  12.811  0.00  0.00    +0.159 HD
ATOM      7  H   UNL     1       4.100  16.751  13.121  0.00  0.00    +0.159 HD
ATOM      8  H   UNL     1       3.342  13.630  10.580  0.00  0.00    +0.159 HD
ATOM      9  H   UNL     1       2.062  14.460  11.375  0.00  0.00    +0.159 HD
ENDROOT
BRANCH   1  10
ATOM     10  C   UNL     1       5.873  14.027  10.766  0.00  0.00    +0.151 C 
BRANCH  10  11
ATOM     11  C   UNL     1       6.890  13.275  11.579  0.00  0.00    -0.028 A 
ATOM     12  C   UNL     1       7.520  13.887  12.673  0.00  0.00    +0.005 A 
ATOM     13  C   UNL     1       7.223  11.949  11.266  0.00  0.00    +0.005 A 
ATOM     14  C   UNL     1       8.443  13.179  13.447  0.00  0.00    +0.000 A 
ATOM     15  C   UNL     1       8.145  11.246  12.040  0.00  0.00    +0.000 A 
ATOM     16  C   UNL     1       8.753  11.860  13.132  0.00  0.00    +0.000 A 
ENDBRANCH  10  11
ENDBRANCH   1  10
TORSDOF 2
ENDMDL
