MODEL 1
REMARK VINA RESULT:    -5.277      0.000      0.000
REMARK INTER + INTRA:          -6.059
REMARK INTER:                  -5.894
REMARK INTRA:                  -0.165
REMARK UNBOUND:                -0.165
REMARK  Name = 1550473
REMARK  2 active torsions:
REMARK  status: ('A' for Active; 'I' for Inactive)
REMARK    1  A    between atoms: N_1  and  C_4
REMARK    2  A    between atoms: C_4  and  C_5
REMARK                            x       y       z     vdW  Elec       q    Type
REMARK                         _______ _______ _______ _____ _____    ______ ____
ROOT
ATOM      1  N   UNL     1       4.630 -14.976  -0.406  0.00  0.00    -0.354 N 
ATOM      2  N   UNL     1       2.349 -14.698  -0.112  0.00  0.00    -0.372 N 
ATOM      3  N   UNL     1       3.679 -12.837  -0.287  0.00  0.00    -0.372 N 
ATOM      4  C   UNL     1       3.569 -14.169  -0.270  0.00  0.00    +0.166 C 
ATOM      5  H   UNL     1       4.483 -15.977  -0.355  0.00  0.00    +0.163 HD
ATOM      6  H   UNL     1       1.529 -14.115  -0.011  0.00  0.00    +0.159 HD
ATOM      7  H   UNL     1       2.200 -15.700  -0.107  0.00  0.00    +0.159 HD
ATOM      8  H   UNL     1       4.572 -12.375  -0.397  0.00  0.00    +0.159 HD
ATOM      9  H   UNL     1       2.872 -12.236  -0.176  0.00  0.00    +0.159 HD
ENDROOT
BRANCH   1  10
ATOM     10  C   UNL     1       5.993 -14.501  -0.637  0.00  0.00    +0.151 C 
BRANCH  10  11
ATOM     11  C   UNL     1       6.807 -14.718   0.608  0.00  0.00    -0.028 A 
ATOM     12  C   UNL     1       7.714 -15.785   0.689  0.00  0.00    +0.005 A 
ATOM     13  C   UNL     1       6.679 -13.858   1.709  0.00  0.00    +0.005 A 
ATOM     14  C   UNL     1       8.492 -15.969   1.835  0.00  0.00    +0.000 A 
ATOM     15  C   UNL     1       7.457 -14.046   2.852  0.00  0.00    +0.000 A 
ATOM     16  C   UNL     1       8.365 -15.100   2.913  0.00  0.00    +0.000 A 
ENDBRANCH  10  11
ENDBRANCH   1  10
TORSDOF 2
ENDMDL
MODEL 2
REMARK VINA RESULT:    -5.255      1.043      1.719
REMARK INTER + INTRA:          -6.034
REMARK INTER:                  -5.884
REMARK INTRA:                  -0.150
REMARK UNBOUND:                -0.165
REMARK  Name = 1550473
REMARK  2 active torsions:
REMARK  status: ('A' for Active; 'I' for Inactive)
REMARK    1  A    between atoms: N_1  and  C_4
REMARK    2  A    between atoms: C_4  and  C_5
REMARK                            x       y       z     vdW  Elec       q    Type
REMARK                         _______ _______ _______ _____ _____    ______ ____
ROOT
ATOM      1  N   UNL     1       4.193 -14.743   0.846  0.00  0.00    -0.354 N 
ATOM      2  N   UNL     1       2.431 -14.752  -0.657  0.00  0.00    -0.372 N 
ATOM      3  N   UNL     1       3.615 -12.811  -0.348  0.00  0.00    -0.372 N 
ATOM      4  C   UNL     1       3.425 -14.100  -0.043  0.00  0.00    +0.166 C 
ATOM      5  H   UNL     1       3.978 -15.712   1.055  0.00  0.00    +0.163 HD
ATOM      6  H   UNL     1       1.837 -14.294  -1.335  0.00  0.00    +0.159 HD
ATOM      7  H   UNL     1       2.248 -15.733  -0.480  0.00  0.00    +0.159 HD
ATOM      8  H   UNL     1       4.344 -12.261   0.085  0.00  0.00    +0.159 HD
ATOM      9  H   UNL     1       3.024 -12.332  -1.015  0.00  0.00    +0.159 HD
ENDROOT
BRANCH   1  10
ATOM     10  C   UNL     1       5.335 -14.139   1.530  0.00  0.00    +0.151 C 
BRANCH  10  11
ATOM     11  C   UNL     1       6.574 -14.928   1.209  0.00  0.00    -0.028 A 
ATOM     12  C   UNL     1       7.042 -15.014  -0.110  0.00  0.00    +0.005 A 
ATOM     13  C   UNL     1       7.287 -15.589   2.221  0.00  0.00    +0.005 A 
ATOM     14  C   UNL     1       8.210 -15.722  -0.404  0.00  0.00    +0.000 A 
ATOM     15  C   UNL     1       8.452 -16.296   1.923  0.00  0.00    +0.000 A 
ATOM     16  C   UNL     1       8.914 -16.360   0.611  0.00  0.00    +0.000 A 
ENDBRANCH  10  11
ENDBRANCH   1  10
TORSDOF 2
ENDMDL
MODEL 3
REMARK VINA RESULT:    -4.954     19.905     20.996
REMARK INTER + INTRA:          -5.698
REMARK INTER:                  -5.562
REMARK INTRA:                  -0.137
REMARK UNBOUND:                -0.165
REMARK  Name = 1550473
REMARK  2 active torsions:
REMARK  status: ('A' for Active; 'I' for Inactive)
REMARK    1  A    between atoms: N_1  and  C_4
REMARK    2  A    between atoms: C_4  and  C_5
REMARK                            x       y       z     vdW  Elec       q    Type
REMARK                         _______ _______ _______ _____ _____    ______ ____
ROOT
ATOM      1  N   UNL     1      -4.410  -2.129  12.012  0.00  0.00    -0.354 N 
ATOM      2  N   UNL     1      -4.594  -2.845   9.817  0.00  0.00    -0.372 N 
ATOM      3  N   UNL     1      -6.427  -1.917  10.838  0.00  0.00    -0.372 N 
ATOM      4  C   UNL     1      -5.145  -2.291  10.904  0.00  0.00    +0.166 C 
ATOM      5  H   UNL     1      -3.453  -2.462  12.008  0.00  0.00    +0.163 HD
ATOM      6  H   UNL     1      -5.123  -2.977   8.966  0.00  0.00    +0.159 HD
ATOM      7  H   UNL     1      -3.623  -3.134   9.801  0.00  0.00    +0.159 HD
ATOM      8  H   UNL     1      -6.904  -1.498  11.626  0.00  0.00    +0.159 HD
ATOM      9  H   UNL     1      -6.976  -2.051   9.999  0.00  0.00    +0.159 HD
ENDROOT
BRANCH   1  10
ATOM     10  C   UNL     1      -4.900  -1.489  13.232  0.00  0.00    +0.151 C 
BRANCH  10  11
ATOM     11  C   UNL     1      -3.823  -0.597  13.785  0.00  0.00    -0.028 A 
ATOM     12  C   UNL     1      -4.072   0.210  14.904  0.00  0.00    +0.005 A 
ATOM     13  C   UNL     1      -2.549  -0.559  13.197  0.00  0.00    +0.005 A 
ATOM     14  C   UNL     1      -3.062   1.017  15.436  0.00  0.00    +0.000 A 
ATOM     15  C   UNL     1      -1.544   0.248  13.731  0.00  0.00    +0.000 A 
ATOM     16  C   UNL     1      -1.801   1.034  14.852  0.00  0.00    +0.000 A 
ENDBRANCH  10  11
ENDBRANCH   1  10
TORSDOF 2
ENDMDL
MODEL 4
REMARK VINA RESULT:    -4.838      2.273      3.271
REMARK INTER + INTRA:          -5.569
REMARK INTER:                  -5.428
REMARK INTRA:                  -0.141
REMARK UNBOUND:                -0.165
REMARK  Name = 1550473
REMARK  2 active torsions:
REMARK  status: ('A' for Active; 'I' for Inactive)
REMARK    1  A    between atoms: N_1  and  C_4
REMARK    2  A    between atoms: C_4  and  C_5
REMARK                            x       y       z     vdW  Elec       q    Type
REMARK                         _______ _______ _______ _____ _____    ______ ____
ROOT
ATOM      1  N   UNL     1       5.503 -12.866   1.492  0.00  0.00    -0.354 N 
ATOM      2  N   UNL     1       4.278 -12.329  -0.399  0.00  0.00    -0.372 N 
ATOM      3  N   UNL     1       5.609 -14.198  -0.433  0.00  0.00    -0.372 N 
ATOM      4  C   UNL     1       5.139 -13.137   0.231  0.00  0.00    +0.166 C 
ATOM      5  H   UNL     1       5.134 -12.029   1.930  0.00  0.00    +0.163 HD
ATOM      6  H   UNL     1       3.983 -12.510  -1.349  0.00  0.00    +0.159 HD
ATOM      7  H   UNL     1       3.876 -11.519   0.057  0.00  0.00    +0.159 HD
ATOM      8  H   UNL     1       6.267 -14.843  -0.016  0.00  0.00    +0.159 HD
ATOM      9  H   UNL     1       5.335 -14.389  -1.389  0.00  0.00    +0.159 HD
ENDROOT
BRANCH   1  10
ATOM     10  C   UNL     1       6.393 -13.711   2.286  0.00  0.00    +0.151 C 
BRANCH  10  11
ATOM     11  C   UNL     1       7.425 -12.845   2.955  0.00  0.00    -0.028 A 
ATOM     12  C   UNL     1       8.445 -13.420   3.726  0.00  0.00    +0.005 A 
ATOM     13  C   UNL     1       7.390 -11.449   2.817  0.00  0.00    +0.005 A 
ATOM     14  C   UNL     1       9.422 -12.618   4.322  0.00  0.00    +0.000 A 
ATOM     15  C   UNL     1       8.366 -10.652   3.415  0.00  0.00    +0.000 A 
ATOM     16  C   UNL     1       9.383 -11.237   4.165  0.00  0.00    +0.000 A 
ENDBRANCH  10  11
ENDBRANCH   1  10
TORSDOF 2
ENDMDL
MODEL 5
REMARK VINA RESULT:    -4.801     13.377     14.478
REMARK INTER + INTRA:          -5.528
REMARK INTER:                  -5.416
REMARK INTRA:                  -0.112
REMARK UNBOUND:                -0.165
REMARK  Name = 1550473
REMARK  2 active torsions:
REMARK  status: ('A' for Active; 'I' for Inactive)
REMARK    1  A    between atoms: N_1  and  C_4
REMARK    2  A    between atoms: C_4  and  C_5
REMARK                            x       y       z     vdW  Elec       q    Type
REMARK                         _______ _______ _______ _____ _____    ______ ____
ROOT
ATOM      1  N   UNL     1       4.379  -4.290 -10.064  0.00  0.00    -0.354 N 
ATOM      2  N   UNL     1       4.700  -2.281 -11.172  0.00  0.00    -0.372 N 
ATOM      3  N   UNL     1       4.445  -2.262  -8.892  0.00  0.00    -0.372 N 
ATOM      4  C   UNL     1       4.505  -2.956 -10.033  0.00  0.00    +0.166 C 
ATOM      5  H   UNL     1       4.404  -4.754 -10.965  0.00  0.00    +0.163 HD
ATOM      6  H   UNL     1       4.802  -1.275 -11.179  0.00  0.00    +0.159 HD
ATOM      7  H   UNL     1       4.771  -2.753 -12.066  0.00  0.00    +0.159 HD
ATOM      8  H   UNL     1       4.294  -2.711  -7.999  0.00  0.00    +0.159 HD
ATOM      9  H   UNL     1       4.533  -1.253  -8.880  0.00  0.00    +0.159 HD
ENDROOT
BRANCH   1  10
ATOM     10  C   UNL     1       4.218  -5.124  -8.875  0.00  0.00    +0.151 C 
BRANCH  10  11
ATOM     11  C   UNL     1       3.532  -6.404  -9.262  0.00  0.00    -0.028 A 
ATOM     12  C   UNL     1       3.876  -7.066 -10.450  0.00  0.00    +0.005 A 
ATOM     13  C   UNL     1       2.540  -6.965  -8.443  0.00  0.00    +0.005 A 
ATOM     14  C   UNL     1       3.260  -8.271 -10.795  0.00  0.00    +0.000 A 
ATOM     15  C   UNL     1       1.926  -8.168  -8.791  0.00  0.00    +0.000 A 
ATOM     16  C   UNL     1       2.288  -8.822  -9.967  0.00  0.00    +0.000 A 
ENDBRANCH  10  11
ENDBRANCH   1  10
TORSDOF 2
ENDMDL
MODEL 6
REMARK VINA RESULT:    -4.707      2.436      2.932
REMARK INTER + INTRA:          -5.422
REMARK INTER:                  -5.291
REMARK INTRA:                  -0.131
REMARK UNBOUND:                -0.165
REMARK  Name = 1550473
REMARK  2 active torsions:
REMARK  status: ('A' for Active; 'I' for Inactive)
REMARK    1  A    between atoms: N_1  and  C_4
REMARK    2  A    between atoms: C_4  and  C_5
REMARK                            x       y       z     vdW  Elec       q    Type
REMARK                         _______ _______ _______ _____ _____    ______ ____
ROOT
ATOM      1  N   UNL     1       5.537 -12.992   1.381  0.00  0.00    -0.354 N 
ATOM      2  N   UNL     1       4.112 -12.314  -0.314  0.00  0.00    -0.372 N 
ATOM      3  N   UNL     1       5.852 -13.720  -0.824  0.00  0.00    -0.372 N 
ATOM      4  C   UNL     1       5.178 -13.015   0.090  0.00  0.00    +0.166 C 
ATOM      5  H   UNL     1       5.003 -12.413   2.019  0.00  0.00    +0.163 HD
ATOM      6  H   UNL     1       3.815 -12.315  -1.281  0.00  0.00    +0.159 HD
ATOM      7  H   UNL     1       3.552 -11.773   0.334  0.00  0.00    +0.159 HD
ATOM      8  H   UNL     1       6.669 -14.265  -0.584  0.00  0.00    +0.159 HD
ATOM      9  H   UNL     1       5.577 -13.724  -1.799  0.00  0.00    +0.159 HD
ENDROOT
BRANCH   1  10
ATOM     10  C   UNL     1       6.650 -13.762   1.934  0.00  0.00    +0.151 C 
BRANCH  10  11
ATOM     11  C   UNL     1       6.102 -14.884   2.771  0.00  0.00    -0.028 A 
ATOM     12  C   UNL     1       6.942 -15.916   3.216  0.00  0.00    +0.005 A 
ATOM     13  C   UNL     1       4.746 -14.919   3.129  0.00  0.00    +0.005 A 
ATOM     14  C   UNL     1       6.440 -16.943   4.019  0.00  0.00    +0.000 A 
ATOM     15  C   UNL     1       4.248 -15.946   3.930  0.00  0.00    +0.000 A 
ATOM     16  C   UNL     1       5.096 -16.957   4.377  0.00  0.00    +0.000 A 
ENDBRANCH  10  11
ENDBRANCH   1  10
TORSDOF 2
ENDMDL
MODEL 7
REMARK VINA RESULT:    -4.696     22.592     23.557
REMARK INTER + INTRA:          -5.411
REMARK INTER:                  -5.286
REMARK INTRA:                  -0.125
REMARK UNBOUND:                -0.165
REMARK  Name = 1550473
REMARK  2 active torsions:
REMARK  status: ('A' for Active; 'I' for Inactive)
REMARK    1  A    between atoms: N_1  and  C_4
REMARK    2  A    between atoms: C_4  and  C_5
REMARK                            x       y       z     vdW  Elec       q    Type
REMARK                         _______ _______ _______ _____ _____    ______ ____
ROOT
ATOM      1  N   UNL     1      13.358   7.119   2.412  0.00  0.00    -0.354 N 
ATOM      2  N   UNL     1      12.300   6.536   4.388  0.00  0.00    -0.372 N 
ATOM      3  N   UNL     1      14.431   5.776   4.006  0.00  0.00    -0.372 N 
ATOM      4  C   UNL     1      13.372   6.479   3.590  0.00  0.00    +0.166 C 
ATOM      5  H   UNL     1      12.514   7.609   2.141  0.00  0.00    +0.163 HD
ATOM      6  H   UNL     1      12.282   6.067   5.284  0.00  0.00    +0.159 HD
ATOM      7  H   UNL     1      11.474   7.066   4.135  0.00  0.00    +0.159 HD
ATOM      8  H   UNL     1      15.269   5.689   3.447  0.00  0.00    +0.159 HD
ATOM      9  H   UNL     1      14.428   5.290   4.894  0.00  0.00    +0.159 HD
ENDROOT
BRANCH   1  10
ATOM     10  C   UNL     1      14.494   7.164   1.493  0.00  0.00    +0.151 C 
BRANCH  10  11
ATOM     11  C   UNL     1      14.000   7.524   0.119  0.00  0.00    -0.028 A 
ATOM     12  C   UNL     1      14.856   7.447  -0.989  0.00  0.00    +0.005 A 
ATOM     13  C   UNL     1      12.674   7.939  -0.082  0.00  0.00    +0.005 A 
ATOM     14  C   UNL     1      14.389   7.753  -2.269  0.00  0.00    +0.000 A 
ATOM     15  C   UNL     1      12.212   8.244  -1.362  0.00  0.00    +0.000 A 
ATOM     16  C   UNL     1      13.069   8.148  -2.456  0.00  0.00    +0.000 A 
ENDBRANCH  10  11
ENDBRANCH   1  10
TORSDOF 2
ENDMDL
MODEL 8
REMARK VINA RESULT:    -4.580      3.330      4.995
REMARK INTER + INTRA:          -5.281
REMARK INTER:                  -5.153
REMARK INTRA:                  -0.127
REMARK UNBOUND:                -0.165
REMARK  Name = 1550473
REMARK  2 active torsions:
REMARK  status: ('A' for Active; 'I' for Inactive)
REMARK    1  A    between atoms: N_1  and  C_4
REMARK    2  A    between atoms: C_4  and  C_5
REMARK                            x       y       z     vdW  Elec       q    Type
REMARK                         _______ _______ _______ _____ _____    ______ ____
ROOT
ATOM      1  N   UNL     1       9.013 -16.248  -0.354  0.00  0.00    -0.354 N 
ATOM      2  N   UNL     1      11.284 -16.366  -0.794  0.00  0.00    -0.372 N 
ATOM      3  N   UNL     1      10.504 -17.132   1.224  0.00  0.00    -0.372 N 
ATOM      4  C   UNL     1      10.252 -16.582   0.031  0.00  0.00    +0.166 C 
ATOM      5  H   UNL     1       8.892 -15.808  -1.259  0.00  0.00    +0.163 HD
ATOM      6  H   UNL     1      12.229 -16.611  -0.532  0.00  0.00    +0.159 HD
ATOM      7  H   UNL     1      11.155 -15.968  -1.716  0.00  0.00    +0.159 HD
ATOM      8  H   UNL     1       9.769 -17.315   1.895  0.00  0.00    +0.159 HD
ATOM      9  H   UNL     1      11.445 -17.373   1.508  0.00  0.00    +0.159 HD
ENDROOT
BRANCH   1  10
ATOM     10  C   UNL     1       7.815 -16.491   0.447  0.00  0.00    +0.151 C 
BRANCH  10  11
ATOM     11  C   UNL     1       7.055 -15.202   0.597  0.00  0.00    -0.028 A 
ATOM     12  C   UNL     1       6.299 -14.693  -0.470  0.00  0.00    +0.005 A 
ATOM     13  C   UNL     1       7.081 -14.487   1.804  0.00  0.00    +0.005 A 
ATOM     14  C   UNL     1       5.569 -13.511  -0.322  0.00  0.00    +0.000 A 
ATOM     15  C   UNL     1       6.352 -13.307   1.948  0.00  0.00    +0.000 A 
ATOM     16  C   UNL     1       5.594 -12.821   0.886  0.00  0.00    +0.000 A 
ENDBRANCH  10  11
ENDBRANCH   1  10
TORSDOF 2
ENDMDL
MODEL 9
REMARK VINA RESULT:    -4.556      2.304      2.808
REMARK INTER + INTRA:          -5.254
REMARK INTER:                  -5.151
REMARK INTRA:                  -0.102
REMARK UNBOUND:                -0.165
REMARK  Name = 1550473
REMARK  2 active torsions:
REMARK  status: ('A' for Active; 'I' for Inactive)
REMARK    1  A    between atoms: N_1  and  C_4
REMARK    2  A    between atoms: C_4  and  C_5
REMARK                            x       y       z     vdW  Elec       q    Type
REMARK                         _______ _______ _______ _____ _____    ______ ____
ROOT
ATOM      1  N   UNL     1       5.255 -14.233   0.215  0.00  0.00    -0.354 N 
ATOM      2  N   UNL     1       4.006 -12.322  -0.173  0.00  0.00    -0.372 N 
ATOM      3  N   UNL     1       3.005 -14.371  -0.426  0.00  0.00    -0.372 N 
ATOM      4  C   UNL     1       4.095 -13.656  -0.126  0.00  0.00    +0.166 C 
ATOM      5  H   UNL     1       6.053 -13.636   0.402  0.00  0.00    +0.163 HD
ATOM      6  H   UNL     1       3.143 -11.858  -0.424  0.00  0.00    +0.159 HD
ATOM      7  H   UNL     1       4.792 -11.726   0.059  0.00  0.00    +0.159 HD
ATOM      8  H   UNL     1       3.009 -15.382  -0.415  0.00  0.00    +0.159 HD
ATOM      9  H   UNL     1       2.136 -13.926  -0.691  0.00  0.00    +0.159 HD
ENDROOT
BRANCH   1  10
ATOM     10  C   UNL     1       5.443 -15.676   0.349  0.00  0.00    +0.151 C 
BRANCH  10  11
ATOM     11  C   UNL     1       5.513 -16.030   1.808  0.00  0.00    -0.028 A 
ATOM     12  C   UNL     1       4.418 -15.791   2.652  0.00  0.00    +0.005 A 
ATOM     13  C   UNL     1       6.669 -16.609   2.353  0.00  0.00    +0.005 A 
ATOM     14  C   UNL     1       4.472 -16.148   4.002  0.00  0.00    +0.000 A 
ATOM     15  C   UNL     1       6.719 -16.963   3.702  0.00  0.00    +0.000 A 
ATOM     16  C   UNL     1       5.620 -16.734   4.525  0.00  0.00    +0.000 A 
ENDBRANCH  10  11
ENDBRANCH   1  10
TORSDOF 2
ENDMDL
