MODEL 1
REMARK VINA RESULT:    -4.370      0.000      0.000
REMARK INTER + INTRA:          -5.041
REMARK INTER:                  -4.880
REMARK INTRA:                  -0.160
REMARK UNBOUND:                -0.160
REMARK  Name = 1550473
REMARK  2 active torsions:
REMARK  status: ('A' for Active; 'I' for Inactive)
REMARK    1  A    between atoms: N_1  and  C_4
REMARK    2  A    between atoms: C_4  and  C_5
REMARK                            x       y       z     vdW  Elec       q    Type
REMARK                         _______ _______ _______ _____ _____    ______ ____
ROOT
ATOM      1  N   UNL     1      10.182  10.036  12.412  0.00  0.00    -0.354 N 
ATOM      2  N   UNL     1       9.514   9.711  14.606  0.00  0.00    -0.372 N 
ATOM      3  N   UNL     1       9.051  11.716  13.591  0.00  0.00    -0.372 N 
ATOM      4  C   UNL     1       9.586  10.492  13.522  0.00  0.00    +0.166 C 
ATOM      5  H   UNL     1      10.594   9.110  12.433  0.00  0.00    +0.163 HD
ATOM      6  H   UNL     1       9.068  10.026  15.456  0.00  0.00    +0.159 HD
ATOM      7  H   UNL     1       9.887   8.769  14.609  0.00  0.00    +0.159 HD
ATOM      8  H   UNL     1       9.078  12.357  12.810  0.00  0.00    +0.159 HD
ATOM      9  H   UNL     1       8.611  12.055  14.438  0.00  0.00    +0.159 HD
ENDROOT
BRANCH   1  10
ATOM     10  C   UNL     1      10.265  10.787  11.161  0.00  0.00    +0.151 C 
BRANCH  10  11
ATOM     11  C   UNL     1      11.600  11.476  11.090  0.00  0.00    -0.028 A 
ATOM     12  C   UNL     1      12.760  10.829  11.540  0.00  0.00    +0.005 A 
ATOM     13  C   UNL     1      11.713  12.774  10.568  0.00  0.00    +0.005 A 
ATOM     14  C   UNL     1      14.005  11.457  11.447  0.00  0.00    +0.000 A 
ATOM     15  C   UNL     1      12.957  13.398  10.477  0.00  0.00    +0.000 A 
ATOM     16  C   UNL     1      14.103  12.738  10.914  0.00  0.00    +0.000 A 
ENDBRANCH  10  11
ENDBRANCH   1  10
TORSDOF 2
ENDMDL
MODEL 2
REMARK VINA RESULT:    -4.188     26.029     27.272
REMARK INTER + INTRA:          -4.838
REMARK INTER:                  -4.717
REMARK INTRA:                  -0.121
REMARK UNBOUND:                -0.160
REMARK  Name = 1550473
REMARK  2 active torsions:
REMARK  status: ('A' for Active; 'I' for Inactive)
REMARK    1  A    between atoms: N_1  and  C_4
REMARK    2  A    between atoms: C_4  and  C_5
REMARK                            x       y       z     vdW  Elec       q    Type
REMARK                         _______ _______ _______ _____ _____    ______ ____
ROOT
ATOM      1  N   UNL     1      -1.947  -4.077  -7.779  0.00  0.00    -0.354 N 
ATOM      2  N   UNL     1      -2.772  -6.240  -7.698  0.00  0.00    -0.372 N 
ATOM      3  N   UNL     1      -4.241  -4.503  -7.998  0.00  0.00    -0.372 N 
ATOM      4  C   UNL     1      -2.984  -4.925  -7.826  0.00  0.00    +0.166 C 
ATOM      5  H   UNL     1      -1.022  -4.457  -7.615  0.00  0.00    +0.163 HD
ATOM      6  H   UNL     1      -3.534  -6.904  -7.732  0.00  0.00    +0.159 HD
ATOM      7  H   UNL     1      -1.841  -6.621  -7.580  0.00  0.00    +0.159 HD
ATOM      8  H   UNL     1      -4.468  -3.523  -8.095  0.00  0.00    +0.159 HD
ATOM      9  H   UNL     1      -5.018  -5.151  -8.024  0.00  0.00    +0.159 HD
ENDROOT
BRANCH   1  10
ATOM     10  C   UNL     1      -2.064  -2.632  -7.961  0.00  0.00    +0.151 C 
BRANCH  10  11
ATOM     11  C   UNL     1      -0.728  -1.994  -7.696  0.00  0.00    -0.028 A 
ATOM     12  C   UNL     1      -0.452  -0.700  -8.162  0.00  0.00    +0.005 A 
ATOM     13  C   UNL     1       0.264  -2.676  -6.974  0.00  0.00    +0.005 A 
ATOM     14  C   UNL     1       0.778  -0.096  -7.890  0.00  0.00    +0.000 A 
ATOM     15  C   UNL     1       1.491  -2.069  -6.705  0.00  0.00    +0.000 A 
ATOM     16  C   UNL     1       1.746  -0.778  -7.161  0.00  0.00    +0.000 A 
ENDBRANCH  10  11
ENDBRANCH   1  10
TORSDOF 2
ENDMDL
MODEL 3
REMARK VINA RESULT:    -4.063     46.673     47.301
REMARK INTER + INTRA:          -4.699
REMARK INTER:                  -4.564
REMARK INTRA:                  -0.135
REMARK UNBOUND:                -0.160
REMARK  Name = 1550473
REMARK  2 active torsions:
REMARK  status: ('A' for Active; 'I' for Inactive)
REMARK    1  A    between atoms: N_1  and  C_4
REMARK    2  A    between atoms: C_4  and  C_5
REMARK                            x       y       z     vdW  Elec       q    Type
REMARK                         _______ _______ _______ _____ _____    ______ ____
ROOT
ATOM      1  N   UNL     1     -10.412   0.096 -28.592  0.00  0.00    -0.354 N 
ATOM      2  N   UNL     1      -9.307  -1.425 -27.239  0.00  0.00    -0.372 N 
ATOM      3  N   UNL     1     -11.591  -1.262 -27.089  0.00  0.00    -0.372 N 
ATOM      4  C   UNL     1     -10.447  -0.854 -27.648  0.00  0.00    +0.166 C 
ATOM      5  H   UNL     1      -9.510   0.382 -28.954  0.00  0.00    +0.163 HD
ATOM      6  H   UNL     1      -9.302  -2.147 -26.531  0.00  0.00    +0.159 HD
ATOM      7  H   UNL     1      -8.411  -1.170 -27.636  0.00  0.00    +0.159 HD
ATOM      8  H   UNL     1     -12.485  -0.866 -27.349  0.00  0.00    +0.159 HD
ATOM      9  H   UNL     1     -11.605  -1.975 -26.370  0.00  0.00    +0.159 HD
ENDROOT
BRANCH   1  10
ATOM     10  C   UNL     1     -11.601   0.743 -29.144  0.00  0.00    +0.151 C 
BRANCH  10  11
ATOM     11  C   UNL     1     -11.454   2.234 -29.013  0.00  0.00    -0.028 A 
ATOM     12  C   UNL     1     -12.555   3.030 -28.664  0.00  0.00    +0.005 A 
ATOM     13  C   UNL     1     -10.215   2.857 -29.231  0.00  0.00    +0.005 A 
ATOM     14  C   UNL     1     -12.413   4.411 -28.513  0.00  0.00    +0.000 A 
ATOM     15  C   UNL     1     -10.078   4.236 -29.080  0.00  0.00    +0.000 A 
ATOM     16  C   UNL     1     -11.176   5.013 -28.719  0.00  0.00    +0.000 A 
ENDBRANCH  10  11
ENDBRANCH   1  10
TORSDOF 2
ENDMDL
MODEL 4
REMARK VINA RESULT:    -3.986     46.672     48.048
REMARK INTER + INTRA:          -4.612
REMARK INTER:                  -4.506
REMARK INTRA:                  -0.106
REMARK UNBOUND:                -0.160
REMARK  Name = 1550473
REMARK  2 active torsions:
REMARK  status: ('A' for Active; 'I' for Inactive)
REMARK    1  A    between atoms: N_1  and  C_4
REMARK    2  A    between atoms: C_4  and  C_5
REMARK                            x       y       z     vdW  Elec       q    Type
REMARK                         _______ _______ _______ _____ _____    ______ ____
ROOT
ATOM      1  N   UNL     1     -22.271  -9.676 -16.224  0.00  0.00    -0.354 N 
ATOM      2  N   UNL     1     -22.673 -11.951 -16.059  0.00  0.00    -0.372 N 
ATOM      3  N   UNL     1     -24.291 -10.602 -16.967  0.00  0.00    -0.372 N 
ATOM      4  C   UNL     1     -23.078 -10.727 -16.419  0.00  0.00    +0.166 C 
ATOM      5  H   UNL     1     -21.376  -9.833 -15.775  0.00  0.00    +0.163 HD
ATOM      6  H   UNL     1     -23.259 -12.763 -16.197  0.00  0.00    +0.159 HD
ATOM      7  H   UNL     1     -21.759 -12.112 -15.653  0.00  0.00    +0.159 HD
ATOM      8  H   UNL     1     -24.659  -9.705 -17.255  0.00  0.00    +0.159 HD
ATOM      9  H   UNL     1     -24.897 -11.401 -17.103  0.00  0.00    +0.159 HD
ENDROOT
BRANCH   1  10
ATOM     10  C   UNL     1     -22.596  -8.309 -16.629  0.00  0.00    +0.151 C 
BRANCH  10  11
ATOM     11  C   UNL     1     -21.324  -7.585 -16.976  0.00  0.00    -0.028 A 
ATOM     12  C   UNL     1     -20.264  -7.528 -16.059  0.00  0.00    +0.005 A 
ATOM     13  C   UNL     1     -21.171  -6.958 -18.222  0.00  0.00    +0.005 A 
ATOM     14  C   UNL     1     -19.072  -6.881 -16.392  0.00  0.00    +0.000 A 
ATOM     15  C   UNL     1     -19.979  -6.313 -18.551  0.00  0.00    +0.000 A 
ATOM     16  C   UNL     1     -18.929  -6.276 -17.637  0.00  0.00    +0.000 A 
ENDBRANCH  10  11
ENDBRANCH   1  10
TORSDOF 2
ENDMDL
MODEL 5
REMARK VINA RESULT:    -3.932     79.664     80.845
REMARK INTER + INTRA:          -4.552
REMARK INTER:                  -4.392
REMARK INTRA:                  -0.160
REMARK UNBOUND:                -0.160
REMARK  Name = 1550473
REMARK  2 active torsions:
REMARK  status: ('A' for Active; 'I' for Inactive)
REMARK    1  A    between atoms: N_1  and  C_4
REMARK    2  A    between atoms: C_4  and  C_5
REMARK                            x       y       z     vdW  Elec       q    Type
REMARK                         _______ _______ _______ _____ _____    ______ ____
ROOT
ATOM      1  N   UNL     1     -39.390 -21.216 -41.304  0.00  0.00    -0.354 N 
ATOM      2  N   UNL     1     -39.636 -23.104 -39.986  0.00  0.00    -0.372 N 
ATOM      3  N   UNL     1     -37.620 -22.007 -39.988  0.00  0.00    -0.372 N 
ATOM      4  C   UNL     1     -38.878 -22.096 -40.434  0.00  0.00    +0.166 C 
ATOM      5  H   UNL     1     -40.341 -21.356 -41.627  0.00  0.00    +0.163 HD
ATOM      6  H   UNL     1     -39.277 -23.782 -39.326  0.00  0.00    +0.159 HD
ATOM      7  H   UNL     1     -40.600 -23.215 -40.275  0.00  0.00    +0.159 HD
ATOM      8  H   UNL     1     -36.995 -21.273 -40.292  0.00  0.00    +0.159 HD
ATOM      9  H   UNL     1     -37.240 -22.682 -39.337  0.00  0.00    +0.159 HD
ENDROOT
BRANCH   1  10
ATOM     10  C   UNL     1     -38.666 -20.052 -41.812  0.00  0.00    +0.151 C 
BRANCH  10  11
ATOM     11  C   UNL     1     -38.296 -20.293 -43.250  0.00  0.00    -0.028 A 
ATOM     12  C   UNL     1     -37.055 -19.868 -43.747  0.00  0.00    +0.005 A 
ATOM     13  C   UNL     1     -39.181 -20.950 -44.119  0.00  0.00    +0.005 A 
ATOM     14  C   UNL     1     -36.699 -20.118 -45.074  0.00  0.00    +0.000 A 
ATOM     15  C   UNL     1     -38.822 -21.197 -45.444  0.00  0.00    +0.000 A 
ATOM     16  C   UNL     1     -37.580 -20.783 -45.921  0.00  0.00    +0.000 A 
ENDBRANCH  10  11
ENDBRANCH   1  10
TORSDOF 2
ENDMDL
MODEL 6
REMARK VINA RESULT:    -3.865     62.319     63.591
REMARK INTER + INTRA:          -4.478
REMARK INTER:                  -4.379
REMARK INTRA:                  -0.099
REMARK UNBOUND:                -0.160
REMARK  Name = 1550473
REMARK  2 active torsions:
REMARK  status: ('A' for Active; 'I' for Inactive)
REMARK    1  A    between atoms: N_1  and  C_4
REMARK    2  A    between atoms: C_4  and  C_5
REMARK                            x       y       z     vdW  Elec       q    Type
REMARK                         _______ _______ _______ _____ _____    ______ ____
ROOT
ATOM      1  N   UNL     1     -25.018 -14.225 -33.146  0.00  0.00    -0.354 N 
ATOM      2  N   UNL     1     -27.101 -14.178 -32.135  0.00  0.00    -0.372 N 
ATOM      3  N   UNL     1     -25.332 -13.168 -31.079  0.00  0.00    -0.372 N 
ATOM      4  C   UNL     1     -25.802 -13.856 -32.125  0.00  0.00    +0.166 C 
ATOM      5  H   UNL     1     -25.428 -14.772 -33.895  0.00  0.00    +0.163 HD
ATOM      6  H   UNL     1     -27.718 -13.910 -31.380  0.00  0.00    +0.159 HD
ATOM      7  H   UNL     1     -27.518 -14.685 -32.906  0.00  0.00    +0.159 HD
ATOM      8  H   UNL     1     -24.360 -12.899 -31.008  0.00  0.00    +0.159 HD
ATOM      9  H   UNL     1     -25.931 -12.900 -30.308  0.00  0.00    +0.159 HD
ENDROOT
BRANCH   1  10
ATOM     10  C   UNL     1     -23.602 -13.879 -33.257  0.00  0.00    +0.151 C 
BRANCH  10  11
ATOM     11  C   UNL     1     -23.194 -13.937 -34.704  0.00  0.00    -0.028 A 
ATOM     12  C   UNL     1     -22.714 -12.791 -35.355  0.00  0.00    +0.005 A 
ATOM     13  C   UNL     1     -23.280 -15.136 -35.427  0.00  0.00    +0.005 A 
ATOM     14  C   UNL     1     -22.307 -12.851 -36.690  0.00  0.00    +0.000 A 
ATOM     15  C   UNL     1     -22.873 -15.192 -36.760  0.00  0.00    +0.000 A 
ATOM     16  C   UNL     1     -22.384 -14.050 -37.390  0.00  0.00    +0.000 A 
ENDBRANCH  10  11
ENDBRANCH   1  10
TORSDOF 2
ENDMDL
MODEL 7
REMARK VINA RESULT:    -3.815     15.306     16.714
REMARK INTER + INTRA:          -4.422
REMARK INTER:                  -4.242
REMARK INTRA:                  -0.180
REMARK UNBOUND:                -0.160
REMARK  Name = 1550473
REMARK  2 active torsions:
REMARK  status: ('A' for Active; 'I' for Inactive)
REMARK    1  A    between atoms: N_1  and  C_4
REMARK    2  A    between atoms: C_4  and  C_5
REMARK                            x       y       z     vdW  Elec       q    Type
REMARK                         _______ _______ _______ _____ _____    ______ ____
ROOT
ATOM      1  N   UNL     1      10.495   4.716  28.937  0.00  0.00    -0.354 N 
ATOM      2  N   UNL     1       8.254   4.144  28.812  0.00  0.00    -0.372 N 
ATOM      3  N   UNL     1       8.820   6.291  29.389  0.00  0.00    -0.372 N 
ATOM      4  C   UNL     1       9.204   5.057  29.048  0.00  0.00    +0.166 C 
ATOM      5  H   UNL     1      10.721   3.756  28.705  0.00  0.00    +0.163 HD
ATOM      6  H   UNL     1       7.272   4.372  28.884  0.00  0.00    +0.159 HD
ATOM      7  H   UNL     1       8.482   3.197  28.535  0.00  0.00    +0.159 HD
ATOM      8  H   UNL     1       9.487   7.025  29.586  0.00  0.00    +0.159 HD
ATOM      9  H   UNL     1       7.841   6.536  29.478  0.00  0.00    +0.159 HD
ENDROOT
BRANCH   1  10
ATOM     10  C   UNL     1      11.605   5.649  29.121  0.00  0.00    +0.151 C 
BRANCH  10  11
ATOM     11  C   UNL     1      12.083   6.115  27.773  0.00  0.00    -0.028 A 
ATOM     12  C   UNL     1      12.488   5.188  26.802  0.00  0.00    +0.005 A 
ATOM     13  C   UNL     1      12.127   7.482  27.459  0.00  0.00    +0.005 A 
ATOM     14  C   UNL     1      12.904   5.619  25.539  0.00  0.00    +0.000 A 
ATOM     15  C   UNL     1      12.543   7.908  26.198  0.00  0.00    +0.000 A 
ATOM     16  C   UNL     1      12.929   6.976  25.237  0.00  0.00    +0.000 A 
ENDBRANCH  10  11
ENDBRANCH   1  10
TORSDOF 2
ENDMDL
MODEL 8
REMARK VINA RESULT:    -3.766     27.447     28.948
REMARK INTER + INTRA:          -4.366
REMARK INTER:                  -4.246
REMARK INTRA:                  -0.120
REMARK UNBOUND:                -0.160
REMARK  Name = 1550473
REMARK  2 active torsions:
REMARK  status: ('A' for Active; 'I' for Inactive)
REMARK    1  A    between atoms: N_1  and  C_4
REMARK    2  A    between atoms: C_4  and  C_5
REMARK                            x       y       z     vdW  Elec       q    Type
REMARK                         _______ _______ _______ _____ _____    ______ ____
ROOT
ATOM      1  N   UNL     1      -0.138  -2.195  -9.123  0.00  0.00    -0.354 N 
ATOM      2  N   UNL     1       1.046  -0.928 -10.658  0.00  0.00    -0.372 N 
ATOM      3  N   UNL     1      -0.471   0.119  -9.291  0.00  0.00    -0.372 N 
ATOM      4  C   UNL     1       0.137  -1.008  -9.680  0.00  0.00    +0.166 C 
ATOM      5  H   UNL     1       0.335  -3.016  -9.484  0.00  0.00    +0.163 HD
ATOM      6  H   UNL     1       1.277  -0.045 -11.095  0.00  0.00    +0.159 HD
ATOM      7  H   UNL     1       1.551  -1.743 -10.985  0.00  0.00    +0.159 HD
ATOM      8  H   UNL     1      -1.171   0.125  -8.562  0.00  0.00    +0.159 HD
ATOM      9  H   UNL     1      -0.262   1.010  -9.724  0.00  0.00    +0.159 HD
ENDROOT
BRANCH   1  10
ATOM     10  C   UNL     1      -1.072  -2.382  -8.015  0.00  0.00    +0.151 C 
BRANCH  10  11
ATOM     11  C   UNL     1      -1.927  -3.588  -8.292  0.00  0.00    -0.028 A 
ATOM     12  C   UNL     1      -3.314  -3.539  -8.091  0.00  0.00    +0.005 A 
ATOM     13  C   UNL     1      -1.357  -4.781  -8.761  0.00  0.00    +0.005 A 
ATOM     14  C   UNL     1      -4.113  -4.649  -8.376  0.00  0.00    +0.000 A 
ATOM     15  C   UNL     1      -2.157  -5.888  -9.044  0.00  0.00    +0.000 A 
ATOM     16  C   UNL     1      -3.535  -5.821  -8.854  0.00  0.00    +0.000 A 
ENDBRANCH  10  11
ENDBRANCH   1  10
TORSDOF 2
ENDMDL
MODEL 9
REMARK VINA RESULT:    -3.684     39.486     40.681
REMARK INTER + INTRA:          -4.275
REMARK INTER:                  -4.152
REMARK INTRA:                  -0.123
REMARK UNBOUND:                -0.160
REMARK  Name = 1550473
REMARK  2 active torsions:
REMARK  status: ('A' for Active; 'I' for Inactive)
REMARK    1  A    between atoms: N_1  and  C_4
REMARK    2  A    between atoms: C_4  and  C_5
REMARK                            x       y       z     vdW  Elec       q    Type
REMARK                         _______ _______ _______ _____ _____    ______ ____
ROOT
ATOM      1  N   UNL     1      -4.893   0.038 -21.407  0.00  0.00    -0.354 N 
ATOM      2  N   UNL     1      -4.965   0.158 -19.095  0.00  0.00    -0.372 N 
ATOM      3  N   UNL     1      -5.421   2.045 -20.318  0.00  0.00    -0.372 N 
ATOM      4  C   UNL     1      -5.093   0.749 -20.289  0.00  0.00    +0.166 C 
ATOM      5  H   UNL     1      -4.617  -0.934 -21.316  0.00  0.00    +0.163 HD
ATOM      6  H   UNL     1      -5.114   0.668 -18.234  0.00  0.00    +0.159 HD
ATOM      7  H   UNL     1      -4.734  -0.825 -19.008  0.00  0.00    +0.159 HD
ATOM      8  H   UNL     1      -5.527   2.551 -21.187  0.00  0.00    +0.159 HD
ATOM      9  H   UNL     1      -5.562   2.575 -19.467  0.00  0.00    +0.159 HD
ENDROOT
BRANCH   1  10
ATOM     10  C   UNL     1      -5.059   0.573 -22.757  0.00  0.00    +0.151 C 
BRANCH  10  11
ATOM     11  C   UNL     1      -5.881  -0.390 -23.569  0.00  0.00    -0.028 A 
ATOM     12  C   UNL     1      -6.917   0.076 -24.391  0.00  0.00    +0.005 A 
ATOM     13  C   UNL     1      -5.625  -1.769 -23.524  0.00  0.00    +0.005 A 
ATOM     14  C   UNL     1      -7.662  -0.814 -25.168  0.00  0.00    +0.000 A 
ATOM     15  C   UNL     1      -6.371  -2.655 -24.301  0.00  0.00    +0.000 A 
ATOM     16  C   UNL     1      -7.387  -2.177 -25.125  0.00  0.00    +0.000 A 
ENDBRANCH  10  11
ENDBRANCH   1  10
TORSDOF 2
ENDMDL
