MODEL 1
REMARK VINA RESULT:    -5.469      0.000      0.000
REMARK INTER + INTRA:          -6.248
REMARK INTER:                  -6.108
REMARK INTRA:                  -0.140
REMARK UNBOUND:                -0.140
REMARK  Name = 1550473
REMARK  2 active torsions:
REMARK  status: ('A' for Active; 'I' for Inactive)
REMARK    1  A    between atoms: N_1  and  C_4
REMARK    2  A    between atoms: C_4  and  C_5
REMARK                            x       y       z     vdW  Elec       q    Type
REMARK                         _______ _______ _______ _____ _____    ______ ____
ROOT
ATOM      1  N   UNL     1      -8.754  -2.866  13.116  0.00  0.00    -0.354 N 
ATOM      2  N   UNL     1      -9.452  -2.629  15.311  0.00  0.00    -0.372 N 
ATOM      3  N   UNL     1      -9.025  -0.745  14.073  0.00  0.00    -0.372 N 
ATOM      4  C   UNL     1      -9.072  -2.079  14.152  0.00  0.00    +0.166 C 
ATOM      5  H   UNL     1      -8.781  -3.871  13.249  0.00  0.00    +0.163 HD
ATOM      6  H   UNL     1      -9.702  -2.060  16.109  0.00  0.00    +0.159 HD
ATOM      7  H   UNL     1      -9.523  -3.632  15.427  0.00  0.00    +0.159 HD
ATOM      8  H   UNL     1      -8.741  -0.268  13.228  0.00  0.00    +0.159 HD
ATOM      9  H   UNL     1      -9.260  -0.158  14.864  0.00  0.00    +0.159 HD
ENDROOT
BRANCH   1  10
ATOM     10  C   UNL     1      -8.380  -2.367  11.794  0.00  0.00    +0.151 C 
BRANCH  10  11
ATOM     11  C   UNL     1      -7.161  -3.108  11.316  0.00  0.00    -0.028 A 
ATOM     12  C   UNL     1      -6.171  -3.510  12.224  0.00  0.00    +0.005 A 
ATOM     13  C   UNL     1      -6.995  -3.417   9.957  0.00  0.00    +0.005 A 
ATOM     14  C   UNL     1      -5.053  -4.224  11.785  0.00  0.00    +0.000 A 
ATOM     15  C   UNL     1      -5.877  -4.130   9.523  0.00  0.00    +0.000 A 
ATOM     16  C   UNL     1      -4.908  -4.535  10.437  0.00  0.00    +0.000 A 
ENDBRANCH  10  11
ENDBRANCH   1  10
TORSDOF 2
ENDMDL
MODEL 2
REMARK VINA RESULT:    -5.242     10.137     11.029
REMARK INTER + INTRA:          -5.995
REMARK INTER:                  -5.867
REMARK INTRA:                  -0.128
REMARK UNBOUND:                -0.140
REMARK  Name = 1550473
REMARK  2 active torsions:
REMARK  status: ('A' for Active; 'I' for Inactive)
REMARK    1  A    between atoms: N_1  and  C_4
REMARK    2  A    between atoms: C_4  and  C_5
REMARK                            x       y       z     vdW  Elec       q    Type
REMARK                         _______ _______ _______ _____ _____    ______ ____
ROOT
ATOM      1  N   UNL     1     -10.911   1.789   3.606  0.00  0.00    -0.354 N 
ATOM      2  N   UNL     1      -9.737   0.258   2.325  0.00  0.00    -0.372 N 
ATOM      3  N   UNL     1     -12.005   0.001   2.559  0.00  0.00    -0.372 N 
ATOM      4  C   UNL     1     -10.895   0.691   2.838  0.00  0.00    +0.166 C 
ATOM      5  H   UNL     1     -10.031   2.250   3.806  0.00  0.00    +0.163 HD
ATOM      6  H   UNL     1      -9.695  -0.565   1.738  0.00  0.00    +0.159 HD
ATOM      7  H   UNL     1      -8.866   0.747   2.488  0.00  0.00    +0.159 HD
ATOM      8  H   UNL     1     -12.910   0.272   2.920  0.00  0.00    +0.159 HD
ATOM      9  H   UNL     1     -11.981  -0.832   1.984  0.00  0.00    +0.159 HD
ENDROOT
BRANCH   1  10
ATOM     10  C   UNL     1     -12.126   2.374   4.170  0.00  0.00    +0.151 C 
BRANCH  10  11
ATOM     11  C   UNL     1     -11.770   3.146   5.410  0.00  0.00    -0.028 A 
ATOM     12  C   UNL     1     -10.428   3.323   5.778  0.00  0.00    +0.005 A 
ATOM     13  C   UNL     1     -12.769   3.709   6.219  0.00  0.00    +0.005 A 
ATOM     14  C   UNL     1     -10.095   4.066   6.913  0.00  0.00    +0.000 A 
ATOM     15  C   UNL     1     -12.433   4.449   7.352  0.00  0.00    +0.000 A 
ATOM     16  C   UNL     1     -11.096   4.630   7.697  0.00  0.00    +0.000 A 
ENDBRANCH  10  11
ENDBRANCH   1  10
TORSDOF 2
ENDMDL
MODEL 3
REMARK VINA RESULT:    -5.231     13.923     15.479
REMARK INTER + INTRA:          -5.983
REMARK INTER:                  -5.867
REMARK INTRA:                  -0.116
REMARK UNBOUND:                -0.140
REMARK  Name = 1550473
REMARK  2 active torsions:
REMARK  status: ('A' for Active; 'I' for Inactive)
REMARK    1  A    between atoms: N_1  and  C_4
REMARK    2  A    between atoms: C_4  and  C_5
REMARK                            x       y       z     vdW  Elec       q    Type
REMARK                         _______ _______ _______ _____ _____    ______ ____
ROOT
ATOM      1  N   UNL     1      -5.043   9.025  18.438  0.00  0.00    -0.354 N 
ATOM      2  N   UNL     1      -6.034   7.048  17.750  0.00  0.00    -0.372 N 
ATOM      3  N   UNL     1      -6.847   8.105  19.617  0.00  0.00    -0.372 N 
ATOM      4  C   UNL     1      -5.970   8.073  18.609  0.00  0.00    +0.166 C 
ATOM      5  H   UNL     1      -4.388   8.927  17.671  0.00  0.00    +0.163 HD
ATOM      6  H   UNL     1      -6.725   6.316  17.852  0.00  0.00    +0.159 HD
ATOM      7  H   UNL     1      -5.407   6.976  16.958  0.00  0.00    +0.159 HD
ATOM      8  H   UNL     1      -6.848   8.848  20.303  0.00  0.00    +0.159 HD
ATOM      9  H   UNL     1      -7.538   7.376  19.742  0.00  0.00    +0.159 HD
ENDROOT
BRANCH   1  10
ATOM     10  C   UNL     1      -4.923  10.210  19.285  0.00  0.00    +0.151 C 
BRANCH  10  11
ATOM     11  C   UNL     1      -3.471  10.450  19.592  0.00  0.00    -0.028 A 
ATOM     12  C   UNL     1      -2.526  10.515  18.558  0.00  0.00    +0.005 A 
ATOM     13  C   UNL     1      -3.034  10.617  20.915  0.00  0.00    +0.005 A 
ATOM     14  C   UNL     1      -1.181  10.767  18.841  0.00  0.00    +0.000 A 
ATOM     15  C   UNL     1      -1.691  10.868  21.193  0.00  0.00    +0.000 A 
ATOM     16  C   UNL     1      -0.765  10.945  20.156  0.00  0.00    +0.000 A 
ENDBRANCH  10  11
ENDBRANCH   1  10
TORSDOF 2
ENDMDL
MODEL 4
REMARK VINA RESULT:    -5.205     15.080     16.534
REMARK INTER + INTRA:          -5.953
REMARK INTER:                  -5.821
REMARK INTRA:                  -0.133
REMARK UNBOUND:                -0.140
REMARK  Name = 1550473
REMARK  2 active torsions:
REMARK  status: ('A' for Active; 'I' for Inactive)
REMARK    1  A    between atoms: N_1  and  C_4
REMARK    2  A    between atoms: C_4  and  C_5
REMARK                            x       y       z     vdW  Elec       q    Type
REMARK                         _______ _______ _______ _____ _____    ______ ____
ROOT
ATOM      1  N   UNL     1      -2.807  10.035  18.114  0.00  0.00    -0.354 N 
ATOM      2  N   UNL     1      -4.339   8.683  17.024  0.00  0.00    -0.372 N 
ATOM      3  N   UNL     1      -5.109  10.444  18.278  0.00  0.00    -0.372 N 
ATOM      4  C   UNL     1      -4.077   9.731  17.814  0.00  0.00    +0.166 C 
ATOM      5  H   UNL     1      -2.071   9.437  17.756  0.00  0.00    +0.163 HD
ATOM      6  H   UNL     1      -5.287   8.432  16.777  0.00  0.00    +0.159 HD
ATOM      7  H   UNL     1      -3.600   8.114  16.630  0.00  0.00    +0.159 HD
ATOM      8  H   UNL     1      -4.978  11.243  18.883  0.00  0.00    +0.159 HD
ATOM      9  H   UNL     1      -6.065  10.201  18.051  0.00  0.00    +0.159 HD
ENDROOT
BRANCH   1  10
ATOM     10  C   UNL     1      -2.411  11.187  18.922  0.00  0.00    +0.151 C 
BRANCH  10  11
ATOM     11  C   UNL     1      -1.614  10.708  20.104  0.00  0.00    -0.028 A 
ATOM     12  C   UNL     1      -0.387  10.055  19.917  0.00  0.00    +0.005 A 
ATOM     13  C   UNL     1      -2.077  10.910  21.413  0.00  0.00    +0.005 A 
ATOM     14  C   UNL     1       0.368   9.637  21.015  0.00  0.00    +0.000 A 
ATOM     15  C   UNL     1      -1.321  10.490  22.507  0.00  0.00    +0.000 A 
ATOM     16  C   UNL     1      -0.097   9.856  22.308  0.00  0.00    +0.000 A 
ENDBRANCH  10  11
ENDBRANCH   1  10
TORSDOF 2
ENDMDL
MODEL 5
REMARK VINA RESULT:    -5.172     25.557     26.307
REMARK INTER + INTRA:          -5.917
REMARK INTER:                  -5.810
REMARK INTRA:                  -0.108
REMARK UNBOUND:                -0.140
REMARK  Name = 1550473
REMARK  2 active torsions:
REMARK  status: ('A' for Active; 'I' for Inactive)
REMARK    1  A    between atoms: N_1  and  C_4
REMARK    2  A    between atoms: C_4  and  C_5
REMARK                            x       y       z     vdW  Elec       q    Type
REMARK                         _______ _______ _______ _____ _____    ______ ____
ROOT
ATOM      1  N   UNL     1       9.483  14.928   2.391  0.00  0.00    -0.354 N 
ATOM      2  N   UNL     1       8.518  15.105   0.293  0.00  0.00    -0.372 N 
ATOM      3  N   UNL     1      10.141  16.610   0.898  0.00  0.00    -0.372 N 
ATOM      4  C   UNL     1       9.389  15.549   1.208  0.00  0.00    +0.166 C 
ATOM      5  H   UNL     1       8.863  14.147   2.576  0.00  0.00    +0.163 HD
ATOM      6  H   UNL     1       8.427  15.551  -0.610  0.00  0.00    +0.159 HD
ATOM      7  H   UNL     1       7.932  14.297   0.463  0.00  0.00    +0.159 HD
ATOM      8  H   UNL     1      10.813  16.998   1.547  0.00  0.00    +0.159 HD
ATOM      9  H   UNL     1      10.056  17.077   0.004  0.00  0.00    +0.159 HD
ENDROOT
BRANCH   1  10
ATOM     10  C   UNL     1      10.436  15.298   3.436  0.00  0.00    +0.151 C 
BRANCH  10  11
ATOM     11  C   UNL     1       9.924  14.812   4.763  0.00  0.00    -0.028 A 
ATOM     12  C   UNL     1       8.747  15.344   5.310  0.00  0.00    +0.005 A 
ATOM     13  C   UNL     1      10.608  13.816   5.476  0.00  0.00    +0.005 A 
ATOM     14  C   UNL     1       8.255  14.871   6.529  0.00  0.00    +0.000 A 
ATOM     15  C   UNL     1      10.114  13.347   6.694  0.00  0.00    +0.000 A 
ATOM     16  C   UNL     1       8.936  13.873   7.219  0.00  0.00    +0.000 A 
ENDBRANCH  10  11
ENDBRANCH   1  10
TORSDOF 2
ENDMDL
MODEL 6
REMARK VINA RESULT:    -5.165      2.785      5.003
REMARK INTER + INTRA:          -5.909
REMARK INTER:                  -5.789
REMARK INTRA:                  -0.121
REMARK UNBOUND:                -0.140
REMARK  Name = 1550473
REMARK  2 active torsions:
REMARK  status: ('A' for Active; 'I' for Inactive)
REMARK    1  A    between atoms: N_1  and  C_4
REMARK    2  A    between atoms: C_4  and  C_5
REMARK                            x       y       z     vdW  Elec       q    Type
REMARK                         _______ _______ _______ _____ _____    ______ ____
ROOT
ATOM      1  N   UNL     1      -7.785  -4.346  10.631  0.00  0.00    -0.354 N 
ATOM      2  N   UNL     1      -7.387  -6.257   9.384  0.00  0.00    -0.372 N 
ATOM      3  N   UNL     1      -6.053  -4.419   9.054  0.00  0.00    -0.372 N 
ATOM      4  C   UNL     1      -7.076  -4.993   9.697  0.00  0.00    +0.166 C 
ATOM      5  H   UNL     1      -8.567  -4.827  11.060  0.00  0.00    +0.163 HD
ATOM      6  H   UNL     1      -6.868  -6.771   8.685  0.00  0.00    +0.159 HD
ATOM      7  H   UNL     1      -8.141  -6.750   9.847  0.00  0.00    +0.159 HD
ATOM      8  H   UNL     1      -5.771  -3.466   9.239  0.00  0.00    +0.159 HD
ATOM      9  H   UNL     1      -5.529  -4.914   8.343  0.00  0.00    +0.159 HD
ENDROOT
BRANCH   1  10
ATOM     10  C   UNL     1      -7.493  -2.987  11.083  0.00  0.00    +0.151 C 
BRANCH  10  11
ATOM     11  C   UNL     1      -8.013  -2.813  12.484  0.00  0.00    -0.028 A 
ATOM     12  C   UNL     1      -8.698  -1.645  12.849  0.00  0.00    +0.005 A 
ATOM     13  C   UNL     1      -7.828  -3.815  13.449  0.00  0.00    +0.005 A 
ATOM     14  C   UNL     1      -9.207  -1.496  14.141  0.00  0.00    +0.000 A 
ATOM     15  C   UNL     1      -8.337  -3.662  14.738  0.00  0.00    +0.000 A 
ATOM     16  C   UNL     1      -9.029  -2.503  15.083  0.00  0.00    +0.000 A 
ENDBRANCH  10  11
ENDBRANCH   1  10
TORSDOF 2
ENDMDL
MODEL 7
REMARK VINA RESULT:    -5.109      2.845      3.678
REMARK INTER + INTRA:          -5.846
REMARK INTER:                  -5.725
REMARK INTRA:                  -0.121
REMARK UNBOUND:                -0.140
REMARK  Name = 1550473
REMARK  2 active torsions:
REMARK  status: ('A' for Active; 'I' for Inactive)
REMARK    1  A    between atoms: N_1  and  C_4
REMARK    2  A    between atoms: C_4  and  C_5
REMARK                            x       y       z     vdW  Elec       q    Type
REMARK                         _______ _______ _______ _____ _____    ______ ____
ROOT
ATOM      1  N   UNL     1      -9.951  -4.948  10.543  0.00  0.00    -0.354 N 
ATOM      2  N   UNL     1     -11.837  -5.776   9.483  0.00  0.00    -0.372 N 
ATOM      3  N   UNL     1     -12.002  -3.822  10.676  0.00  0.00    -0.372 N 
ATOM      4  C   UNL     1     -11.252  -4.841  10.242  0.00  0.00    +0.166 C 
ATOM      5  H   UNL     1      -9.445  -5.761  10.209  0.00  0.00    +0.163 HD
ATOM      6  H   UNL     1     -12.817  -5.720   9.237  0.00  0.00    +0.159 HD
ATOM      7  H   UNL     1     -11.319  -6.562   9.112  0.00  0.00    +0.159 HD
ATOM      8  H   UNL     1     -11.622  -3.087  11.257  0.00  0.00    +0.159 HD
ATOM      9  H   UNL     1     -12.987  -3.755  10.450  0.00  0.00    +0.159 HD
ENDROOT
BRANCH   1  10
ATOM     10  C   UNL     1      -9.207  -3.957  11.317  0.00  0.00    +0.151 C 
BRANCH  10  11
ATOM     11  C   UNL     1      -7.741  -4.091  11.006  0.00  0.00    -0.028 A 
ATOM     12  C   UNL     1      -7.314  -4.396   9.706  0.00  0.00    +0.005 A 
ATOM     13  C   UNL     1      -6.774  -3.908  12.007  0.00  0.00    +0.005 A 
ATOM     14  C   UNL     1      -5.952  -4.491   9.410  0.00  0.00    +0.000 A 
ATOM     15  C   UNL     1      -5.416  -4.004  11.708  0.00  0.00    +0.000 A 
ATOM     16  C   UNL     1      -5.005  -4.293  10.409  0.00  0.00    +0.000 A 
ENDBRANCH  10  11
ENDBRANCH   1  10
TORSDOF 2
ENDMDL
MODEL 8
REMARK VINA RESULT:    -5.087     25.828     26.524
REMARK INTER + INTRA:          -5.822
REMARK INTER:                  -5.643
REMARK INTRA:                  -0.179
REMARK UNBOUND:                -0.140
REMARK  Name = 1550473
REMARK  2 active torsions:
REMARK  status: ('A' for Active; 'I' for Inactive)
REMARK    1  A    between atoms: N_1  and  C_4
REMARK    2  A    between atoms: C_4  and  C_5
REMARK                            x       y       z     vdW  Elec       q    Type
REMARK                         _______ _______ _______ _____ _____    ______ ____
ROOT
ATOM      1  N   UNL     1       9.995  16.804   3.886  0.00  0.00    -0.354 N 
ATOM      2  N   UNL     1      12.031  17.791   3.393  0.00  0.00    -0.372 N 
ATOM      3  N   UNL     1      11.737  15.563   2.928  0.00  0.00    -0.372 N 
ATOM      4  C   UNL     1      11.241  16.710   3.405  0.00  0.00    +0.166 C 
ATOM      5  H   UNL     1       9.689  17.695   4.260  0.00  0.00    +0.163 HD
ATOM      6  H   UNL     1      12.975  17.751   3.033  0.00  0.00    +0.159 HD
ATOM      7  H   UNL     1      11.708  18.691   3.725  0.00  0.00    +0.159 HD
ATOM      8  H   UNL     1      11.194  14.710   2.915  0.00  0.00    +0.159 HD
ATOM      9  H   UNL     1      12.683  15.501   2.574  0.00  0.00    +0.159 HD
ENDROOT
BRANCH   1  10
ATOM     10  C   UNL     1       9.036  15.700   3.894  0.00  0.00    +0.151 C 
BRANCH  10  11
ATOM     11  C   UNL     1       8.925  15.157   5.292  0.00  0.00    -0.028 A 
ATOM     12  C   UNL     1       8.025  15.724   6.206  0.00  0.00    +0.005 A 
ATOM     13  C   UNL     1       9.713  14.073   5.707  0.00  0.00    +0.005 A 
ATOM     14  C   UNL     1       7.899  15.201   7.496  0.00  0.00    +0.000 A 
ATOM     15  C   UNL     1       9.585  13.554   6.995  0.00  0.00    +0.000 A 
ATOM     16  C   UNL     1       8.677  14.116   7.889  0.00  0.00    +0.000 A 
ENDBRANCH  10  11
ENDBRANCH   1  10
TORSDOF 2
ENDMDL
MODEL 9
REMARK VINA RESULT:    -4.883     18.437     19.894
REMARK INTER + INTRA:          -5.594
REMARK INTER:                  -5.423
REMARK INTRA:                  -0.171
REMARK UNBOUND:                -0.140
REMARK  Name = 1550473
REMARK  2 active torsions:
REMARK  status: ('A' for Active; 'I' for Inactive)
REMARK    1  A    between atoms: N_1  and  C_4
REMARK    2  A    between atoms: C_4  and  C_5
REMARK                            x       y       z     vdW  Elec       q    Type
REMARK                         _______ _______ _______ _____ _____    ______ ____
ROOT
ATOM      1  N   UNL     1      12.985  -5.345  14.494  0.00  0.00    -0.354 N 
ATOM      2  N   UNL     1      15.101  -5.076  13.591  0.00  0.00    -0.372 N 
ATOM      3  N   UNL     1      14.537  -7.100  14.513  0.00  0.00    -0.372 N 
ATOM      4  C   UNL     1      14.194  -5.845  14.206  0.00  0.00    +0.166 C 
ATOM      5  H   UNL     1      12.798  -4.376  14.263  0.00  0.00    +0.163 HD
ATOM      6  H   UNL     1      16.020  -5.427  13.358  0.00  0.00    +0.159 HD
ATOM      7  H   UNL     1      14.895  -4.122  13.320  0.00  0.00    +0.159 HD
ATOM      8  H   UNL     1      13.901  -7.730  14.983  0.00  0.00    +0.159 HD
ATOM      9  H   UNL     1      15.457  -7.466  14.298  0.00  0.00    +0.159 HD
ENDROOT
BRANCH   1  10
ATOM     10  C   UNL     1      11.908  -6.114  15.114  0.00  0.00    +0.151 C 
BRANCH  10  11
ATOM     11  C   UNL     1      10.984  -6.619  14.040  0.00  0.00    -0.028 A 
ATOM     12  C   UNL     1      10.522  -7.943  14.063  0.00  0.00    +0.005 A 
ATOM     13  C   UNL     1      10.563  -5.777  12.999  0.00  0.00    +0.005 A 
ATOM     14  C   UNL     1       9.640  -8.404  13.083  0.00  0.00    +0.000 A 
ATOM     15  C   UNL     1       9.683  -6.241  12.022  0.00  0.00    +0.000 A 
ATOM     16  C   UNL     1       9.220  -7.554  12.065  0.00  0.00    +0.000 A 
ENDBRANCH  10  11
ENDBRANCH   1  10
TORSDOF 2
ENDMDL
