MODEL 1
REMARK VINA RESULT:    -6.971      0.000      0.000
REMARK INTER + INTRA:          -7.914
REMARK INTER:                  -7.786
REMARK INTRA:                  -0.128
REMARK UNBOUND:                -0.128
REMARK  Name = 1550473
REMARK  2 active torsions:
REMARK  status: ('A' for Active; 'I' for Inactive)
REMARK    1  A    between atoms: N_1  and  C_4
REMARK    2  A    between atoms: C_4  and  C_5
REMARK                            x       y       z     vdW  Elec       q    Type
REMARK                         _______ _______ _______ _____ _____    ______ ____
ROOT
ATOM      1  N   UNL     1     -11.811   2.852  -0.235  0.00  0.00    -0.354 N 
ATOM      2  N   UNL     1     -11.156   1.918   1.780  0.00  0.00    -0.372 N 
ATOM      3  N   UNL     1     -11.381   0.555  -0.053  0.00  0.00    -0.372 N 
ATOM      4  C   UNL     1     -11.454   1.779   0.483  0.00  0.00    +0.166 C 
ATOM      5  H   UNL     1     -11.877   3.746   0.237  0.00  0.00    +0.163 HD
ATOM      6  H   UNL     1     -10.879   1.127   2.346  0.00  0.00    +0.159 HD
ATOM      7  H   UNL     1     -11.178   2.821   2.238  0.00  0.00    +0.159 HD
ATOM      8  H   UNL     1     -11.599   0.382  -1.025  0.00  0.00    +0.159 HD
ATOM      9  H   UNL     1     -11.117  -0.250   0.501  0.00  0.00    +0.159 HD
ENDROOT
BRANCH   1  10
ATOM     10  C   UNL     1     -12.104   2.817  -1.667  0.00  0.00    +0.151 C 
BRANCH  10  11
ATOM     11  C   UNL     1     -13.515   3.286  -1.892  0.00  0.00    -0.028 A 
ATOM     12  C   UNL     1     -13.843   4.039  -3.029  0.00  0.00    +0.005 A 
ATOM     13  C   UNL     1     -14.530   2.975  -0.974  0.00  0.00    +0.005 A 
ATOM     14  C   UNL     1     -15.159   4.449  -3.253  0.00  0.00    +0.000 A 
ATOM     15  C   UNL     1     -15.843   3.386  -1.202  0.00  0.00    +0.000 A 
ATOM     16  C   UNL     1     -16.158   4.121  -2.342  0.00  0.00    +0.000 A 
ENDBRANCH  10  11
ENDBRANCH   1  10
TORSDOF 2
ENDMDL
MODEL 2
REMARK VINA RESULT:    -6.307      1.529      2.049
REMARK INTER + INTRA:          -7.172
REMARK INTER:                  -7.047
REMARK INTRA:                  -0.126
REMARK UNBOUND:                -0.128
REMARK  Name = 1550473
REMARK  2 active torsions:
REMARK  status: ('A' for Active; 'I' for Inactive)
REMARK    1  A    between atoms: N_1  and  C_4
REMARK    2  A    between atoms: C_4  and  C_5
REMARK                            x       y       z     vdW  Elec       q    Type
REMARK                         _______ _______ _______ _____ _____    ______ ____
ROOT
ATOM      1  N   UNL     1     -11.917   2.226  -0.859  0.00  0.00    -0.354 N 
ATOM      2  N   UNL     1     -11.747   0.582   0.764  0.00  0.00    -0.372 N 
ATOM      3  N   UNL     1     -13.153   2.359   1.128  0.00  0.00    -0.372 N 
ATOM      4  C   UNL     1     -12.275   1.735   0.335  0.00  0.00    +0.166 C 
ATOM      5  H   UNL     1     -11.224   1.720  -1.399  0.00  0.00    +0.163 HD
ATOM      6  H   UNL     1     -12.001   0.185   1.659  0.00  0.00    +0.159 HD
ATOM      7  H   UNL     1     -11.089   0.055   0.202  0.00  0.00    +0.159 HD
ATOM      8  H   UNL     1     -13.583   3.235   0.865  0.00  0.00    +0.159 HD
ATOM      9  H   UNL     1     -13.410   1.983   2.032  0.00  0.00    +0.159 HD
ENDROOT
BRANCH   1  10
ATOM     10  C   UNL     1     -12.473   3.445  -1.442  0.00  0.00    +0.151 C 
BRANCH  10  11
ATOM     11  C   UNL     1     -13.540   3.073  -2.434  0.00  0.00    -0.028 A 
ATOM     12  C   UNL     1     -13.564   1.793  -3.007  0.00  0.00    +0.005 A 
ATOM     13  C   UNL     1     -14.534   3.994  -2.800  0.00  0.00    +0.005 A 
ATOM     14  C   UNL     1     -14.572   1.437  -3.906  0.00  0.00    +0.000 A 
ATOM     15  C   UNL     1     -15.539   3.635  -3.698  0.00  0.00    +0.000 A 
ATOM     16  C   UNL     1     -15.559   2.356  -4.249  0.00  0.00    +0.000 A 
ENDBRANCH  10  11
ENDBRANCH   1  10
TORSDOF 2
ENDMDL
MODEL 3
REMARK VINA RESULT:    -6.118      1.732      2.234
REMARK INTER + INTRA:          -6.961
REMARK INTER:                  -6.882
REMARK INTRA:                  -0.079
REMARK UNBOUND:                -0.128
REMARK  Name = 1550473
REMARK  2 active torsions:
REMARK  status: ('A' for Active; 'I' for Inactive)
REMARK    1  A    between atoms: N_1  and  C_4
REMARK    2  A    between atoms: C_4  and  C_5
REMARK                            x       y       z     vdW  Elec       q    Type
REMARK                         _______ _______ _______ _____ _____    ______ ____
ROOT
ATOM      1  N   UNL     1     -11.318   1.961  -2.361  0.00  0.00    -0.354 N 
ATOM      2  N   UNL     1     -10.224  -0.080  -2.352  0.00  0.00    -0.372 N 
ATOM      3  N   UNL     1     -11.400   0.556  -0.488  0.00  0.00    -0.372 N 
ATOM      4  C   UNL     1     -10.989   0.826  -1.731  0.00  0.00    +0.166 C 
ATOM      5  H   UNL     1     -10.950   2.119  -3.292  0.00  0.00    +0.163 HD
ATOM      6  H   UNL     1      -9.962  -0.948  -1.904  0.00  0.00    +0.159 HD
ATOM      7  H   UNL     1      -9.895   0.060  -3.300  0.00  0.00    +0.159 HD
ATOM      8  H   UNL     1     -11.975   1.201   0.038  0.00  0.00    +0.159 HD
ATOM      9  H   UNL     1     -11.139  -0.302  -0.017  0.00  0.00    +0.159 HD
ENDROOT
BRANCH   1  10
ATOM     10  C   UNL     1     -12.190   2.988  -1.793  0.00  0.00    +0.151 C 
BRANCH  10  11
ATOM     11  C   UNL     1     -13.488   3.006  -2.554  0.00  0.00    -0.028 A 
ATOM     12  C   UNL     1     -14.215   4.197  -2.692  0.00  0.00    +0.005 A 
ATOM     13  C   UNL     1     -13.992   1.836  -3.143  0.00  0.00    +0.005 A 
ATOM     14  C   UNL     1     -15.405   4.220  -3.424  0.00  0.00    +0.000 A 
ATOM     15  C   UNL     1     -15.181   1.864  -3.872  0.00  0.00    +0.000 A 
ATOM     16  C   UNL     1     -15.886   3.056  -4.014  0.00  0.00    +0.000 A 
ENDBRANCH  10  11
ENDBRANCH   1  10
TORSDOF 2
ENDMDL
MODEL 4
REMARK VINA RESULT:    -5.572     10.424     11.500
REMARK INTER + INTRA:          -6.351
REMARK INTER:                  -6.183
REMARK INTRA:                  -0.168
REMARK UNBOUND:                -0.128
REMARK  Name = 1550473
REMARK  2 active torsions:
REMARK  status: ('A' for Active; 'I' for Inactive)
REMARK    1  A    between atoms: N_1  and  C_4
REMARK    2  A    between atoms: C_4  and  C_5
REMARK                            x       y       z     vdW  Elec       q    Type
REMARK                         _______ _______ _______ _____ _____    ______ ____
ROOT
ATOM      1  N   UNL     1      -8.470  -6.738  -3.790  0.00  0.00    -0.354 N 
ATOM      2  N   UNL     1      -9.083  -8.651  -2.637  0.00  0.00    -0.372 N 
ATOM      3  N   UNL     1     -10.672  -7.048  -3.051  0.00  0.00    -0.372 N 
ATOM      4  C   UNL     1      -9.407  -7.465  -3.167  0.00  0.00    +0.166 C 
ATOM      5  H   UNL     1      -7.522  -7.096  -3.818  0.00  0.00    +0.163 HD
ATOM      6  H   UNL     1      -9.769  -9.223  -2.164  0.00  0.00    +0.159 HD
ATOM      7  H   UNL     1      -8.145  -9.027  -2.707  0.00  0.00    +0.159 HD
ATOM      8  H   UNL     1     -10.980  -6.159  -3.424  0.00  0.00    +0.159 HD
ATOM      9  H   UNL     1     -11.371  -7.601  -2.571  0.00  0.00    +0.159 HD
ENDROOT
BRANCH   1  10
ATOM     10  C   UNL     1      -8.731  -5.458  -4.447  0.00  0.00    +0.151 C 
BRANCH  10  11
ATOM     11  C   UNL     1      -8.821  -5.678  -5.932  0.00  0.00    -0.028 A 
ATOM     12  C   UNL     1      -9.807  -5.029  -6.689  0.00  0.00    +0.005 A 
ATOM     13  C   UNL     1      -7.919  -6.529  -6.589  0.00  0.00    +0.005 A 
ATOM     14  C   UNL     1      -9.873  -5.209  -8.073  0.00  0.00    +0.000 A 
ATOM     15  C   UNL     1      -7.989  -6.707  -7.970  0.00  0.00    +0.000 A 
ATOM     16  C   UNL     1      -8.964  -6.045  -8.712  0.00  0.00    +0.000 A 
ENDBRANCH  10  11
ENDBRANCH   1  10
TORSDOF 2
ENDMDL
MODEL 5
REMARK VINA RESULT:    -5.234     13.947     14.872
REMARK INTER + INTRA:          -5.973
REMARK INTER:                  -5.876
REMARK INTRA:                  -0.097
REMARK UNBOUND:                -0.128
REMARK  Name = 1550473
REMARK  2 active torsions:
REMARK  status: ('A' for Active; 'I' for Inactive)
REMARK    1  A    between atoms: N_1  and  C_4
REMARK    2  A    between atoms: C_4  and  C_5
REMARK                            x       y       z     vdW  Elec       q    Type
REMARK                         _______ _______ _______ _____ _____    ______ ____
ROOT
ATOM      1  N   UNL     1     -17.167 -12.347   1.006  0.00  0.00    -0.354 N 
ATOM      2  N   UNL     1     -16.849 -14.161   2.411  0.00  0.00    -0.372 N 
ATOM      3  N   UNL     1     -18.931 -13.804   1.516  0.00  0.00    -0.372 N 
ATOM      4  C   UNL     1     -17.654 -13.426   1.635  0.00  0.00    +0.166 C 
ATOM      5  H   UNL     1     -16.198 -12.096   1.161  0.00  0.00    +0.163 HD
ATOM      6  H   UNL     1     -17.186 -14.981   2.895  0.00  0.00    +0.159 HD
ATOM      7  H   UNL     1     -15.868 -13.934   2.528  0.00  0.00    +0.159 HD
ATOM      8  H   UNL     1     -19.592 -13.288   0.950  0.00  0.00    +0.159 HD
ATOM      9  H   UNL     1     -19.291 -14.615   2.002  0.00  0.00    +0.159 HD
ENDROOT
BRANCH   1  10
ATOM     10  C   UNL     1     -17.947 -11.511   0.096  0.00  0.00    +0.151 C 
BRANCH  10  11
ATOM     11  C   UNL     1     -17.036 -10.499  -0.543  0.00  0.00    -0.028 A 
ATOM     12  C   UNL     1     -17.161  -9.135  -0.237  0.00  0.00    +0.005 A 
ATOM     13  C   UNL     1     -16.043 -10.897  -1.451  0.00  0.00    +0.005 A 
ATOM     14  C   UNL     1     -16.295  -8.198  -0.807  0.00  0.00    +0.000 A 
ATOM     15  C   UNL     1     -15.182  -9.958  -2.018  0.00  0.00    +0.000 A 
ATOM     16  C   UNL     1     -15.306  -8.609  -1.694  0.00  0.00    +0.000 A 
ENDBRANCH  10  11
ENDBRANCH   1  10
TORSDOF 2
ENDMDL
MODEL 6
REMARK VINA RESULT:    -5.207     11.042     11.954
REMARK INTER + INTRA:          -5.943
REMARK INTER:                  -5.839
REMARK INTRA:                  -0.104
REMARK UNBOUND:                -0.128
REMARK  Name = 1550473
REMARK  2 active torsions:
REMARK  status: ('A' for Active; 'I' for Inactive)
REMARK    1  A    between atoms: N_1  and  C_4
REMARK    2  A    between atoms: C_4  and  C_5
REMARK                            x       y       z     vdW  Elec       q    Type
REMARK                         _______ _______ _______ _____ _____    ______ ____
ROOT
ATOM      1  N   UNL     1      -9.986  -8.179  -4.216  0.00  0.00    -0.354 N 
ATOM      2  N   UNL     1      -7.789  -8.665  -3.668  0.00  0.00    -0.372 N 
ATOM      3  N   UNL     1      -8.551  -6.518  -3.396  0.00  0.00    -0.372 N 
ATOM      4  C   UNL     1      -8.790  -7.781  -3.763  0.00  0.00    +0.166 C 
ATOM      5  H   UNL     1     -10.094  -9.144  -4.507  0.00  0.00    +0.163 HD
ATOM      6  H   UNL     1      -6.876  -8.395  -3.326  0.00  0.00    +0.159 HD
ATOM      7  H   UNL     1      -7.913  -9.639  -3.916  0.00  0.00    +0.159 HD
ATOM      8  H   UNL     1      -9.263  -5.801  -3.449  0.00  0.00    +0.159 HD
ATOM      9  H   UNL     1      -7.641  -6.225  -3.063  0.00  0.00    +0.159 HD
ENDROOT
BRANCH   1  10
ATOM     10  C   UNL     1     -11.157  -7.309  -4.307  0.00  0.00    +0.151 C 
BRANCH  10  11
ATOM     11  C   UNL     1     -12.387  -8.102  -3.962  0.00  0.00    -0.028 A 
ATOM     12  C   UNL     1     -12.997  -8.923  -4.921  0.00  0.00    +0.005 A 
ATOM     13  C   UNL     1     -12.944  -8.041  -2.675  0.00  0.00    +0.005 A 
ATOM     14  C   UNL     1     -14.123  -9.683  -4.592  0.00  0.00    +0.000 A 
ATOM     15  C   UNL     1     -14.068  -8.801  -2.351  0.00  0.00    +0.000 A 
ATOM     16  C   UNL     1     -14.655  -9.623  -3.309  0.00  0.00    +0.000 A 
ENDBRANCH  10  11
ENDBRANCH   1  10
TORSDOF 2
ENDMDL
MODEL 7
REMARK VINA RESULT:    -5.142     26.237     28.008
REMARK INTER + INTRA:          -5.871
REMARK INTER:                  -5.748
REMARK INTRA:                  -0.123
REMARK UNBOUND:                -0.128
REMARK  Name = 1550473
REMARK  2 active torsions:
REMARK  status: ('A' for Active; 'I' for Inactive)
REMARK    1  A    between atoms: N_1  and  C_4
REMARK    2  A    between atoms: C_4  and  C_5
REMARK                            x       y       z     vdW  Elec       q    Type
REMARK                         _______ _______ _______ _____ _____    ______ ____
ROOT
ATOM      1  N   UNL     1       8.342   5.774  14.907  0.00  0.00    -0.354 N 
ATOM      2  N   UNL     1       7.119   3.928  14.228  0.00  0.00    -0.372 N 
ATOM      3  N   UNL     1       6.332   5.201  15.967  0.00  0.00    -0.372 N 
ATOM      4  C   UNL     1       7.271   4.980  15.041  0.00  0.00    +0.166 C 
ATOM      5  H   UNL     1       9.033   5.535  14.205  0.00  0.00    +0.163 HD
ATOM      6  H   UNL     1       6.319   3.313  14.303  0.00  0.00    +0.159 HD
ATOM      7  H   UNL     1       7.788   3.718  13.497  0.00  0.00    +0.159 HD
ATOM      8  H   UNL     1       6.390   5.975  16.616  0.00  0.00    +0.159 HD
ATOM      9  H   UNL     1       5.530   4.590  16.065  0.00  0.00    +0.159 HD
ENDROOT
BRANCH   1  10
ATOM     10  C   UNL     1       8.574   6.976  15.706  0.00  0.00    +0.151 C 
BRANCH  10  11
ATOM     11  C   UNL     1       9.459   7.915  14.935  0.00  0.00    -0.028 A 
ATOM     12  C   UNL     1      10.433   8.679  15.595  0.00  0.00    +0.005 A 
ATOM     13  C   UNL     1       9.334   8.041  13.543  0.00  0.00    +0.005 A 
ATOM     14  C   UNL     1      11.276   9.529  14.875  0.00  0.00    +0.000 A 
ATOM     15  C   UNL     1      10.177   8.891  12.828  0.00  0.00    +0.000 A 
ATOM     16  C   UNL     1      11.149   9.633  13.494  0.00  0.00    +0.000 A 
ENDBRANCH  10  11
ENDBRANCH   1  10
TORSDOF 2
ENDMDL
MODEL 8
REMARK VINA RESULT:    -5.123     12.839     14.730
REMARK INTER + INTRA:          -5.850
REMARK INTER:                  -5.709
REMARK INTRA:                  -0.141
REMARK UNBOUND:                -0.128
REMARK  Name = 1550473
REMARK  2 active torsions:
REMARK  status: ('A' for Active; 'I' for Inactive)
REMARK    1  A    between atoms: N_1  and  C_4
REMARK    2  A    between atoms: C_4  and  C_5
REMARK                            x       y       z     vdW  Elec       q    Type
REMARK                         _______ _______ _______ _____ _____    ______ ____
ROOT
ATOM      1  N   UNL     1      -8.093   6.532  13.664  0.00  0.00    -0.354 N 
ATOM      2  N   UNL     1      -6.457   6.944  15.251  0.00  0.00    -0.372 N 
ATOM      3  N   UNL     1      -7.287   8.701  14.031  0.00  0.00    -0.372 N 
ATOM      4  C   UNL     1      -7.290   7.392  14.304  0.00  0.00    +0.166 C 
ATOM      5  H   UNL     1      -8.026   5.547  13.896  0.00  0.00    +0.163 HD
ATOM      6  H   UNL     1      -5.842   7.570  15.753  0.00  0.00    +0.159 HD
ATOM      7  H   UNL     1      -6.425   5.966  15.513  0.00  0.00    +0.159 HD
ATOM      8  H   UNL     1      -7.887   9.102  13.323  0.00  0.00    +0.159 HD
ATOM      9  H   UNL     1      -6.670   9.342  14.514  0.00  0.00    +0.159 HD
ENDROOT
BRANCH   1  10
ATOM     10  C   UNL     1      -9.075   6.925  12.655  0.00  0.00    +0.151 C 
BRANCH  10  11
ATOM     11  C   UNL     1      -8.869   6.094  11.419  0.00  0.00    -0.028 A 
ATOM     12  C   UNL     1      -9.827   6.091  10.395  0.00  0.00    +0.005 A 
ATOM     13  C   UNL     1      -7.714   5.311  11.263  0.00  0.00    +0.005 A 
ATOM     14  C   UNL     1      -9.622   5.342   9.233  0.00  0.00    +0.000 A 
ATOM     15  C   UNL     1      -7.514   4.564  10.102  0.00  0.00    +0.000 A 
ATOM     16  C   UNL     1      -8.467   4.582   9.087  0.00  0.00    +0.000 A 
ENDBRANCH  10  11
ENDBRANCH   1  10
TORSDOF 2
ENDMDL
MODEL 9
REMARK VINA RESULT:    -4.805     27.676     28.639
REMARK INTER + INTRA:          -5.494
REMARK INTER:                  -5.361
REMARK INTRA:                  -0.132
REMARK UNBOUND:                -0.128
REMARK  Name = 1550473
REMARK  2 active torsions:
REMARK  status: ('A' for Active; 'I' for Inactive)
REMARK    1  A    between atoms: N_1  and  C_4
REMARK    2  A    between atoms: C_4  and  C_5
REMARK                            x       y       z     vdW  Elec       q    Type
REMARK                         _______ _______ _______ _____ _____    ______ ____
ROOT
ATOM      1  N   UNL     1       1.617  -6.962 -23.928  0.00  0.00    -0.354 N 
ATOM      2  N   UNL     1       0.871  -8.654 -22.533  0.00  0.00    -0.372 N 
ATOM      3  N   UNL     1      -0.664  -7.479 -23.769  0.00  0.00    -0.372 N 
ATOM      4  C   UNL     1       0.610  -7.686 -23.420  0.00  0.00    +0.166 C 
ATOM      5  H   UNL     1       2.557  -7.149 -23.599  0.00  0.00    +0.163 HD
ATOM      6  H   UNL     1       0.133  -9.219 -22.135  0.00  0.00    +0.159 HD
ATOM      7  H   UNL     1       1.817  -8.869 -22.241  0.00  0.00    +0.159 HD
ATOM      8  H   UNL     1      -0.928  -6.760 -24.429  0.00  0.00    +0.159 HD
ATOM      9  H   UNL     1      -1.418  -8.026 -23.373  0.00  0.00    +0.159 HD
ENDROOT
BRANCH   1  10
ATOM     10  C   UNL     1       1.446  -5.921 -24.940  0.00  0.00    +0.151 C 
BRANCH  10  11
ATOM     11  C   UNL     1       2.018  -4.632 -24.419  0.00  0.00    -0.028 A 
ATOM     12  C   UNL     1       2.545  -3.679 -25.303  0.00  0.00    +0.005 A 
ATOM     13  C   UNL     1       2.030  -4.354 -23.044  0.00  0.00    +0.005 A 
ATOM     14  C   UNL     1       3.049  -2.468 -24.823  0.00  0.00    +0.000 A 
ATOM     15  C   UNL     1       2.535  -3.144 -22.568  0.00  0.00    +0.000 A 
ATOM     16  C   UNL     1       3.042  -2.200 -23.458  0.00  0.00    +0.000 A 
ENDBRANCH  10  11
ENDBRANCH   1  10
TORSDOF 2
ENDMDL
