MODEL 1
REMARK VINA RESULT:    -6.145      0.000      0.000
REMARK INTER + INTRA:          -7.022
REMARK INTER:                  -6.863
REMARK INTRA:                  -0.158
REMARK UNBOUND:                -0.158
REMARK  Name = 1550473
REMARK  2 active torsions:
REMARK  status: ('A' for Active; 'I' for Inactive)
REMARK    1  A    between atoms: N_1  and  C_4
REMARK    2  A    between atoms: C_4  and  C_5
REMARK                            x       y       z     vdW  Elec       q    Type
REMARK                         _______ _______ _______ _____ _____    ______ ____
ROOT
ATOM      1  N   UNL     1      -0.171 -22.505  -2.252  0.00  0.00    -0.354 N 
ATOM      2  N   UNL     1      -1.560 -22.625  -4.102  0.00  0.00    -0.372 N 
ATOM      3  N   UNL     1       0.708 -22.804  -4.403  0.00  0.00    -0.372 N 
ATOM      4  C   UNL     1      -0.329 -22.644  -3.575  0.00  0.00    +0.166 C 
ATOM      5  H   UNL     1      -0.996 -22.356  -1.682  0.00  0.00    +0.163 HD
ATOM      6  H   UNL     1      -1.710 -22.731  -5.096  0.00  0.00    +0.159 HD
ATOM      7  H   UNL     1      -2.385 -22.523  -3.524  0.00  0.00    +0.159 HD
ATOM      8  H   UNL     1       1.662 -22.821  -4.069  0.00  0.00    +0.159 HD
ATOM      9  H   UNL     1       0.578 -22.900  -5.403  0.00  0.00    +0.159 HD
ENDROOT
BRANCH   1  10
ATOM     10  C   UNL     1       1.121 -22.565  -1.572  0.00  0.00    +0.151 C 
BRANCH  10  11
ATOM     11  C   UNL     1       1.399 -21.235  -0.927  0.00  0.00    -0.028 A 
ATOM     12  C   UNL     1       1.470 -21.122   0.470  0.00  0.00    +0.005 A 
ATOM     13  C   UNL     1       1.598 -20.085  -1.706  0.00  0.00    +0.005 A 
ATOM     14  C   UNL     1       1.758 -19.893   1.068  0.00  0.00    +0.000 A 
ATOM     15  C   UNL     1       1.884 -18.860  -1.104  0.00  0.00    +0.000 A 
ATOM     16  C   UNL     1       1.966 -18.765   0.283  0.00  0.00    +0.000 A 
ENDBRANCH  10  11
ENDBRANCH   1  10
TORSDOF 2
ENDMDL
MODEL 2
REMARK VINA RESULT:    -5.985     42.403     43.867
REMARK INTER + INTRA:          -6.843
REMARK INTER:                  -6.694
REMARK INTRA:                  -0.149
REMARK UNBOUND:                -0.158
REMARK  Name = 1550473
REMARK  2 active torsions:
REMARK  status: ('A' for Active; 'I' for Inactive)
REMARK    1  A    between atoms: N_1  and  C_4
REMARK    2  A    between atoms: C_4  and  C_5
REMARK                            x       y       z     vdW  Elec       q    Type
REMARK                         _______ _______ _______ _____ _____    ______ ____
ROOT
ATOM      1  N   UNL     1       0.017  20.402  14.813  0.00  0.00    -0.354 N 
ATOM      2  N   UNL     1       0.195  21.436  12.748  0.00  0.00    -0.372 N 
ATOM      3  N   UNL     1      -1.646  21.866  14.047  0.00  0.00    -0.372 N 
ATOM      4  C   UNL     1      -0.482  21.229  13.884  0.00  0.00    +0.166 C 
ATOM      5  H   UNL     1       0.889  19.927  14.615  0.00  0.00    +0.163 HD
ATOM      6  H   UNL     1      -0.154  22.056  12.030  0.00  0.00    +0.159 HD
ATOM      7  H   UNL     1       1.090  20.994  12.573  0.00  0.00    +0.159 HD
ATOM      8  H   UNL     1      -2.209  21.748  14.879  0.00  0.00    +0.159 HD
ATOM      9  H   UNL     1      -2.018  22.482  13.335  0.00  0.00    +0.159 HD
ENDROOT
BRANCH   1  10
ATOM     10  C   UNL     1      -0.616  20.150  16.107  0.00  0.00    +0.151 C 
BRANCH  10  11
ATOM     11  C   UNL     1      -0.943  18.687  16.216  0.00  0.00    -0.028 A 
ATOM     12  C   UNL     1      -2.235  18.223  15.932  0.00  0.00    +0.005 A 
ATOM     13  C   UNL     1       0.037  17.758  16.599  0.00  0.00    +0.005 A 
ATOM     14  C   UNL     1      -2.532  16.859  16.005  0.00  0.00    +0.000 A 
ATOM     15  C   UNL     1      -0.263  16.398  16.672  0.00  0.00    +0.000 A 
ATOM     16  C   UNL     1      -1.547  15.949  16.372  0.00  0.00    +0.000 A 
ENDBRANCH  10  11
ENDBRANCH   1  10
TORSDOF 2
ENDMDL
MODEL 3
REMARK VINA RESULT:    -5.938      1.625      2.643
REMARK INTER + INTRA:          -6.790
REMARK INTER:                  -6.626
REMARK INTRA:                  -0.164
REMARK UNBOUND:                -0.158
REMARK  Name = 1550473
REMARK  2 active torsions:
REMARK  status: ('A' for Active; 'I' for Inactive)
REMARK    1  A    between atoms: N_1  and  C_4
REMARK    2  A    between atoms: C_4  and  C_5
REMARK                            x       y       z     vdW  Elec       q    Type
REMARK                         _______ _______ _______ _____ _____    ______ ____
ROOT
ATOM      1  N   UNL     1       1.691 -22.680  -2.866  0.00  0.00    -0.354 N 
ATOM      2  N   UNL     1       3.322 -24.023  -3.816  0.00  0.00    -0.372 N 
ATOM      3  N   UNL     1       2.532 -24.547  -1.726  0.00  0.00    -0.372 N 
ATOM      4  C   UNL     1       2.504 -23.742  -2.794  0.00  0.00    +0.166 C 
ATOM      5  H   UNL     1       1.740 -22.092  -3.690  0.00  0.00    +0.163 HD
ATOM      6  H   UNL     1       3.944 -24.820  -3.791  0.00  0.00    +0.159 HD
ATOM      7  H   UNL     1       3.335 -23.460  -4.657  0.00  0.00    +0.159 HD
ATOM      8  H   UNL     1       1.944 -24.386  -0.919  0.00  0.00    +0.159 HD
ATOM      9  H   UNL     1       3.156 -25.342  -1.678  0.00  0.00    +0.159 HD
ENDROOT
BRANCH   1  10
ATOM     10  C   UNL     1       0.725 -22.318  -1.831  0.00  0.00    +0.151 C 
BRANCH  10  11
ATOM     11  C   UNL     1       1.218 -21.098  -1.103  0.00  0.00    -0.028 A 
ATOM     12  C   UNL     1       1.549 -19.933  -1.810  0.00  0.00    +0.005 A 
ATOM     13  C   UNL     1       1.351 -21.099   0.294  0.00  0.00    +0.005 A 
ATOM     14  C   UNL     1       1.979 -18.790  -1.131  0.00  0.00    +0.000 A 
ATOM     15  C   UNL     1       1.781 -19.956   0.968  0.00  0.00    +0.000 A 
ATOM     16  C   UNL     1       2.092 -18.801   0.255  0.00  0.00    +0.000 A 
ENDBRANCH  10  11
ENDBRANCH   1  10
TORSDOF 2
ENDMDL
MODEL 4
REMARK VINA RESULT:    -5.472     46.492     47.957
REMARK INTER + INTRA:          -6.270
REMARK INTER:                  -6.155
REMARK INTRA:                  -0.115
REMARK UNBOUND:                -0.158
REMARK  Name = 1550473
REMARK  2 active torsions:
REMARK  status: ('A' for Active; 'I' for Inactive)
REMARK    1  A    between atoms: N_1  and  C_4
REMARK    2  A    between atoms: C_4  and  C_5
REMARK                            x       y       z     vdW  Elec       q    Type
REMARK                         _______ _______ _______ _____ _____    ______ ____
ROOT
ATOM      1  N   UNL     1      17.126  22.922  10.350  0.00  0.00    -0.354 N 
ATOM      2  N   UNL     1      17.628  22.766  12.606  0.00  0.00    -0.372 N 
ATOM      3  N   UNL     1      18.934  24.097  11.268  0.00  0.00    -0.372 N 
ATOM      4  C   UNL     1      17.895  23.264  11.393  0.00  0.00    +0.166 C 
ATOM      5  H   UNL     1      16.372  22.263  10.505  0.00  0.00    +0.163 HD
ATOM      6  H   UNL     1      18.189  23.009  13.412  0.00  0.00    +0.159 HD
ATOM      7  H   UNL     1      16.846  22.143  12.766  0.00  0.00    +0.159 HD
ATOM      8  H   UNL     1      19.192  24.503  10.379  0.00  0.00    +0.159 HD
ATOM      9  H   UNL     1      19.514  24.343  12.061  0.00  0.00    +0.159 HD
ENDROOT
BRANCH   1  10
ATOM     10  C   UNL     1      17.298  23.451   8.999  0.00  0.00    +0.151 C 
BRANCH  10  11
ATOM     11  C   UNL     1      16.342  22.752   8.072  0.00  0.00    -0.028 A 
ATOM     12  C   UNL     1      15.096  22.307   8.539  0.00  0.00    +0.005 A 
ATOM     13  C   UNL     1      16.672  22.538   6.725  0.00  0.00    +0.005 A 
ATOM     14  C   UNL     1      14.195  21.685   7.671  0.00  0.00    +0.000 A 
ATOM     15  C   UNL     1      15.770  21.916   5.863  0.00  0.00    +0.000 A 
ATOM     16  C   UNL     1      14.531  21.491   6.335  0.00  0.00    +0.000 A 
ENDBRANCH  10  11
ENDBRANCH   1  10
TORSDOF 2
ENDMDL
MODEL 5
REMARK VINA RESULT:    -5.424     20.340     22.231
REMARK INTER + INTRA:          -6.217
REMARK INTER:                  -6.053
REMARK INTRA:                  -0.163
REMARK UNBOUND:                -0.158
REMARK  Name = 1550473
REMARK  2 active torsions:
REMARK  status: ('A' for Active; 'I' for Inactive)
REMARK    1  A    between atoms: N_1  and  C_4
REMARK    2  A    between atoms: C_4  and  C_5
REMARK                            x       y       z     vdW  Elec       q    Type
REMARK                         _______ _______ _______ _____ _____    ______ ____
ROOT
ATOM      1  N   UNL     1      10.231  -5.036   9.369  0.00  0.00    -0.354 N 
ATOM      2  N   UNL     1      10.703  -7.252   8.887  0.00  0.00    -0.372 N 
ATOM      3  N   UNL     1       9.251  -6.107   7.529  0.00  0.00    -0.372 N 
ATOM      4  C   UNL     1      10.056  -6.117   8.596  0.00  0.00    +0.166 C 
ATOM      5  H   UNL     1      10.832  -5.117  10.181  0.00  0.00    +0.163 HD
ATOM      6  H   UNL     1      10.594  -8.082   8.321  0.00  0.00    +0.159 HD
ATOM      7  H   UNL     1      11.338  -7.317   9.673  0.00  0.00    +0.159 HD
ATOM      8  H   UNL     1       8.730  -5.283   7.259  0.00  0.00    +0.159 HD
ATOM      9  H   UNL     1       9.119  -6.931   6.956  0.00  0.00    +0.159 HD
ENDROOT
BRANCH   1  10
ATOM     10  C   UNL     1       9.616  -3.736   9.107  0.00  0.00    +0.151 C 
BRANCH  10  11
ATOM     11  C   UNL     1       8.681  -3.399  10.236  0.00  0.00    -0.028 A 
ATOM     12  C   UNL     1       7.369  -3.894  10.246  0.00  0.00    +0.005 A 
ATOM     13  C   UNL     1       9.104  -2.590  11.302  0.00  0.00    +0.005 A 
ATOM     14  C   UNL     1       6.510  -3.606  11.309  0.00  0.00    +0.000 A 
ATOM     15  C   UNL     1       8.243  -2.304  12.362  0.00  0.00    +0.000 A 
ATOM     16  C   UNL     1       6.947  -2.814  12.366  0.00  0.00    +0.000 A 
ENDBRANCH  10  11
ENDBRANCH   1  10
TORSDOF 2
ENDMDL
MODEL 6
REMARK VINA RESULT:    -5.360      2.981      4.905
REMARK INTER + INTRA:          -6.145
REMARK INTER:                  -5.967
REMARK INTRA:                  -0.178
REMARK UNBOUND:                -0.158
REMARK  Name = 1550473
REMARK  2 active torsions:
REMARK  status: ('A' for Active; 'I' for Inactive)
REMARK    1  A    between atoms: N_1  and  C_4
REMARK    2  A    between atoms: C_4  and  C_5
REMARK                            x       y       z     vdW  Elec       q    Type
REMARK                         _______ _______ _______ _____ _____    ______ ____
ROOT
ATOM      1  N   UNL     1       1.015 -18.736  -1.059  0.00  0.00    -0.354 N 
ATOM      2  N   UNL     1       2.645 -17.520   0.050  0.00  0.00    -0.372 N 
ATOM      3  N   UNL     1       1.697 -19.323   1.105  0.00  0.00    -0.372 N 
ATOM      4  C   UNL     1       1.774 -18.536   0.027  0.00  0.00    +0.166 C 
ATOM      5  H   UNL     1       1.100 -18.086  -1.832  0.00  0.00    +0.163 HD
ATOM      6  H   UNL     1       3.234 -17.347   0.854  0.00  0.00    +0.159 HD
ATOM      7  H   UNL     1       2.761 -16.900  -0.742  0.00  0.00    +0.159 HD
ATOM      8  H   UNL     1       1.055 -20.103   1.154  0.00  0.00    +0.159 HD
ATOM      9  H   UNL     1       2.269 -19.159   1.924  0.00  0.00    +0.159 HD
ENDROOT
BRANCH   1  10
ATOM     10  C   UNL     1       0.075 -19.845  -1.206  0.00  0.00    +0.151 C 
BRANCH  10  11
ATOM     11  C   UNL     1       0.757 -20.976  -1.925  0.00  0.00    -0.028 A 
ATOM     12  C   UNL     1       1.069 -20.868  -3.288  0.00  0.00    +0.005 A 
ATOM     13  C   UNL     1       1.099 -22.156  -1.247  0.00  0.00    +0.005 A 
ATOM     14  C   UNL     1       1.730 -21.906  -3.949  0.00  0.00    +0.000 A 
ATOM     15  C   UNL     1       1.758 -23.191  -1.911  0.00  0.00    +0.000 A 
ATOM     16  C   UNL     1       2.076 -23.064  -3.261  0.00  0.00    +0.000 A 
ENDBRANCH  10  11
ENDBRANCH   1  10
TORSDOF 2
ENDMDL
MODEL 7
REMARK VINA RESULT:    -5.337     41.236     42.257
REMARK INTER + INTRA:          -6.119
REMARK INTER:                  -5.995
REMARK INTRA:                  -0.124
REMARK UNBOUND:                -0.158
REMARK  Name = 1550473
REMARK  2 active torsions:
REMARK  status: ('A' for Active; 'I' for Inactive)
REMARK    1  A    between atoms: N_1  and  C_4
REMARK    2  A    between atoms: C_4  and  C_5
REMARK                            x       y       z     vdW  Elec       q    Type
REMARK                         _______ _______ _______ _____ _____    ______ ____
ROOT
ATOM      1  N   UNL     1      -4.734  16.002  16.194  0.00  0.00    -0.354 N 
ATOM      2  N   UNL     1      -6.414  14.449  16.551  0.00  0.00    -0.372 N 
ATOM      3  N   UNL     1      -6.950  16.680  16.545  0.00  0.00    -0.372 N 
ATOM      4  C   UNL     1      -6.023  15.723  16.428  0.00  0.00    +0.166 C 
ATOM      5  H   UNL     1      -4.076  15.233  16.146  0.00  0.00    +0.163 HD
ATOM      6  H   UNL     1      -7.381  14.207  16.725  0.00  0.00    +0.159 HD
ATOM      7  H   UNL     1      -5.762  13.680  16.457  0.00  0.00    +0.159 HD
ATOM      8  H   UNL     1      -6.718  17.661  16.469  0.00  0.00    +0.159 HD
ATOM      9  H   UNL     1      -7.920  16.459  16.731  0.00  0.00    +0.159 HD
ENDROOT
BRANCH   1  10
ATOM     10  C   UNL     1      -4.214  17.353  15.991  0.00  0.00    +0.151 C 
BRANCH  10  11
ATOM     11  C   UNL     1      -2.720  17.336  16.167  0.00  0.00    -0.028 A 
ATOM     12  C   UNL     1      -2.022  16.120  16.209  0.00  0.00    +0.005 A 
ATOM     13  C   UNL     1      -1.997  18.533  16.288  0.00  0.00    +0.005 A 
ATOM     14  C   UNL     1      -0.632  16.105  16.342  0.00  0.00    +0.000 A 
ATOM     15  C   UNL     1      -0.609  18.513  16.422  0.00  0.00    +0.000 A 
ATOM     16  C   UNL     1       0.074  17.299  16.446  0.00  0.00    +0.000 A 
ENDBRANCH  10  11
ENDBRANCH   1  10
TORSDOF 2
ENDMDL
MODEL 8
REMARK VINA RESULT:    -5.323      2.818      4.954
REMARK INTER + INTRA:          -6.104
REMARK INTER:                  -6.013
REMARK INTRA:                  -0.091
REMARK UNBOUND:                -0.158
REMARK  Name = 1550473
REMARK  2 active torsions:
REMARK  status: ('A' for Active; 'I' for Inactive)
REMARK    1  A    between atoms: N_1  and  C_4
REMARK    2  A    between atoms: C_4  and  C_5
REMARK                            x       y       z     vdW  Elec       q    Type
REMARK                         _______ _______ _______ _____ _____    ______ ____
ROOT
ATOM      1  N   UNL     1       1.032 -19.739  -0.587  0.00  0.00    -0.354 N 
ATOM      2  N   UNL     1       0.556 -18.957   1.540  0.00  0.00    -0.372 N 
ATOM      3  N   UNL     1       2.305 -18.026   0.382  0.00  0.00    -0.372 N 
ATOM      4  C   UNL     1       1.303 -18.911   0.431  0.00  0.00    +0.166 C 
ATOM      5  H   UNL     1       0.278 -20.408  -0.476  0.00  0.00    +0.163 HD
ATOM      6  H   UNL     1       0.734 -18.342   2.323  0.00  0.00    +0.159 HD
ATOM      7  H   UNL     1      -0.226 -19.594   1.630  0.00  0.00    +0.159 HD
ATOM      8  H   UNL     1       2.909 -17.946  -0.424  0.00  0.00    +0.159 HD
ATOM      9  H   UNL     1       2.506 -17.411   1.160  0.00  0.00    +0.159 HD
ENDROOT
BRANCH   1  10
ATOM     10  C   UNL     1       1.751 -19.733  -1.859  0.00  0.00    +0.151 C 
BRANCH  10  11
ATOM     11  C   UNL     1       1.137 -20.755  -2.776  0.00  0.00    -0.028 A 
ATOM     12  C   UNL     1       1.627 -22.069  -2.808  0.00  0.00    +0.005 A 
ATOM     13  C   UNL     1       0.060 -20.417  -3.610  0.00  0.00    +0.005 A 
ATOM     14  C   UNL     1       1.037 -23.026  -3.637  0.00  0.00    +0.000 A 
ATOM     15  C   UNL     1      -0.526 -21.376  -4.437  0.00  0.00    +0.000 A 
ATOM     16  C   UNL     1      -0.038 -22.681  -4.448  0.00  0.00    +0.000 A 
ENDBRANCH  10  11
ENDBRANCH   1  10
TORSDOF 2
ENDMDL
MODEL 9
REMARK VINA RESULT:    -5.224     43.297     44.761
REMARK INTER + INTRA:          -5.993
REMARK INTER:                  -5.868
REMARK INTRA:                  -0.125
REMARK UNBOUND:                -0.158
REMARK  Name = 1550473
REMARK  2 active torsions:
REMARK  status: ('A' for Active; 'I' for Inactive)
REMARK    1  A    between atoms: N_1  and  C_4
REMARK    2  A    between atoms: C_4  and  C_5
REMARK                            x       y       z     vdW  Elec       q    Type
REMARK                         _______ _______ _______ _____ _____    ______ ____
ROOT
ATOM      1  N   UNL     1      -1.242  21.547  13.178  0.00  0.00    -0.354 N 
ATOM      2  N   UNL     1      -1.261  22.844  11.259  0.00  0.00    -0.372 N 
ATOM      3  N   UNL     1      -1.858  23.807  13.255  0.00  0.00    -0.372 N 
ATOM      4  C   UNL     1      -1.455  22.726  12.578  0.00  0.00    +0.166 C 
ATOM      5  H   UNL     1      -0.967  20.758  12.604  0.00  0.00    +0.163 HD
ATOM      6  H   UNL     1      -1.410  23.722  10.780  0.00  0.00    +0.159 HD
ATOM      7  H   UNL     1      -0.942  22.066  10.696  0.00  0.00    +0.159 HD
ATOM      8  H   UNL     1      -2.028  23.783  14.251  0.00  0.00    +0.159 HD
ATOM      9  H   UNL     1      -2.024  24.692  12.791  0.00  0.00    +0.159 HD
ENDROOT
BRANCH   1  10
ATOM     10  C   UNL     1      -1.372  21.327  14.617  0.00  0.00    +0.151 C 
BRANCH  10  11
ATOM     11  C   UNL     1      -0.733  20.012  14.972  0.00  0.00    -0.028 A 
ATOM     12  C   UNL     1       0.059  19.331  14.037  0.00  0.00    +0.005 A 
ATOM     13  C   UNL     1      -0.912  19.446  16.244  0.00  0.00    +0.005 A 
ATOM     14  C   UNL     1       0.678  18.125  14.377  0.00  0.00    +0.000 A 
ATOM     15  C   UNL     1      -0.294  18.242  16.578  0.00  0.00    +0.000 A 
ATOM     16  C   UNL     1       0.503  17.582  15.645  0.00  0.00    +0.000 A 
ENDBRANCH  10  11
ENDBRANCH   1  10
TORSDOF 2
ENDMDL
