MODEL 1
REMARK VINA RESULT:    -6.105      0.000      0.000
REMARK INTER + INTRA:          -6.963
REMARK INTER:                  -6.819
REMARK INTRA:                  -0.144
REMARK UNBOUND:                -0.144
REMARK  Name = 1550473
REMARK  2 active torsions:
REMARK  status: ('A' for Active; 'I' for Inactive)
REMARK    1  A    between atoms: N_1  and  C_4
REMARK    2  A    between atoms: C_4  and  C_5
REMARK                            x       y       z     vdW  Elec       q    Type
REMARK                         _______ _______ _______ _____ _____    ______ ____
ROOT
ATOM      1  N   UNL     1      -6.088   3.127  13.795  0.00  0.00    -0.354 N 
ATOM      2  N   UNL     1      -5.420   5.290  13.306  0.00  0.00    -0.372 N 
ATOM      3  N   UNL     1      -4.722   3.579  11.945  0.00  0.00    -0.372 N 
ATOM      4  C   UNL     1      -5.413   3.983  13.017  0.00  0.00    +0.166 C 
ATOM      5  H   UNL     1      -6.567   3.493  14.610  0.00  0.00    +0.163 HD
ATOM      6  H   UNL     1      -4.923   5.960  12.734  0.00  0.00    +0.159 HD
ATOM      7  H   UNL     1      -5.937   5.658  14.094  0.00  0.00    +0.159 HD
ATOM      8  H   UNL     1      -4.672   2.605  11.677  0.00  0.00    +0.159 HD
ATOM      9  H   UNL     1      -4.209   4.233  11.368  0.00  0.00    +0.159 HD
ENDROOT
BRANCH   1  10
ATOM     10  C   UNL     1      -6.188   1.691  13.537  0.00  0.00    +0.151 C 
BRANCH  10  11
ATOM     11  C   UNL     1      -5.580   0.941  14.690  0.00  0.00    -0.028 A 
ATOM     12  C   UNL     1      -4.364   0.259  14.534  0.00  0.00    +0.005 A 
ATOM     13  C   UNL     1      -6.211   0.914  15.943  0.00  0.00    +0.005 A 
ATOM     14  C   UNL     1      -3.784  -0.413  15.612  0.00  0.00    +0.000 A 
ATOM     15  C   UNL     1      -5.629   0.241  17.017  0.00  0.00    +0.000 A 
ATOM     16  C   UNL     1      -4.414  -0.420  16.852  0.00  0.00    +0.000 A 
ENDBRANCH  10  11
ENDBRANCH   1  10
TORSDOF 2
ENDMDL
MODEL 2
REMARK VINA RESULT:    -5.864     11.490     12.726
REMARK INTER + INTRA:          -6.694
REMARK INTER:                  -6.559
REMARK INTRA:                  -0.135
REMARK UNBOUND:                -0.144
REMARK  Name = 1550473
REMARK  2 active torsions:
REMARK  status: ('A' for Active; 'I' for Inactive)
REMARK    1  A    between atoms: N_1  and  C_4
REMARK    2  A    between atoms: C_4  and  C_5
REMARK                            x       y       z     vdW  Elec       q    Type
REMARK                         _______ _______ _______ _____ _____    ______ ____
ROOT
ATOM      1  N   UNL     1     -11.058   5.989   5.513  0.00  0.00    -0.354 N 
ATOM      2  N   UNL     1     -13.311   6.521   5.568  0.00  0.00    -0.372 N 
ATOM      3  N   UNL     1     -11.768   8.205   5.789  0.00  0.00    -0.372 N 
ATOM      4  C   UNL     1     -12.030   6.904   5.624  0.00  0.00    +0.166 C 
ATOM      5  H   UNL     1     -11.322   5.015   5.419  0.00  0.00    +0.163 HD
ATOM      6  H   UNL     1     -14.066   7.190   5.646  0.00  0.00    +0.159 HD
ATOM      7  H   UNL     1     -13.573   5.553   5.429  0.00  0.00    +0.159 HD
ATOM      8  H   UNL     1     -10.822   8.558   5.845  0.00  0.00    +0.159 HD
ATOM      9  H   UNL     1     -12.510   8.888   5.881  0.00  0.00    +0.159 HD
ENDROOT
BRANCH   1  10
ATOM     10  C   UNL     1      -9.631   6.308   5.506  0.00  0.00    +0.151 C 
BRANCH  10  11
ATOM     11  C   UNL     1      -9.026   5.827   4.217  0.00  0.00    -0.028 A 
ATOM     12  C   UNL     1      -9.830   5.242   3.227  0.00  0.00    +0.005 A 
ATOM     13  C   UNL     1      -7.650   5.957   3.975  0.00  0.00    +0.005 A 
ATOM     14  C   UNL     1      -9.274   4.822   2.017  0.00  0.00    +0.000 A 
ATOM     15  C   UNL     1      -7.098   5.536   2.766  0.00  0.00    +0.000 A 
ATOM     16  C   UNL     1      -7.910   4.971   1.786  0.00  0.00    +0.000 A 
ENDBRANCH  10  11
ENDBRANCH   1  10
TORSDOF 2
ENDMDL
MODEL 3
REMARK VINA RESULT:    -5.835      5.107      8.460
REMARK INTER + INTRA:          -6.661
REMARK INTER:                  -6.560
REMARK INTRA:                  -0.101
REMARK UNBOUND:                -0.144
REMARK  Name = 1550473
REMARK  2 active torsions:
REMARK  status: ('A' for Active; 'I' for Inactive)
REMARK    1  A    between atoms: N_1  and  C_4
REMARK    2  A    between atoms: C_4  and  C_5
REMARK                            x       y       z     vdW  Elec       q    Type
REMARK                         _______ _______ _______ _____ _____    ______ ____
ROOT
ATOM      1  N   UNL     1      -4.662   5.544  10.636  0.00  0.00    -0.354 N 
ATOM      2  N   UNL     1      -5.365   3.415  11.217  0.00  0.00    -0.372 N 
ATOM      3  N   UNL     1      -4.765   4.877  12.880  0.00  0.00    -0.372 N 
ATOM      4  C   UNL     1      -4.925   4.626  11.577  0.00  0.00    +0.166 C 
ATOM      5  H   UNL     1      -4.775   5.282   9.664  0.00  0.00    +0.163 HD
ATOM      6  H   UNL     1      -5.576   2.703  11.904  0.00  0.00    +0.159 HD
ATOM      7  H   UNL     1      -5.521   3.171  10.246  0.00  0.00    +0.159 HD
ATOM      8  H   UNL     1      -4.431   5.769  13.217  0.00  0.00    +0.159 HD
ATOM      9  H   UNL     1      -4.959   4.174  13.583  0.00  0.00    +0.159 HD
ENDROOT
BRANCH   1  10
ATOM     10  C   UNL     1      -4.230   6.910  10.925  0.00  0.00    +0.151 C 
BRANCH  10  11
ATOM     11  C   UNL     1      -3.407   7.419   9.774  0.00  0.00    -0.028 A 
ATOM     12  C   UNL     1      -3.976   7.561   8.500  0.00  0.00    +0.005 A 
ATOM     13  C   UNL     1      -2.059   7.765   9.951  0.00  0.00    +0.005 A 
ATOM     14  C   UNL     1      -3.221   8.062   7.437  0.00  0.00    +0.000 A 
ATOM     15  C   UNL     1      -1.308   8.264   8.887  0.00  0.00    +0.000 A 
ATOM     16  C   UNL     1      -1.890   8.415   7.631  0.00  0.00    +0.000 A 
ENDBRANCH  10  11
ENDBRANCH   1  10
TORSDOF 2
ENDMDL
MODEL 4
REMARK VINA RESULT:    -5.799      5.989      8.718
REMARK INTER + INTRA:          -6.622
REMARK INTER:                  -6.495
REMARK INTRA:                  -0.127
REMARK UNBOUND:                -0.144
REMARK  Name = 1550473
REMARK  2 active torsions:
REMARK  status: ('A' for Active; 'I' for Inactive)
REMARK    1  A    between atoms: N_1  and  C_4
REMARK    2  A    between atoms: C_4  and  C_5
REMARK                            x       y       z     vdW  Elec       q    Type
REMARK                         _______ _______ _______ _____ _____    ______ ____
ROOT
ATOM      1  N   UNL     1      -4.655   7.078  10.799  0.00  0.00    -0.354 N 
ATOM      2  N   UNL     1      -6.816   6.636  11.506  0.00  0.00    -0.372 N 
ATOM      3  N   UNL     1      -5.068   5.586  12.558  0.00  0.00    -0.372 N 
ATOM      4  C   UNL     1      -5.498   6.434  11.618  0.00  0.00    +0.166 C 
ATOM      5  H   UNL     1      -5.046   7.685  10.088  0.00  0.00    +0.163 HD
ATOM      6  H   UNL     1      -7.476   6.166  12.112  0.00  0.00    +0.159 HD
ATOM      7  H   UNL     1      -7.201   7.278  10.824  0.00  0.00    +0.159 HD
ATOM      8  H   UNL     1      -4.086   5.386  12.691  0.00  0.00    +0.159 HD
ATOM      9  H   UNL     1      -5.714   5.098  13.167  0.00  0.00    +0.159 HD
ENDROOT
BRANCH   1  10
ATOM     10  C   UNL     1      -3.199   6.971  10.875  0.00  0.00    +0.151 C 
BRANCH  10  11
ATOM     11  C   UNL     1      -2.608   7.367   9.550  0.00  0.00    -0.028 A 
ATOM     12  C   UNL     1      -1.221   7.326   9.348  0.00  0.00    +0.005 A 
ATOM     13  C   UNL     1      -3.431   7.779   8.490  0.00  0.00    +0.005 A 
ATOM     14  C   UNL     1      -0.674   7.665   8.108  0.00  0.00    +0.000 A 
ATOM     15  C   UNL     1      -2.881   8.118   7.254  0.00  0.00    +0.000 A 
ATOM     16  C   UNL     1      -1.502   8.059   7.063  0.00  0.00    +0.000 A 
ENDBRANCH  10  11
ENDBRANCH   1  10
TORSDOF 2
ENDMDL
MODEL 5
REMARK VINA RESULT:    -5.687      6.775      8.257
REMARK INTER + INTRA:          -6.496
REMARK INTER:                  -6.380
REMARK INTRA:                  -0.116
REMARK UNBOUND:                -0.144
REMARK  Name = 1550473
REMARK  2 active torsions:
REMARK  status: ('A' for Active; 'I' for Inactive)
REMARK    1  A    between atoms: N_1  and  C_4
REMARK    2  A    between atoms: C_4  and  C_5
REMARK                            x       y       z     vdW  Elec       q    Type
REMARK                         _______ _______ _______ _____ _____    ______ ____
ROOT
ATOM      1  N   UNL     1      -4.914   6.940   9.581  0.00  0.00    -0.354 N 
ATOM      2  N   UNL     1      -3.010   8.167  10.063  0.00  0.00    -0.372 N 
ATOM      3  N   UNL     1      -3.566   6.404  11.421  0.00  0.00    -0.372 N 
ATOM      4  C   UNL     1      -3.842   7.160  10.354  0.00  0.00    +0.166 C 
ATOM      5  H   UNL     1      -5.084   7.568   8.804  0.00  0.00    +0.163 HD
ATOM      6  H   UNL     1      -2.191   8.356  10.626  0.00  0.00    +0.159 HD
ATOM      7  H   UNL     1      -3.158   8.765   9.259  0.00  0.00    +0.159 HD
ATOM      8  H   UNL     1      -4.158   5.632  11.698  0.00  0.00    +0.159 HD
ATOM      9  H   UNL     1      -2.758   6.584  12.004  0.00  0.00    +0.159 HD
ENDROOT
BRANCH   1  10
ATOM     10  C   UNL     1      -5.853   5.837   9.780  0.00  0.00    +0.151 C 
BRANCH  10  11
ATOM     11  C   UNL     1      -6.381   5.394   8.443  0.00  0.00    -0.028 A 
ATOM     12  C   UNL     1      -6.702   6.338   7.457  0.00  0.00    +0.005 A 
ATOM     13  C   UNL     1      -6.557   4.032   8.155  0.00  0.00    +0.005 A 
ATOM     14  C   UNL     1      -7.164   5.926   6.204  0.00  0.00    +0.000 A 
ATOM     15  C   UNL     1      -7.019   3.625   6.904  0.00  0.00    +0.000 A 
ATOM     16  C   UNL     1      -7.320   4.571   5.928  0.00  0.00    +0.000 A 
ENDBRANCH  10  11
ENDBRANCH   1  10
TORSDOF 2
ENDMDL
MODEL 6
REMARK VINA RESULT:    -5.471      4.147      7.553
REMARK INTER + INTRA:          -6.255
REMARK INTER:                  -6.129
REMARK INTRA:                  -0.126
REMARK UNBOUND:                -0.144
REMARK  Name = 1550473
REMARK  2 active torsions:
REMARK  status: ('A' for Active; 'I' for Inactive)
REMARK    1  A    between atoms: N_1  and  C_4
REMARK    2  A    between atoms: C_4  and  C_5
REMARK                            x       y       z     vdW  Elec       q    Type
REMARK                         _______ _______ _______ _____ _____    ______ ____
ROOT
ATOM      1  N   UNL     1      -4.631   4.474  11.317  0.00  0.00    -0.354 N 
ATOM      2  N   UNL     1      -5.190   2.733  12.738  0.00  0.00    -0.372 N 
ATOM      3  N   UNL     1      -5.383   4.890  13.497  0.00  0.00    -0.372 N 
ATOM      4  C   UNL     1      -5.064   4.046  12.510  0.00  0.00    +0.166 C 
ATOM      5  H   UNL     1      -4.377   3.783  10.620  0.00  0.00    +0.163 HD
ATOM      6  H   UNL     1      -5.518   2.381  13.627  0.00  0.00    +0.159 HD
ATOM      7  H   UNL     1      -4.980   2.046  12.025  0.00  0.00    +0.159 HD
ATOM      8  H   UNL     1      -5.304   5.893  13.390  0.00  0.00    +0.159 HD
ATOM      9  H   UNL     1      -5.702   4.556  14.398  0.00  0.00    +0.159 HD
ENDROOT
BRANCH   1  10
ATOM     10  C   UNL     1      -4.510   5.883  10.948  0.00  0.00    +0.151 C 
BRANCH  10  11
ATOM     11  C   UNL     1      -5.096   6.085   9.578  0.00  0.00    -0.028 A 
ATOM     12  C   UNL     1      -4.260   6.269   8.466  0.00  0.00    +0.005 A 
ATOM     13  C   UNL     1      -6.485   6.087   9.383  0.00  0.00    +0.005 A 
ATOM     14  C   UNL     1      -4.803   6.426   7.189  0.00  0.00    +0.000 A 
ATOM     15  C   UNL     1      -7.024   6.245   8.106  0.00  0.00    +0.000 A 
ATOM     16  C   UNL     1      -6.182   6.412   7.009  0.00  0.00    +0.000 A 
ENDBRANCH  10  11
ENDBRANCH   1  10
TORSDOF 2
ENDMDL
MODEL 7
REMARK VINA RESULT:    -5.405      3.039      4.498
REMARK INTER + INTRA:          -6.181
REMARK INTER:                  -6.061
REMARK INTRA:                  -0.120
REMARK UNBOUND:                -0.144
REMARK  Name = 1550473
REMARK  2 active torsions:
REMARK  status: ('A' for Active; 'I' for Inactive)
REMARK    1  A    between atoms: N_1  and  C_4
REMARK    2  A    between atoms: C_4  and  C_5
REMARK                            x       y       z     vdW  Elec       q    Type
REMARK                         _______ _______ _______ _____ _____    ______ ____
ROOT
ATOM      1  N   UNL     1      -5.289   0.527  15.947  0.00  0.00    -0.354 N 
ATOM      2  N   UNL     1      -4.388   0.617  13.816  0.00  0.00    -0.372 N 
ATOM      3  N   UNL     1      -3.244  -0.507  15.457  0.00  0.00    -0.372 N 
ATOM      4  C   UNL     1      -4.311   0.210  15.089  0.00  0.00    +0.166 C 
ATOM      5  H   UNL     1      -6.056   1.099  15.613  0.00  0.00    +0.163 HD
ATOM      6  H   UNL     1      -3.666   0.390  13.144  0.00  0.00    +0.159 HD
ATOM      7  H   UNL     1      -5.178   1.149  13.473  0.00  0.00    +0.159 HD
ATOM      8  H   UNL     1      -3.123  -0.839  16.405  0.00  0.00    +0.159 HD
ATOM      9  H   UNL     1      -2.506  -0.734  14.802  0.00  0.00    +0.159 HD
ENDROOT
BRANCH   1  10
ATOM     10  C   UNL     1      -5.328   0.088  17.341  0.00  0.00    +0.151 C 
BRANCH  10  11
ATOM     11  C   UNL     1      -6.704   0.334  17.896  0.00  0.00    -0.028 A 
ATOM     12  C   UNL     1      -7.827   0.298  17.056  0.00  0.00    +0.005 A 
ATOM     13  C   UNL     1      -6.892   0.599  19.261  0.00  0.00    +0.005 A 
ATOM     14  C   UNL     1      -9.108   0.497  17.576  0.00  0.00    +0.000 A 
ATOM     15  C   UNL     1      -8.173   0.798  19.776  0.00  0.00    +0.000 A 
ATOM     16  C   UNL     1      -9.280   0.744  18.934  0.00  0.00    +0.000 A 
ENDBRANCH  10  11
ENDBRANCH   1  10
TORSDOF 2
ENDMDL
MODEL 8
REMARK VINA RESULT:    -5.336      3.079      4.613
REMARK INTER + INTRA:          -6.105
REMARK INTER:                  -6.005
REMARK INTRA:                  -0.099
REMARK UNBOUND:                -0.144
REMARK  Name = 1550473
REMARK  2 active torsions:
REMARK  status: ('A' for Active; 'I' for Inactive)
REMARK    1  A    between atoms: N_1  and  C_4
REMARK    2  A    between atoms: C_4  and  C_5
REMARK                            x       y       z     vdW  Elec       q    Type
REMARK                         _______ _______ _______ _____ _____    ______ ____
ROOT
ATOM      1  N   UNL     1      -4.170   5.918  11.796  0.00  0.00    -0.354 N 
ATOM      2  N   UNL     1      -2.192   6.741  10.915  0.00  0.00    -0.372 N 
ATOM      3  N   UNL     1      -4.182   7.606  10.170  0.00  0.00    -0.372 N 
ATOM      4  C   UNL     1      -3.529   6.751  10.964  0.00  0.00    +0.166 C 
ATOM      5  H   UNL     1      -3.618   5.273  12.350  0.00  0.00    +0.163 HD
ATOM      6  H   UNL     1      -1.681   7.360  10.300  0.00  0.00    +0.159 HD
ATOM      7  H   UNL     1      -1.642   6.127  11.503  0.00  0.00    +0.159 HD
ATOM      8  H   UNL     1      -5.192   7.659  10.155  0.00  0.00    +0.159 HD
ATOM      9  H   UNL     1      -3.689   8.226   9.539  0.00  0.00    +0.159 HD
ENDROOT
BRANCH   1  10
ATOM     10  C   UNL     1      -5.621   5.887  11.965  0.00  0.00    +0.151 C 
BRANCH  10  11
ATOM     11  C   UNL     1      -6.047   4.485  12.301  0.00  0.00    -0.028 A 
ATOM     12  C   UNL     1      -5.843   3.969  13.589  0.00  0.00    +0.005 A 
ATOM     13  C   UNL     1      -6.660   3.669  11.338  0.00  0.00    +0.005 A 
ATOM     14  C   UNL     1      -6.265   2.677  13.911  0.00  0.00    +0.000 A 
ATOM     15  C   UNL     1      -7.080   2.379  11.663  0.00  0.00    +0.000 A 
ATOM     16  C   UNL     1      -6.885   1.884  12.950  0.00  0.00    +0.000 A 
ENDBRANCH  10  11
ENDBRANCH   1  10
TORSDOF 2
ENDMDL
MODEL 9
REMARK VINA RESULT:    -5.089      8.284     11.118
REMARK INTER + INTRA:          -5.829
REMARK INTER:                  -5.737
REMARK INTRA:                  -0.092
REMARK UNBOUND:                -0.144
REMARK  Name = 1550473
REMARK  2 active torsions:
REMARK  status: ('A' for Active; 'I' for Inactive)
REMARK    1  A    between atoms: N_1  and  C_4
REMARK    2  A    between atoms: C_4  and  C_5
REMARK                            x       y       z     vdW  Elec       q    Type
REMARK                         _______ _______ _______ _____ _____    ______ ____
ROOT
ATOM      1  N   UNL     1      -7.125   5.140   7.041  0.00  0.00    -0.354 N 
ATOM      2  N   UNL     1      -6.629   4.004   8.997  0.00  0.00    -0.372 N 
ATOM      3  N   UNL     1      -6.806   6.291   9.057  0.00  0.00    -0.372 N 
ATOM      4  C   UNL     1      -6.856   5.155   8.353  0.00  0.00    +0.166 C 
ATOM      5  H   UNL     1      -7.119   4.249   6.559  0.00  0.00    +0.163 HD
ATOM      6  H   UNL     1      -6.427   3.984   9.988  0.00  0.00    +0.159 HD
ATOM      7  H   UNL     1      -6.669   3.111   8.522  0.00  0.00    +0.159 HD
ATOM      8  H   UNL     1      -6.962   7.194   8.629  0.00  0.00    +0.159 HD
ATOM      9  H   UNL     1      -6.593   6.292  10.047  0.00  0.00    +0.159 HD
ENDROOT
BRANCH   1  10
ATOM     10  C   UNL     1      -7.440   6.334   6.257  0.00  0.00    +0.151 C 
BRANCH  10  11
ATOM     11  C   UNL     1      -7.897   5.915   4.887  0.00  0.00    -0.028 A 
ATOM     12  C   UNL     1      -9.230   5.539   4.666  0.00  0.00    +0.005 A 
ATOM     13  C   UNL     1      -7.004   5.897   3.805  0.00  0.00    +0.005 A 
ATOM     14  C   UNL     1      -9.663   5.179   3.387  0.00  0.00    +0.000 A 
ATOM     15  C   UNL     1      -7.439   5.536   2.530  0.00  0.00    +0.000 A 
ATOM     16  C   UNL     1      -8.769   5.179   2.321  0.00  0.00    +0.000 A 
ENDBRANCH  10  11
ENDBRANCH   1  10
TORSDOF 2
ENDMDL
