MODEL 1
REMARK VINA RESULT:    -6.012      0.000      0.000
REMARK INTER + INTRA:          -6.838
REMARK INTER:                  -6.715
REMARK INTRA:                  -0.123
REMARK UNBOUND:                -0.123
REMARK  Name = 1550473
REMARK  2 active torsions:
REMARK  status: ('A' for Active; 'I' for Inactive)
REMARK    1  A    between atoms: N_1  and  C_4
REMARK    2  A    between atoms: C_4  and  C_5
REMARK                            x       y       z     vdW  Elec       q    Type
REMARK                         _______ _______ _______ _____ _____    ______ ____
ROOT
ATOM      1  N   UNL     1      -2.786   5.522 -16.912  0.00  0.00    -0.354 N 
ATOM      2  N   UNL     1      -1.683   7.072 -15.591  0.00  0.00    -0.372 N 
ATOM      3  N   UNL     1      -1.747   4.882 -14.911  0.00  0.00    -0.372 N 
ATOM      4  C   UNL     1      -2.079   5.813 -15.812  0.00  0.00    +0.166 C 
ATOM      5  H   UNL     1      -3.032   6.278 -17.540  0.00  0.00    +0.163 HD
ATOM      6  H   UNL     1      -1.145   7.321 -14.772  0.00  0.00    +0.159 HD
ATOM      7  H   UNL     1      -1.890   7.818 -16.244  0.00  0.00    +0.159 HD
ATOM      8  H   UNL     1      -2.020   3.914 -15.016  0.00  0.00    +0.159 HD
ATOM      9  H   UNL     1      -1.219   5.114 -14.079  0.00  0.00    +0.159 HD
ENDROOT
BRANCH   1  10
ATOM     10  C   UNL     1      -3.220   4.173 -17.272  0.00  0.00    +0.151 C 
BRANCH  10  11
ATOM     11  C   UNL     1      -4.693   4.195 -17.575  0.00  0.00    -0.028 A 
ATOM     12  C   UNL     1      -5.616   3.671 -16.658  0.00  0.00    +0.005 A 
ATOM     13  C   UNL     1      -5.172   4.743 -18.774  0.00  0.00    +0.005 A 
ATOM     14  C   UNL     1      -6.986   3.718 -16.926  0.00  0.00    +0.000 A 
ATOM     15  C   UNL     1      -6.541   4.788 -19.038  0.00  0.00    +0.000 A 
ATOM     16  C   UNL     1      -7.448   4.277 -18.112  0.00  0.00    +0.000 A 
ENDBRANCH  10  11
ENDBRANCH   1  10
TORSDOF 2
ENDMDL
MODEL 2
REMARK VINA RESULT:    -5.964      4.272      5.765
REMARK INTER + INTRA:          -6.785
REMARK INTER:                  -6.615
REMARK INTRA:                  -0.170
REMARK UNBOUND:                -0.123
REMARK  Name = 1550473
REMARK  2 active torsions:
REMARK  status: ('A' for Active; 'I' for Inactive)
REMARK    1  A    between atoms: N_1  and  C_4
REMARK    2  A    between atoms: C_4  and  C_5
REMARK                            x       y       z     vdW  Elec       q    Type
REMARK                         _______ _______ _______ _____ _____    ______ ____
ROOT
ATOM      1  N   UNL     1      -8.505   3.758 -19.632  0.00  0.00    -0.354 N 
ATOM      2  N   UNL     1      -9.079   2.306 -21.343  0.00  0.00    -0.372 N 
ATOM      3  N   UNL     1      -7.947   4.234 -21.857  0.00  0.00    -0.372 N 
ATOM      4  C   UNL     1      -8.506   3.444 -20.934  0.00  0.00    +0.166 C 
ATOM      5  H   UNL     1      -8.972   3.131 -18.986  0.00  0.00    +0.163 HD
ATOM      6  H   UNL     1      -9.091   2.041 -22.318  0.00  0.00    +0.159 HD
ATOM      7  H   UNL     1      -9.504   1.659 -20.689  0.00  0.00    +0.159 HD
ATOM      8  H   UNL     1      -7.503   5.110 -21.615  0.00  0.00    +0.159 HD
ATOM      9  H   UNL     1      -7.960   3.992 -22.840  0.00  0.00    +0.159 HD
ENDROOT
BRANCH   1  10
ATOM     10  C   UNL     1      -7.861   4.947 -19.077  0.00  0.00    +0.151 C 
BRANCH  10  11
ATOM     11  C   UNL     1      -6.617   4.534 -18.341  0.00  0.00    -0.028 A 
ATOM     12  C   UNL     1      -6.705   3.807 -17.145  0.00  0.00    +0.005 A 
ATOM     13  C   UNL     1      -5.346   4.861 -18.838  0.00  0.00    +0.005 A 
ATOM     14  C   UNL     1      -5.549   3.396 -16.477  0.00  0.00    +0.000 A 
ATOM     15  C   UNL     1      -4.194   4.451 -18.167  0.00  0.00    +0.000 A 
ATOM     16  C   UNL     1      -4.296   3.716 -16.988  0.00  0.00    +0.000 A 
ENDBRANCH  10  11
ENDBRANCH   1  10
TORSDOF 2
ENDMDL
MODEL 3
REMARK VINA RESULT:    -5.566     31.109     32.128
REMARK INTER + INTRA:          -6.340
REMARK INTER:                  -6.220
REMARK INTRA:                  -0.120
REMARK UNBOUND:                -0.123
REMARK  Name = 1550473
REMARK  2 active torsions:
REMARK  status: ('A' for Active; 'I' for Inactive)
REMARK    1  A    between atoms: N_1  and  C_4
REMARK    2  A    between atoms: C_4  and  C_5
REMARK                            x       y       z     vdW  Elec       q    Type
REMARK                         _______ _______ _______ _____ _____    ______ ____
ROOT
ATOM      1  N   UNL     1       5.268  12.781  12.517  0.00  0.00    -0.354 N 
ATOM      2  N   UNL     1       6.586  11.083  11.653  0.00  0.00    -0.372 N 
ATOM      3  N   UNL     1       4.307  10.816  11.676  0.00  0.00    -0.372 N 
ATOM      4  C   UNL     1       5.376  11.570  11.954  0.00  0.00    +0.166 C 
ATOM      5  H   UNL     1       6.119  13.289  12.731  0.00  0.00    +0.163 HD
ATOM      6  H   UNL     1       6.698  10.173  11.225  0.00  0.00    +0.159 HD
ATOM      7  H   UNL     1       7.431  11.612  11.826  0.00  0.00    +0.159 HD
ATOM      8  H   UNL     1       3.366  11.124  11.884  0.00  0.00    +0.159 HD
ATOM      9  H   UNL     1       4.399   9.899  11.258  0.00  0.00    +0.159 HD
ENDROOT
BRANCH   1  10
ATOM     10  C   UNL     1       3.995  13.425  12.835  0.00  0.00    +0.151 C 
BRANCH  10  11
ATOM     11  C   UNL     1       4.059  14.869  12.422  0.00  0.00    -0.028 A 
ATOM     12  C   UNL     1       4.330  15.869  13.367  0.00  0.00    +0.005 A 
ATOM     13  C   UNL     1       3.855  15.244  11.085  0.00  0.00    +0.005 A 
ATOM     14  C   UNL     1       4.419  17.208  12.979  0.00  0.00    +0.000 A 
ATOM     15  C   UNL     1       3.944  16.582  10.701  0.00  0.00    +0.000 A 
ATOM     16  C   UNL     1       4.229  17.563  11.648  0.00  0.00    +0.000 A 
ENDBRANCH  10  11
ENDBRANCH   1  10
TORSDOF 2
ENDMDL
MODEL 4
REMARK VINA RESULT:    -5.490     31.672     32.918
REMARK INTER + INTRA:          -6.255
REMARK INTER:                  -6.102
REMARK INTRA:                  -0.153
REMARK UNBOUND:                -0.123
REMARK  Name = 1550473
REMARK  2 active torsions:
REMARK  status: ('A' for Active; 'I' for Inactive)
REMARK    1  A    between atoms: N_1  and  C_4
REMARK    2  A    between atoms: C_4  and  C_5
REMARK                            x       y       z     vdW  Elec       q    Type
REMARK                         _______ _______ _______ _____ _____    ______ ____
ROOT
ATOM      1  N   UNL     1       2.814  16.037  14.150  0.00  0.00    -0.354 N 
ATOM      2  N   UNL     1       0.801  17.146  14.433  0.00  0.00    -0.372 N 
ATOM      3  N   UNL     1       1.877  17.301  12.412  0.00  0.00    -0.372 N 
ATOM      4  C   UNL     1       1.844  16.822  13.661  0.00  0.00    +0.166 C 
ATOM      5  H   UNL     1       2.746  15.732  15.114  0.00  0.00    +0.163 HD
ATOM      6  H   UNL     1       0.052  17.733  14.090  0.00  0.00    +0.159 HD
ATOM      7  H   UNL     1       0.712  16.801  15.381  0.00  0.00    +0.159 HD
ATOM      8  H   UNL     1       2.640  17.098  11.781  0.00  0.00    +0.159 HD
ATOM      9  H   UNL     1       1.143  17.899  12.055  0.00  0.00    +0.159 HD
ENDROOT
BRANCH   1  10
ATOM     10  C   UNL     1       3.966  15.582  13.374  0.00  0.00    +0.151 C 
BRANCH  10  11
ATOM     11  C   UNL     1       3.873  14.093  13.185  0.00  0.00    -0.028 A 
ATOM     12  C   UNL     1       4.512  13.471  12.102  0.00  0.00    +0.005 A 
ATOM     13  C   UNL     1       3.152  13.297  14.088  0.00  0.00    +0.005 A 
ATOM     14  C   UNL     1       4.451  12.085  11.942  0.00  0.00    +0.000 A 
ATOM     15  C   UNL     1       3.093  11.913  13.925  0.00  0.00    +0.000 A 
ATOM     16  C   UNL     1       3.745  11.307  12.853  0.00  0.00    +0.000 A 
ENDBRANCH  10  11
ENDBRANCH   1  10
TORSDOF 2
ENDMDL
MODEL 5
REMARK VINA RESULT:    -5.453     30.559     32.457
REMARK INTER + INTRA:          -6.214
REMARK INTER:                  -6.083
REMARK INTRA:                  -0.131
REMARK UNBOUND:                -0.123
REMARK  Name = 1550473
REMARK  2 active torsions:
REMARK  status: ('A' for Active; 'I' for Inactive)
REMARK    1  A    between atoms: N_1  and  C_4
REMARK    2  A    between atoms: C_4  and  C_5
REMARK                            x       y       z     vdW  Elec       q    Type
REMARK                         _______ _______ _______ _____ _____    ______ ____
ROOT
ATOM      1  N   UNL     1       4.200  11.628  11.646  0.00  0.00    -0.354 N 
ATOM      2  N   UNL     1       4.992   9.560  10.968  0.00  0.00    -0.372 N 
ATOM      3  N   UNL     1       6.500  11.185  11.561  0.00  0.00    -0.372 N 
ATOM      4  C   UNL     1       5.228  10.806  11.397  0.00  0.00    +0.166 C 
ATOM      5  H   UNL     1       3.260  11.290  11.473  0.00  0.00    +0.163 HD
ATOM      6  H   UNL     1       5.747   8.916  10.775  0.00  0.00    +0.159 HD
ATOM      7  H   UNL     1       4.051   9.210  10.840  0.00  0.00    +0.159 HD
ATOM      8  H   UNL     1       6.745  12.114  11.876  0.00  0.00    +0.159 HD
ATOM      9  H   UNL     1       7.270  10.559  11.362  0.00  0.00    +0.159 HD
ENDROOT
BRANCH   1  10
ATOM     10  C   UNL     1       4.347  12.986  12.167  0.00  0.00    +0.151 C 
BRANCH  10  11
ATOM     11  C   UNL     1       3.544  13.117  13.432  0.00  0.00    -0.028 A 
ATOM     12  C   UNL     1       3.169  14.381  13.910  0.00  0.00    +0.005 A 
ATOM     13  C   UNL     1       3.150  11.980  14.154  0.00  0.00    +0.005 A 
ATOM     14  C   UNL     1       2.397  14.501  15.068  0.00  0.00    +0.000 A 
ATOM     15  C   UNL     1       2.380  12.104  15.310  0.00  0.00    +0.000 A 
ATOM     16  C   UNL     1       2.002  13.365  15.766  0.00  0.00    +0.000 A 
ENDBRANCH  10  11
ENDBRANCH   1  10
TORSDOF 2
ENDMDL
MODEL 6
REMARK VINA RESULT:    -5.434     26.513     27.715
REMARK INTER + INTRA:          -6.192
REMARK INTER:                  -6.048
REMARK INTRA:                  -0.144
REMARK UNBOUND:                -0.123
REMARK  Name = 1550473
REMARK  2 active torsions:
REMARK  status: ('A' for Active; 'I' for Inactive)
REMARK    1  A    between atoms: N_1  and  C_4
REMARK    2  A    between atoms: C_4  and  C_5
REMARK                            x       y       z     vdW  Elec       q    Type
REMARK                         _______ _______ _______ _____ _____    ______ ____
ROOT
ATOM      1  N   UNL     1      11.551  18.831   1.129  0.00  0.00    -0.354 N 
ATOM      2  N   UNL     1      13.199  20.407   0.721  0.00  0.00    -0.372 N 
ATOM      3  N   UNL     1      11.477  20.189  -0.780  0.00  0.00    -0.372 N 
ATOM      4  C   UNL     1      12.063  19.799   0.357  0.00  0.00    +0.166 C 
ATOM      5  H   UNL     1      12.059  18.561   1.963  0.00  0.00    +0.163 HD
ATOM      6  H   UNL     1      13.607  21.143   0.161  0.00  0.00    +0.159 HD
ATOM      7  H   UNL     1      13.680  20.167   1.579  0.00  0.00    +0.159 HD
ATOM      8  H   UNL     1      10.621  19.765  -1.113  0.00  0.00    +0.159 HD
ATOM      9  H   UNL     1      11.877  20.915  -1.360  0.00  0.00    +0.159 HD
ENDROOT
BRANCH   1  10
ATOM     10  C   UNL     1      10.291  18.144   0.850  0.00  0.00    +0.151 C 
BRANCH  10  11
ATOM     11  C   UNL     1       9.230  18.667   1.778  0.00  0.00    -0.028 A 
ATOM     12  C   UNL     1       7.872  18.537   1.452  0.00  0.00    +0.005 A 
ATOM     13  C   UNL     1       9.575  19.290   2.987  0.00  0.00    +0.005 A 
ATOM     14  C   UNL     1       6.885  18.996   2.327  0.00  0.00    +0.000 A 
ATOM     15  C   UNL     1       8.587  19.748   3.858  0.00  0.00    +0.000 A 
ATOM     16  C   UNL     1       7.242  19.599   3.529  0.00  0.00    +0.000 A 
ENDBRANCH  10  11
ENDBRANCH   1  10
TORSDOF 2
ENDMDL
MODEL 7
REMARK VINA RESULT:    -5.353     31.583     32.549
REMARK INTER + INTRA:          -6.102
REMARK INTER:                  -6.000
REMARK INTRA:                  -0.102
REMARK UNBOUND:                -0.123
REMARK  Name = 1550473
REMARK  2 active torsions:
REMARK  status: ('A' for Active; 'I' for Inactive)
REMARK    1  A    between atoms: N_1  and  C_4
REMARK    2  A    between atoms: C_4  and  C_5
REMARK                            x       y       z     vdW  Elec       q    Type
REMARK                         _______ _______ _______ _____ _____    ______ ____
ROOT
ATOM      1  N   UNL     1       4.206  16.111  13.195  0.00  0.00    -0.354 N 
ATOM      2  N   UNL     1       4.818  17.931  11.900  0.00  0.00    -0.372 N 
ATOM      3  N   UNL     1       2.655  17.170  11.794  0.00  0.00    -0.372 N 
ATOM      4  C   UNL     1       3.886  17.058  12.304  0.00  0.00    +0.166 C 
ATOM      5  H   UNL     1       5.164  16.060  13.521  0.00  0.00    +0.163 HD
ATOM      6  H   UNL     1       4.605  18.658  11.231  0.00  0.00    +0.159 HD
ATOM      7  H   UNL     1       5.763  17.906  12.262  0.00  0.00    +0.159 HD
ATOM      8  H   UNL     1       1.909  16.539  12.053  0.00  0.00    +0.159 HD
ATOM      9  H   UNL     1       2.426  17.885  11.114  0.00  0.00    +0.159 HD
ENDROOT
BRANCH   1  10
ATOM     10  C   UNL     1       3.252  15.146  13.741  0.00  0.00    +0.151 C 
BRANCH  10  11
ATOM     11  C   UNL     1       3.631  13.766  13.279  0.00  0.00    -0.028 A 
ATOM     12  C   UNL     1       4.520  13.593  12.207  0.00  0.00    +0.005 A 
ATOM     13  C   UNL     1       3.110  12.628  13.912  0.00  0.00    +0.005 A 
ATOM     14  C   UNL     1       4.895  12.311  11.797  0.00  0.00    +0.000 A 
ATOM     15  C   UNL     1       3.487  11.350  13.499  0.00  0.00    +0.000 A 
ATOM     16  C   UNL     1       4.381  11.192  12.443  0.00  0.00    +0.000 A 
ENDBRANCH  10  11
ENDBRANCH   1  10
TORSDOF 2
ENDMDL
MODEL 8
REMARK VINA RESULT:    -5.282     31.847     33.458
REMARK INTER + INTRA:          -6.023
REMARK INTER:                  -5.881
REMARK INTRA:                  -0.142
REMARK UNBOUND:                -0.123
REMARK  Name = 1550473
REMARK  2 active torsions:
REMARK  status: ('A' for Active; 'I' for Inactive)
REMARK    1  A    between atoms: N_1  and  C_4
REMARK    2  A    between atoms: C_4  and  C_5
REMARK                            x       y       z     vdW  Elec       q    Type
REMARK                         _______ _______ _______ _____ _____    ______ ____
ROOT
ATOM      1  N   UNL     1       1.960  13.396  15.579  0.00  0.00    -0.354 N 
ATOM      2  N   UNL     1       0.493  15.095  16.152  0.00  0.00    -0.372 N 
ATOM      3  N   UNL     1       2.694  15.272  16.777  0.00  0.00    -0.372 N 
ATOM      4  C   UNL     1       1.728  14.578  16.167  0.00  0.00    +0.166 C 
ATOM      5  H   UNL     1       1.179  12.905  15.160  0.00  0.00    +0.163 HD
ATOM      6  H   UNL     1       0.289  15.986  16.584  0.00  0.00    +0.159 HD
ATOM      7  H   UNL     1      -0.276  14.624  15.693  0.00  0.00    +0.159 HD
ATOM      8  H   UNL     1       3.646  14.934  16.828  0.00  0.00    +0.159 HD
ATOM      9  H   UNL     1       2.506  16.160  17.225  0.00  0.00    +0.159 HD
ENDROOT
BRANCH   1  10
ATOM     10  C   UNL     1       3.279  12.771  15.493  0.00  0.00    +0.151 C 
BRANCH  10  11
ATOM     11  C   UNL     1       3.676  12.661  14.046  0.00  0.00    -0.028 A 
ATOM     12  C   UNL     1       3.770  13.808  13.244  0.00  0.00    +0.005 A 
ATOM     13  C   UNL     1       3.965  11.413  13.473  0.00  0.00    +0.005 A 
ATOM     14  C   UNL     1       4.168  13.709  11.909  0.00  0.00    +0.000 A 
ATOM     15  C   UNL     1       4.361  11.318  12.139  0.00  0.00    +0.000 A 
ATOM     16  C   UNL     1       4.465  12.467  11.358  0.00  0.00    +0.000 A 
ENDBRANCH  10  11
ENDBRANCH   1  10
TORSDOF 2
ENDMDL
MODEL 9
REMARK VINA RESULT:    -5.194     32.319     33.742
REMARK INTER + INTRA:          -5.924
REMARK INTER:                  -5.759
REMARK INTRA:                  -0.165
REMARK UNBOUND:                -0.123
REMARK  Name = 1550473
REMARK  2 active torsions:
REMARK  status: ('A' for Active; 'I' for Inactive)
REMARK    1  A    between atoms: N_1  and  C_4
REMARK    2  A    between atoms: C_4  and  C_5
REMARK                            x       y       z     vdW  Elec       q    Type
REMARK                         _______ _______ _______ _____ _____    ______ ____
ROOT
ATOM      1  N   UNL     1       1.923  13.490  16.307  0.00  0.00    -0.354 N 
ATOM      2  N   UNL     1      -0.369  13.816  16.383  0.00  0.00    -0.372 N 
ATOM      3  N   UNL     1       0.961  15.485  15.541  0.00  0.00    -0.372 N 
ATOM      4  C   UNL     1       0.854  14.264  16.075  0.00  0.00    +0.166 C 
ATOM      5  H   UNL     1       1.778  12.587  16.742  0.00  0.00    +0.163 HD
ATOM      6  H   UNL     1      -1.194  14.375  16.216  0.00  0.00    +0.159 HD
ATOM      7  H   UNL     1      -0.515  12.894  16.775  0.00  0.00    +0.159 HD
ATOM      8  H   UNL     1       1.856  15.884  15.292  0.00  0.00    +0.159 HD
ATOM      9  H   UNL     1       0.148  16.065  15.377  0.00  0.00    +0.159 HD
ENDROOT
BRANCH   1  10
ATOM     10  C   UNL     1       3.293  13.863  15.959  0.00  0.00    +0.151 C 
BRANCH  10  11
ATOM     11  C   UNL     1       3.619  13.318  14.596  0.00  0.00    -0.028 A 
ATOM     12  C   UNL     1       3.260  12.008  14.248  0.00  0.00    +0.005 A 
ATOM     13  C   UNL     1       4.282  14.110  13.645  0.00  0.00    +0.005 A 
ATOM     14  C   UNL     1       3.536  11.512  12.971  0.00  0.00    +0.000 A 
ATOM     15  C   UNL     1       4.556  13.611  12.372  0.00  0.00    +0.000 A 
ATOM     16  C   UNL     1       4.181  12.313  12.035  0.00  0.00    +0.000 A 
ENDBRANCH  10  11
ENDBRANCH   1  10
TORSDOF 2
ENDMDL
