MODEL 1
REMARK VINA RESULT:    -4.786      0.000      0.000
REMARK INTER + INTRA:          -5.455
REMARK INTER:                  -5.345
REMARK INTRA:                  -0.110
REMARK UNBOUND:                -0.110
REMARK  Name = 1550473
REMARK  2 active torsions:
REMARK  status: ('A' for Active; 'I' for Inactive)
REMARK    1  A    between atoms: N_1  and  C_4
REMARK    2  A    between atoms: C_4  and  C_5
REMARK                            x       y       z     vdW  Elec       q    Type
REMARK                         _______ _______ _______ _____ _____    ______ ____
ROOT
ATOM      1  N   UNL     1     -14.383  -2.498 -10.208  0.00  0.00    -0.354 N 
ATOM      2  N   UNL     1     -14.192  -4.800 -10.043  0.00  0.00    -0.372 N 
ATOM      3  N   UNL     1     -13.966  -3.813 -12.102  0.00  0.00    -0.372 N 
ATOM      4  C   UNL     1     -14.182  -3.688 -10.788  0.00  0.00    +0.166 C 
ATOM      5  H   UNL     1     -14.571  -2.473  -9.212  0.00  0.00    +0.163 HD
ATOM      6  H   UNL     1     -14.040  -5.712 -10.452  0.00  0.00    +0.159 HD
ATOM      7  H   UNL     1     -14.334  -4.768  -9.040  0.00  0.00    +0.159 HD
ATOM      8  H   UNL     1     -13.952  -3.013 -12.720  0.00  0.00    +0.159 HD
ATOM      9  H   UNL     1     -13.823  -4.718 -12.532  0.00  0.00    +0.159 HD
ENDROOT
BRANCH   1  10
ATOM     10  C   UNL     1     -14.338  -1.222 -10.921  0.00  0.00    +0.151 C 
BRANCH  10  11
ATOM     11  C   UNL     1     -14.678  -0.113  -9.964  0.00  0.00    -0.028 A 
ATOM     12  C   UNL     1     -15.764  -0.238  -9.085  0.00  0.00    +0.005 A 
ATOM     13  C   UNL     1     -13.915   1.064  -9.928  0.00  0.00    +0.005 A 
ATOM     14  C   UNL     1     -16.062   0.780  -8.176  0.00  0.00    +0.000 A 
ATOM     15  C   UNL     1     -14.217   2.079  -9.020  0.00  0.00    +0.000 A 
ATOM     16  C   UNL     1     -15.289   1.935  -8.142  0.00  0.00    +0.000 A 
ENDBRANCH  10  11
ENDBRANCH   1  10
TORSDOF 2
ENDMDL
MODEL 2
REMARK VINA RESULT:    -4.566     25.340     26.819
REMARK INTER + INTRA:          -5.210
REMARK INTER:                  -5.053
REMARK INTRA:                  -0.157
REMARK UNBOUND:                -0.110
REMARK  Name = 1550473
REMARK  2 active torsions:
REMARK  status: ('A' for Active; 'I' for Inactive)
REMARK    1  A    between atoms: N_1  and  C_4
REMARK    2  A    between atoms: C_4  and  C_5
REMARK                            x       y       z     vdW  Elec       q    Type
REMARK                         _______ _______ _______ _____ _____    ______ ____
ROOT
ATOM      1  N   UNL     1      -0.836  10.892  11.118  0.00  0.00    -0.354 N 
ATOM      2  N   UNL     1       0.275  12.903  11.409  0.00  0.00    -0.372 N 
ATOM      3  N   UNL     1      -1.292  12.268  12.959  0.00  0.00    -0.372 N 
ATOM      4  C   UNL     1      -0.627  12.008  11.829  0.00  0.00    +0.166 C 
ATOM      5  H   UNL     1      -0.320  10.768  10.254  0.00  0.00    +0.163 HD
ATOM      6  H   UNL     1       0.457  13.753  11.926  0.00  0.00    +0.159 HD
ATOM      7  H   UNL     1       0.822  12.755  10.569  0.00  0.00    +0.159 HD
ATOM      8  H   UNL     1      -1.990  11.636  13.327  0.00  0.00    +0.159 HD
ATOM      9  H   UNL     1      -1.133  13.118  13.485  0.00  0.00    +0.159 HD
ENDROOT
BRANCH   1  10
ATOM     10  C   UNL     1      -1.756   9.829  11.517  0.00  0.00    +0.151 C 
BRANCH  10  11
ATOM     11  C   UNL     1      -2.934   9.822  10.582  0.00  0.00    -0.028 A 
ATOM     12  C   UNL     1      -2.741   9.809   9.193  0.00  0.00    +0.005 A 
ATOM     13  C   UNL     1      -4.247   9.825  11.080  0.00  0.00    +0.005 A 
ATOM     14  C   UNL     1      -3.835   9.773   8.325  0.00  0.00    +0.000 A 
ATOM     15  C   UNL     1      -5.336   9.790  10.209  0.00  0.00    +0.000 A 
ATOM     16  C   UNL     1      -5.130   9.761   8.832  0.00  0.00    +0.000 A 
ENDBRANCH  10  11
ENDBRANCH   1  10
TORSDOF 2
ENDMDL
MODEL 3
REMARK VINA RESULT:    -4.479     24.782     25.281
REMARK INTER + INTRA:          -5.113
REMARK INTER:                  -4.984
REMARK INTRA:                  -0.128
REMARK UNBOUND:                -0.110
REMARK  Name = 1550473
REMARK  2 active torsions:
REMARK  status: ('A' for Active; 'I' for Inactive)
REMARK    1  A    between atoms: N_1  and  C_4
REMARK    2  A    between atoms: C_4  and  C_5
REMARK                            x       y       z     vdW  Elec       q    Type
REMARK                         _______ _______ _______ _____ _____    ______ ____
ROOT
ATOM      1  N   UNL     1       6.355  -6.858   0.906  0.00  0.00    -0.354 N 
ATOM      2  N   UNL     1       4.763  -7.206  -0.740  0.00  0.00    -0.372 N 
ATOM      3  N   UNL     1       4.218  -7.658   1.443  0.00  0.00    -0.372 N 
ATOM      4  C   UNL     1       5.121  -7.240   0.549  0.00  0.00    +0.166 C 
ATOM      5  H   UNL     1       7.002  -6.579   0.178  0.00  0.00    +0.163 HD
ATOM      6  H   UNL     1       3.838  -7.485  -1.039  0.00  0.00    +0.159 HD
ATOM      7  H   UNL     1       5.397  -6.884  -1.461  0.00  0.00    +0.159 HD
ATOM      8  H   UNL     1       4.428  -7.712   2.431  0.00  0.00    +0.159 HD
ATOM      9  H   UNL     1       3.291  -7.953   1.162  0.00  0.00    +0.159 HD
ENDROOT
BRANCH   1  10
ATOM     10  C   UNL     1       6.826  -6.805   2.289  0.00  0.00    +0.151 C 
BRANCH  10  11
ATOM     11  C   UNL     1       7.672  -5.576   2.473  0.00  0.00    -0.028 A 
ATOM     12  C   UNL     1       7.824  -5.000   3.743  0.00  0.00    +0.005 A 
ATOM     13  C   UNL     1       8.329  -4.985   1.383  0.00  0.00    +0.005 A 
ATOM     14  C   UNL     1       8.634  -3.875   3.920  0.00  0.00    +0.000 A 
ATOM     15  C   UNL     1       9.136  -3.862   1.563  0.00  0.00    +0.000 A 
ATOM     16  C   UNL     1       9.290  -3.309   2.832  0.00  0.00    +0.000 A 
ENDBRANCH  10  11
ENDBRANCH   1  10
TORSDOF 2
ENDMDL
MODEL 4
REMARK VINA RESULT:    -4.440     19.992     20.665
REMARK INTER + INTRA:          -5.069
REMARK INTER:                  -4.943
REMARK INTRA:                  -0.125
REMARK UNBOUND:                -0.110
REMARK  Name = 1550473
REMARK  2 active torsions:
REMARK  status: ('A' for Active; 'I' for Inactive)
REMARK    1  A    between atoms: N_1  and  C_4
REMARK    2  A    between atoms: C_4  and  C_5
REMARK                            x       y       z     vdW  Elec       q    Type
REMARK                         _______ _______ _______ _____ _____    ______ ____
ROOT
ATOM      1  N   UNL     1      -6.616  -6.322   9.354  0.00  0.00    -0.354 N 
ATOM      2  N   UNL     1      -5.818  -6.385  11.527  0.00  0.00    -0.372 N 
ATOM      3  N   UNL     1      -6.711  -4.427  10.730  0.00  0.00    -0.372 N 
ATOM      4  C   UNL     1      -6.388  -5.708  10.523  0.00  0.00    +0.166 C 
ATOM      5  H   UNL     1      -6.320  -7.286   9.251  0.00  0.00    +0.163 HD
ATOM      6  H   UNL     1      -5.637  -5.949  12.422  0.00  0.00    +0.159 HD
ATOM      7  H   UNL     1      -5.565  -7.361  11.436  0.00  0.00    +0.159 HD
ATOM      8  H   UNL     1      -7.138  -3.860  10.010  0.00  0.00    +0.159 HD
ATOM      9  H   UNL     1      -6.527  -3.970  11.614  0.00  0.00    +0.159 HD
ENDROOT
BRANCH   1  10
ATOM     10  C   UNL     1      -7.279  -5.691   8.215  0.00  0.00    +0.151 C 
BRANCH  10  11
ATOM     11  C   UNL     1      -6.845  -6.379   6.950  0.00  0.00    -0.028 A 
ATOM     12  C   UNL     1      -7.094  -5.794   5.700  0.00  0.00    +0.005 A 
ATOM     13  C   UNL     1      -6.179  -7.613   6.996  0.00  0.00    +0.005 A 
ATOM     14  C   UNL     1      -6.664  -6.419   4.526  0.00  0.00    +0.000 A 
ATOM     15  C   UNL     1      -5.752  -8.234   5.822  0.00  0.00    +0.000 A 
ATOM     16  C   UNL     1      -5.993  -7.635   4.588  0.00  0.00    +0.000 A 
ENDBRANCH  10  11
ENDBRANCH   1  10
TORSDOF 2
ENDMDL
MODEL 5
REMARK VINA RESULT:    -4.381     39.175     40.417
REMARK INTER + INTRA:          -5.003
REMARK INTER:                  -4.881
REMARK INTRA:                  -0.122
REMARK UNBOUND:                -0.110
REMARK  Name = 1550473
REMARK  2 active torsions:
REMARK  status: ('A' for Active; 'I' for Inactive)
REMARK    1  A    between atoms: N_1  and  C_4
REMARK    2  A    between atoms: C_4  and  C_5
REMARK                            x       y       z     vdW  Elec       q    Type
REMARK                         _______ _______ _______ _____ _____    ______ ____
ROOT
ATOM      1  N   UNL     1       2.456 -12.590 -45.304  0.00  0.00    -0.354 N 
ATOM      2  N   UNL     1       2.908 -11.856 -47.454  0.00  0.00    -0.372 N 
ATOM      3  N   UNL     1       2.100 -10.356 -45.916  0.00  0.00    -0.372 N 
ATOM      4  C   UNL     1       2.484 -11.603 -46.210  0.00  0.00    +0.166 C 
ATOM      5  H   UNL     1       2.732 -13.520 -45.598  0.00  0.00    +0.163 HD
ATOM      6  H   UNL     1       2.943 -11.130 -48.158  0.00  0.00    +0.159 HD
ATOM      7  H   UNL     1       3.226 -12.776 -47.732  0.00  0.00    +0.159 HD
ATOM      8  H   UNL     1       1.764 -10.101 -44.997  0.00  0.00    +0.159 HD
ATOM      9  H   UNL     1       2.117  -9.619 -46.610  0.00  0.00    +0.159 HD
ENDROOT
BRANCH   1  10
ATOM     10  C   UNL     1       2.063 -12.408 -43.908  0.00  0.00    +0.151 C 
BRANCH  10  11
ATOM     11  C   UNL     1       2.565 -13.573 -43.101  0.00  0.00    -0.028 A 
ATOM     12  C   UNL     1       2.915 -14.777 -43.729  0.00  0.00    +0.005 A 
ATOM     13  C   UNL     1       2.698 -13.478 -41.707  0.00  0.00    +0.005 A 
ATOM     14  C   UNL     1       3.409 -15.850 -42.983  0.00  0.00    +0.000 A 
ATOM     15  C   UNL     1       3.191 -14.552 -40.965  0.00  0.00    +0.000 A 
ATOM     16  C   UNL     1       3.549 -15.736 -41.604  0.00  0.00    +0.000 A 
ENDBRANCH  10  11
ENDBRANCH   1  10
TORSDOF 2
ENDMDL
MODEL 6
REMARK VINA RESULT:    -4.361     23.572     24.417
REMARK INTER + INTRA:          -4.981
REMARK INTER:                  -4.832
REMARK INTRA:                  -0.150
REMARK UNBOUND:                -0.110
REMARK  Name = 1550473
REMARK  2 active torsions:
REMARK  status: ('A' for Active; 'I' for Inactive)
REMARK    1  A    between atoms: N_1  and  C_4
REMARK    2  A    between atoms: C_4  and  C_5
REMARK                            x       y       z     vdW  Elec       q    Type
REMARK                         _______ _______ _______ _____ _____    ______ ____
ROOT
ATOM      1  N   UNL     1       6.478  -6.724   3.231  0.00  0.00    -0.354 N 
ATOM      2  N   UNL     1       8.752  -6.612   3.656  0.00  0.00    -0.372 N 
ATOM      3  N   UNL     1       7.670  -4.733   2.905  0.00  0.00    -0.372 N 
ATOM      4  C   UNL     1       7.618  -6.021   3.260  0.00  0.00    +0.166 C 
ATOM      5  H   UNL     1       6.511  -7.705   3.484  0.00  0.00    +0.163 HD
ATOM      6  H   UNL     1       9.627  -6.106   3.692  0.00  0.00    +0.159 HD
ATOM      7  H   UNL     1       8.773  -7.580   3.952  0.00  0.00    +0.159 HD
ATOM      8  H   UNL     1       6.851  -4.230   2.592  0.00  0.00    +0.159 HD
ATOM      9  H   UNL     1       8.539  -4.213   2.923  0.00  0.00    +0.159 HD
ENDROOT
BRANCH   1  10
ATOM     10  C   UNL     1       5.179  -6.160   2.867  0.00  0.00    +0.151 C 
BRANCH  10  11
ATOM     11  C   UNL     1       4.589  -6.971   1.747  0.00  0.00    -0.028 A 
ATOM     12  C   UNL     1       5.173  -6.956   0.472  0.00  0.00    +0.005 A 
ATOM     13  C   UNL     1       3.448  -7.762   1.956  0.00  0.00    +0.005 A 
ATOM     14  C   UNL     1       4.642  -7.732  -0.561  0.00  0.00    +0.000 A 
ATOM     15  C   UNL     1       2.921  -8.535   0.921  0.00  0.00    +0.000 A 
ATOM     16  C   UNL     1       3.520  -8.522  -0.336  0.00  0.00    +0.000 A 
ENDBRANCH  10  11
ENDBRANCH   1  10
TORSDOF 2
ENDMDL
MODEL 7
REMARK VINA RESULT:    -4.355     39.695     40.685
REMARK INTER + INTRA:          -4.974
REMARK INTER:                  -4.875
REMARK INTRA:                  -0.099
REMARK UNBOUND:                -0.110
REMARK  Name = 1550473
REMARK  2 active torsions:
REMARK  status: ('A' for Active; 'I' for Inactive)
REMARK    1  A    between atoms: N_1  and  C_4
REMARK    2  A    between atoms: C_4  and  C_5
REMARK                            x       y       z     vdW  Elec       q    Type
REMARK                         _______ _______ _______ _____ _____    ______ ____
ROOT
ATOM      1  N   UNL     1       2.539 -13.585 -43.455  0.00  0.00    -0.354 N 
ATOM      2  N   UNL     1       2.129 -11.347 -43.888  0.00  0.00    -0.372 N 
ATOM      3  N   UNL     1       1.718 -12.889 -45.537  0.00  0.00    -0.372 N 
ATOM      4  C   UNL     1       2.131 -12.623 -44.293  0.00  0.00    +0.166 C 
ATOM      5  H   UNL     1       2.869 -13.315 -42.535  0.00  0.00    +0.163 HD
ATOM      6  H   UNL     1       1.824 -10.600 -44.497  0.00  0.00    +0.159 HD
ATOM      7  H   UNL     1       2.416 -11.085 -42.953  0.00  0.00    +0.159 HD
ATOM      8  H   UNL     1       1.701 -13.831 -45.905  0.00  0.00    +0.159 HD
ATOM      9  H   UNL     1       1.419 -12.154 -46.165  0.00  0.00    +0.159 HD
ENDROOT
BRANCH   1  10
ATOM     10  C   UNL     1       2.529 -15.011 -43.780  0.00  0.00    +0.151 C 
BRANCH  10  11
ATOM     11  C   UNL     1       3.639 -15.693 -43.030  0.00  0.00    -0.028 A 
ATOM     12  C   UNL     1       3.489 -16.016 -41.673  0.00  0.00    +0.005 A 
ATOM     13  C   UNL     1       4.842 -16.025 -43.672  0.00  0.00    +0.005 A 
ATOM     14  C   UNL     1       4.509 -16.677 -40.984  0.00  0.00    +0.000 A 
ATOM     15  C   UNL     1       5.858 -16.684 -42.980  0.00  0.00    +0.000 A 
ATOM     16  C   UNL     1       5.690 -17.012 -41.637  0.00  0.00    +0.000 A 
ENDBRANCH  10  11
ENDBRANCH   1  10
TORSDOF 2
ENDMDL
MODEL 8
REMARK VINA RESULT:    -4.353     23.873     24.482
REMARK INTER + INTRA:          -4.972
REMARK INTER:                  -4.861
REMARK INTRA:                  -0.111
REMARK UNBOUND:                -0.110
REMARK  Name = 1550473
REMARK  2 active torsions:
REMARK  status: ('A' for Active; 'I' for Inactive)
REMARK    1  A    between atoms: N_1  and  C_4
REMARK    2  A    between atoms: C_4  and  C_5
REMARK                            x       y       z     vdW  Elec       q    Type
REMARK                         _______ _______ _______ _____ _____    ______ ____
ROOT
ATOM      1  N   UNL     1      -5.839  -5.529  10.768  0.00  0.00    -0.354 N 
ATOM      2  N   UNL     1      -6.161  -3.244  10.969  0.00  0.00    -0.372 N 
ATOM      3  N   UNL     1      -7.296  -4.652  12.381  0.00  0.00    -0.372 N 
ATOM      4  C   UNL     1      -6.432  -4.491  11.373  0.00  0.00    +0.166 C 
ATOM      5  H   UNL     1      -5.217  -5.342   9.990  0.00  0.00    +0.163 HD
ATOM      6  H   UNL     1      -6.590  -2.441  11.408  0.00  0.00    +0.159 HD
ATOM      7  H   UNL     1      -5.503  -3.058  10.221  0.00  0.00    +0.159 HD
ATOM      8  H   UNL     1      -7.548  -5.567  12.729  0.00  0.00    +0.159 HD
ATOM      9  H   UNL     1      -7.745  -3.861  12.826  0.00  0.00    +0.159 HD
ENDROOT
BRANCH   1  10
ATOM     10  C   UNL     1      -6.025  -6.923  11.167  0.00  0.00    +0.151 C 
BRANCH  10  11
ATOM     11  C   UNL     1      -4.695  -7.623  11.139  0.00  0.00    -0.028 A 
ATOM     12  C   UNL     1      -4.176  -8.118   9.934  0.00  0.00    +0.005 A 
ATOM     13  C   UNL     1      -3.946  -7.791  12.314  0.00  0.00    +0.005 A 
ATOM     14  C   UNL     1      -2.926  -8.742   9.902  0.00  0.00    +0.000 A 
ATOM     15  C   UNL     1      -2.699  -8.415  12.278  0.00  0.00    +0.000 A 
ATOM     16  C   UNL     1      -2.188  -8.888  11.072  0.00  0.00    +0.000 A 
ENDBRANCH  10  11
ENDBRANCH   1  10
TORSDOF 2
ENDMDL
MODEL 9
REMARK VINA RESULT:    -4.274     23.934     25.224
REMARK INTER + INTRA:          -4.883
REMARK INTER:                  -4.744
REMARK INTRA:                  -0.139
REMARK UNBOUND:                -0.110
REMARK  Name = 1550473
REMARK  2 active torsions:
REMARK  status: ('A' for Active; 'I' for Inactive)
REMARK    1  A    between atoms: N_1  and  C_4
REMARK    2  A    between atoms: C_4  and  C_5
REMARK                            x       y       z     vdW  Elec       q    Type
REMARK                         _______ _______ _______ _____ _____    ______ ____
ROOT
ATOM      1  N   UNL     1      -1.738  10.115   9.556  0.00  0.00    -0.354 N 
ATOM      2  N   UNL     1      -0.145   9.383   8.043  0.00  0.00    -0.372 N 
ATOM      3  N   UNL     1      -0.386   8.260  10.030  0.00  0.00    -0.372 N 
ATOM      4  C   UNL     1      -0.766   9.256   9.222  0.00  0.00    +0.166 C 
ATOM      5  H   UNL     1      -1.959  10.866   8.912  0.00  0.00    +0.163 HD
ATOM      6  H   UNL     1       0.590   8.747   7.762  0.00  0.00    +0.159 HD
ATOM      7  H   UNL     1      -0.399  10.106   7.382  0.00  0.00    +0.159 HD
ATOM      8  H   UNL     1      -0.811   8.114  10.936  0.00  0.00    +0.159 HD
ATOM      9  H   UNL     1       0.356   7.621   9.771  0.00  0.00    +0.159 HD
ENDROOT
BRANCH   1  10
ATOM     10  C   UNL     1      -2.514  10.031  10.792  0.00  0.00    +0.151 C 
BRANCH  10  11
ATOM     11  C   UNL     1      -3.973   9.906  10.449  0.00  0.00    -0.028 A 
ATOM     12  C   UNL     1      -4.938   9.825  11.463  0.00  0.00    +0.005 A 
ATOM     13  C   UNL     1      -4.397   9.875   9.112  0.00  0.00    +0.005 A 
ATOM     14  C   UNL     1      -6.296   9.740  11.145  0.00  0.00    +0.000 A 
ATOM     15  C   UNL     1      -5.753   9.789   8.798  0.00  0.00    +0.000 A 
ATOM     16  C   UNL     1      -6.702   9.724   9.815  0.00  0.00    +0.000 A 
ENDBRANCH  10  11
ENDBRANCH   1  10
TORSDOF 2
ENDMDL
