MODEL 1
REMARK VINA RESULT:    -6.230      0.000      0.000
REMARK INTER + INTRA:          -7.079
REMARK INTER:                  -6.958
REMARK INTRA:                  -0.120
REMARK UNBOUND:                -0.120
REMARK  Name = 1550473
REMARK  2 active torsions:
REMARK  status: ('A' for Active; 'I' for Inactive)
REMARK    1  A    between atoms: N_1  and  C_4
REMARK    2  A    between atoms: C_4  and  C_5
REMARK                            x       y       z     vdW  Elec       q    Type
REMARK                         _______ _______ _______ _____ _____    ______ ____
ROOT
ATOM      1  N   UNL     1     -10.207 -10.513 -13.410  0.00  0.00    -0.354 N 
ATOM      2  N   UNL     1     -11.535 -11.530 -15.012  0.00  0.00    -0.372 N 
ATOM      3  N   UNL     1      -9.899 -10.071 -15.691  0.00  0.00    -0.372 N 
ATOM      4  C   UNL     1     -10.537 -10.696 -14.696  0.00  0.00    +0.166 C 
ATOM      5  H   UNL     1     -10.749 -10.993 -12.701  0.00  0.00    +0.163 HD
ATOM      6  H   UNL     1     -11.804 -11.691 -15.973  0.00  0.00    +0.159 HD
ATOM      7  H   UNL     1     -12.044 -12.044 -14.304  0.00  0.00    +0.159 HD
ATOM      8  H   UNL     1      -9.141  -9.424 -15.518  0.00  0.00    +0.159 HD
ATOM      9  H   UNL     1     -10.161 -10.210 -16.659  0.00  0.00    +0.159 HD
ENDROOT
BRANCH   1  10
ATOM     10  C   UNL     1      -9.101  -9.668 -12.962  0.00  0.00    +0.151 C 
BRANCH  10  11
ATOM     11  C   UNL     1      -9.654  -8.518 -12.166  0.00  0.00    -0.028 A 
ATOM     12  C   UNL     1      -8.792  -7.639 -11.493  0.00  0.00    +0.005 A 
ATOM     13  C   UNL     1     -11.037  -8.298 -12.086  0.00  0.00    +0.005 A 
ATOM     14  C   UNL     1      -9.303  -6.553 -10.779  0.00  0.00    +0.000 A 
ATOM     15  C   UNL     1     -11.543  -7.212 -11.371  0.00  0.00    +0.000 A 
ATOM     16  C   UNL     1     -10.676  -6.339 -10.719  0.00  0.00    +0.000 A 
ENDBRANCH  10  11
ENDBRANCH   1  10
TORSDOF 2
ENDMDL
MODEL 2
REMARK VINA RESULT:    -5.880     12.015     13.088
REMARK INTER + INTRA:          -6.688
REMARK INTER:                  -6.505
REMARK INTRA:                  -0.183
REMARK UNBOUND:                -0.120
REMARK  Name = 1550473
REMARK  2 active torsions:
REMARK  status: ('A' for Active; 'I' for Inactive)
REMARK    1  A    between atoms: N_1  and  C_4
REMARK    2  A    between atoms: C_4  and  C_5
REMARK                            x       y       z     vdW  Elec       q    Type
REMARK                         _______ _______ _______ _____ _____    ______ ____
ROOT
ATOM      1  N   UNL     1     -11.832   1.856 -16.830  0.00  0.00    -0.354 N 
ATOM      2  N   UNL     1     -10.048   2.351 -18.221  0.00  0.00    -0.372 N 
ATOM      3  N   UNL     1     -11.957   1.467 -19.137  0.00  0.00    -0.372 N 
ATOM      4  C   UNL     1     -11.292   1.887 -18.055  0.00  0.00    +0.166 C 
ATOM      5  H   UNL     1     -11.265   2.161 -16.047  0.00  0.00    +0.163 HD
ATOM      6  H   UNL     1      -9.615   2.389 -19.135  0.00  0.00    +0.159 HD
ATOM      7  H   UNL     1      -9.500   2.698 -17.443  0.00  0.00    +0.159 HD
ATOM      8  H   UNL     1     -12.897   1.100 -19.079  0.00  0.00    +0.159 HD
ATOM      9  H   UNL     1     -11.537   1.486 -20.058  0.00  0.00    +0.159 HD
ENDROOT
BRANCH   1  10
ATOM     10  C   UNL     1     -13.198   1.420 -16.548  0.00  0.00    +0.151 C 
BRANCH  10  11
ATOM     11  C   UNL     1     -14.071   2.630 -16.357  0.00  0.00    -0.028 A 
ATOM     12  C   UNL     1     -15.024   2.980 -17.324  0.00  0.00    +0.005 A 
ATOM     13  C   UNL     1     -13.953   3.427 -15.208  0.00  0.00    +0.005 A 
ATOM     14  C   UNL     1     -15.855   4.086 -17.133  0.00  0.00    +0.000 A 
ATOM     15  C   UNL     1     -14.784   4.531 -15.022  0.00  0.00    +0.000 A 
ATOM     16  C   UNL     1     -15.737   4.859 -15.983  0.00  0.00    +0.000 A 
ENDBRANCH  10  11
ENDBRANCH   1  10
TORSDOF 2
ENDMDL
MODEL 3
REMARK VINA RESULT:    -5.815      5.137      6.747
REMARK INTER + INTRA:          -6.615
REMARK INTER:                  -6.512
REMARK INTRA:                  -0.103
REMARK UNBOUND:                -0.120
REMARK  Name = 1550473
REMARK  2 active torsions:
REMARK  status: ('A' for Active; 'I' for Inactive)
REMARK    1  A    between atoms: N_1  and  C_4
REMARK    2  A    between atoms: C_4  and  C_5
REMARK                            x       y       z     vdW  Elec       q    Type
REMARK                         _______ _______ _______ _____ _____    ______ ____
ROOT
ATOM      1  N   UNL     1      -9.317  -4.709  -8.030  0.00  0.00    -0.354 N 
ATOM      2  N   UNL     1      -9.767  -4.042  -5.858  0.00  0.00    -0.372 N 
ATOM      3  N   UNL     1     -10.080  -2.542  -7.566  0.00  0.00    -0.372 N 
ATOM      4  C   UNL     1      -9.719  -3.766  -7.167  0.00  0.00    +0.166 C 
ATOM      5  H   UNL     1      -9.028  -5.607  -7.661  0.00  0.00    +0.163 HD
ATOM      6  H   UNL     1     -10.069  -3.352  -5.184  0.00  0.00    +0.159 HD
ATOM      7  H   UNL     1      -9.521  -4.955  -5.497  0.00  0.00    +0.159 HD
ATOM      8  H   UNL     1     -10.060  -2.268  -8.540  0.00  0.00    +0.159 HD
ATOM      9  H   UNL     1     -10.374  -1.834  -6.905  0.00  0.00    +0.159 HD
ENDROOT
BRANCH   1  10
ATOM     10  C   UNL     1      -9.280  -4.527  -9.480  0.00  0.00    +0.151 C 
BRANCH  10  11
ATOM     11  C   UNL     1      -9.659  -5.821 -10.147  0.00  0.00    -0.028 A 
ATOM     12  C   UNL     1      -8.774  -6.910 -10.141  0.00  0.00    +0.005 A 
ATOM     13  C   UNL     1     -10.902  -5.967 -10.780  0.00  0.00    +0.005 A 
ATOM     14  C   UNL     1      -9.137  -8.122 -10.734  0.00  0.00    +0.000 A 
ATOM     15  C   UNL     1     -11.261  -7.178 -11.372  0.00  0.00    +0.000 A 
ATOM     16  C   UNL     1     -10.379  -8.256 -11.347  0.00  0.00    +0.000 A 
ENDBRANCH  10  11
ENDBRANCH   1  10
TORSDOF 2
ENDMDL
MODEL 4
REMARK VINA RESULT:    -5.775      2.695      3.857
REMARK INTER + INTRA:          -6.570
REMARK INTER:                  -6.394
REMARK INTRA:                  -0.176
REMARK UNBOUND:                -0.120
REMARK  Name = 1550473
REMARK  2 active torsions:
REMARK  status: ('A' for Active; 'I' for Inactive)
REMARK    1  A    between atoms: N_1  and  C_4
REMARK    2  A    between atoms: C_4  and  C_5
REMARK                            x       y       z     vdW  Elec       q    Type
REMARK                         _______ _______ _______ _____ _____    ______ ____
ROOT
ATOM      1  N   UNL     1      -8.540 -10.624 -10.745  0.00  0.00    -0.354 N 
ATOM      2  N   UNL     1      -7.608 -11.615  -8.871  0.00  0.00    -0.372 N 
ATOM      3  N   UNL     1      -6.286 -10.290 -10.199  0.00  0.00    -0.372 N 
ATOM      4  C   UNL     1      -7.482 -10.835  -9.952  0.00  0.00    +0.166 C 
ATOM      5  H   UNL     1      -9.411 -11.090 -10.520  0.00  0.00    +0.163 HD
ATOM      6  H   UNL     1      -6.827 -11.790  -8.252  0.00  0.00    +0.159 HD
ATOM      7  H   UNL     1      -8.491 -12.043  -8.623  0.00  0.00    +0.159 HD
ATOM      8  H   UNL     1      -6.124  -9.697 -11.002  0.00  0.00    +0.159 HD
ATOM      9  H   UNL     1      -5.490 -10.463  -9.598  0.00  0.00    +0.159 HD
ENDROOT
BRANCH   1  10
ATOM     10  C   UNL     1      -8.523  -9.749 -11.916  0.00  0.00    +0.151 C 
BRANCH  10  11
ATOM     11  C   UNL     1      -9.283  -8.490 -11.600  0.00  0.00    -0.028 A 
ATOM     12  C   UNL     1     -10.670  -8.427 -11.798  0.00  0.00    +0.005 A 
ATOM     13  C   UNL     1      -8.622  -7.359 -11.097  0.00  0.00    +0.005 A 
ATOM     14  C   UNL     1     -11.381  -7.268 -11.477  0.00  0.00    +0.000 A 
ATOM     15  C   UNL     1      -9.335  -6.203 -10.778  0.00  0.00    +0.000 A 
ATOM     16  C   UNL     1     -10.715  -6.159 -10.965  0.00  0.00    +0.000 A 
ENDBRANCH  10  11
ENDBRANCH   1  10
TORSDOF 2
ENDMDL
MODEL 5
REMARK VINA RESULT:    -5.714      4.229      5.536
REMARK INTER + INTRA:          -6.502
REMARK INTER:                  -6.360
REMARK INTRA:                  -0.142
REMARK UNBOUND:                -0.120
REMARK  Name = 1550473
REMARK  2 active torsions:
REMARK  status: ('A' for Active; 'I' for Inactive)
REMARK    1  A    between atoms: N_1  and  C_4
REMARK    2  A    between atoms: C_4  and  C_5
REMARK                            x       y       z     vdW  Elec       q    Type
REMARK                         _______ _______ _______ _____ _____    ______ ____
ROOT
ATOM      1  N   UNL     1      -6.343  -5.709 -11.045  0.00  0.00    -0.354 N 
ATOM      2  N   UNL     1      -4.275  -5.655 -12.086  0.00  0.00    -0.372 N 
ATOM      3  N   UNL     1      -5.643  -3.819 -12.240  0.00  0.00    -0.372 N 
ATOM      4  C   UNL     1      -5.435  -5.059 -11.785  0.00  0.00    +0.166 C 
ATOM      5  H   UNL     1      -6.138  -6.659 -10.756  0.00  0.00    +0.163 HD
ATOM      6  H   UNL     1      -3.569  -5.188 -12.639  0.00  0.00    +0.159 HD
ATOM      7  H   UNL     1      -4.054  -6.587 -11.757  0.00  0.00    +0.159 HD
ATOM      8  H   UNL     1      -6.500  -3.316 -12.053  0.00  0.00    +0.159 HD
ATOM      9  H   UNL     1      -4.953  -3.339 -12.806  0.00  0.00    +0.159 HD
ENDROOT
BRANCH   1  10
ATOM     10  C   UNL     1      -7.615  -5.130 -10.616  0.00  0.00    +0.151 C 
BRANCH  10  11
ATOM     11  C   UNL     1      -8.724  -6.100 -10.918  0.00  0.00    -0.028 A 
ATOM     12  C   UNL     1     -10.064  -5.728 -10.738  0.00  0.00    +0.005 A 
ATOM     13  C   UNL     1      -8.441  -7.391 -11.389  0.00  0.00    +0.005 A 
ATOM     14  C   UNL     1     -11.095  -6.619 -11.046  0.00  0.00    +0.000 A 
ATOM     15  C   UNL     1      -9.473  -8.278 -11.694  0.00  0.00    +0.000 A 
ATOM     16  C   UNL     1     -10.800  -7.890 -11.526  0.00  0.00    +0.000 A 
ENDBRANCH  10  11
ENDBRANCH   1  10
TORSDOF 2
ENDMDL
MODEL 6
REMARK VINA RESULT:    -5.305     30.764     32.567
REMARK INTER + INTRA:          -6.046
REMARK INTER:                  -5.924
REMARK INTRA:                  -0.122
REMARK UNBOUND:                -0.120
REMARK  Name = 1550473
REMARK  2 active torsions:
REMARK  status: ('A' for Active; 'I' for Inactive)
REMARK    1  A    between atoms: N_1  and  C_4
REMARK    2  A    between atoms: C_4  and  C_5
REMARK                            x       y       z     vdW  Elec       q    Type
REMARK                         _______ _______ _______ _____ _____    ______ ____
ROOT
ATOM      1  N   UNL     1      -0.691   6.088  12.856  0.00  0.00    -0.354 N 
ATOM      2  N   UNL     1      -2.280   4.852  11.711  0.00  0.00    -0.372 N 
ATOM      3  N   UNL     1      -1.693   4.209  13.834  0.00  0.00    -0.372 N 
ATOM      4  C   UNL     1      -1.544   5.056  12.810  0.00  0.00    +0.166 C 
ATOM      5  H   UNL     1      -0.602   6.676  12.035  0.00  0.00    +0.163 HD
ATOM      6  H   UNL     1      -2.935   4.084  11.648  0.00  0.00    +0.159 HD
ATOM      7  H   UNL     1      -2.223   5.468  10.909  0.00  0.00    +0.159 HD
ATOM      8  H   UNL     1      -1.163   4.304  14.690  0.00  0.00    +0.159 HD
ATOM      9  H   UNL     1      -2.335   3.427  13.786  0.00  0.00    +0.159 HD
ENDROOT
BRANCH   1  10
ATOM     10  C   UNL     1       0.117   6.429  14.026  0.00  0.00    +0.151 C 
BRANCH  10  11
ATOM     11  C   UNL     1       0.514   7.877  13.942  0.00  0.00    -0.028 A 
ATOM     12  C   UNL     1       1.758   8.304  14.432  0.00  0.00    +0.005 A 
ATOM     13  C   UNL     1      -0.345   8.827  13.370  0.00  0.00    +0.005 A 
ATOM     14  C   UNL     1       2.140   9.643  14.328  0.00  0.00    +0.000 A 
ATOM     15  C   UNL     1       0.039  10.164  13.268  0.00  0.00    +0.000 A 
ATOM     16  C   UNL     1       1.283  10.571  13.745  0.00  0.00    +0.000 A 
ENDBRANCH  10  11
ENDBRANCH   1  10
TORSDOF 2
ENDMDL
MODEL 7
REMARK VINA RESULT:    -5.266     29.021     30.100
REMARK INTER + INTRA:          -6.002
REMARK INTER:                  -5.823
REMARK INTRA:                  -0.179
REMARK UNBOUND:                -0.120
REMARK  Name = 1550473
REMARK  2 active torsions:
REMARK  status: ('A' for Active; 'I' for Inactive)
REMARK    1  A    between atoms: N_1  and  C_4
REMARK    2  A    between atoms: C_4  and  C_5
REMARK                            x       y       z     vdW  Elec       q    Type
REMARK                         _______ _______ _______ _____ _____    ______ ____
ROOT
ATOM      1  N   UNL     1      -0.880   5.861  10.910  0.00  0.00    -0.354 N 
ATOM      2  N   UNL     1      -2.541   4.463  11.716  0.00  0.00    -0.372 N 
ATOM      3  N   UNL     1      -1.766   6.153  13.060  0.00  0.00    -0.372 N 
ATOM      4  C   UNL     1      -1.718   5.503  11.893  0.00  0.00    +0.166 C 
ATOM      5  H   UNL     1      -0.871   5.309  10.060  0.00  0.00    +0.163 HD
ATOM      6  H   UNL     1      -3.186   4.171  12.438  0.00  0.00    +0.159 HD
ATOM      7  H   UNL     1      -2.562   3.941  10.849  0.00  0.00    +0.159 HD
ATOM      8  H   UNL     1      -1.166   6.943  13.258  0.00  0.00    +0.159 HD
ATOM      9  H   UNL     1      -2.396   5.869  13.799  0.00  0.00    +0.159 HD
ENDROOT
BRANCH   1  10
ATOM     10  C   UNL     1       0.019   7.012  10.981  0.00  0.00    +0.151 C 
BRANCH  10  11
ATOM     11  C   UNL     1      -0.618   8.176  10.273  0.00  0.00    -0.028 A 
ATOM     12  C   UNL     1      -1.064   8.048   8.950  0.00  0.00    +0.005 A 
ATOM     13  C   UNL     1      -0.782   9.410  10.922  0.00  0.00    +0.005 A 
ATOM     14  C   UNL     1      -1.682   9.120   8.302  0.00  0.00    +0.000 A 
ATOM     15  C   UNL     1      -1.399  10.478  10.272  0.00  0.00    +0.000 A 
ATOM     16  C   UNL     1      -1.851  10.332   8.963  0.00  0.00    +0.000 A 
ENDBRANCH  10  11
ENDBRANCH   1  10
TORSDOF 2
ENDMDL
MODEL 8
REMARK VINA RESULT:    -5.189      5.877      6.565
REMARK INTER + INTRA:          -5.916
REMARK INTER:                  -5.770
REMARK INTRA:                  -0.146
REMARK UNBOUND:                -0.120
REMARK  Name = 1550473
REMARK  2 active torsions:
REMARK  status: ('A' for Active; 'I' for Inactive)
REMARK    1  A    between atoms: N_1  and  C_4
REMARK    2  A    between atoms: C_4  and  C_5
REMARK                            x       y       z     vdW  Elec       q    Type
REMARK                         _______ _______ _______ _____ _____    ______ ____
ROOT
ATOM      1  N   UNL     1      -6.804 -14.333  -9.061  0.00  0.00    -0.354 N 
ATOM      2  N   UNL     1      -7.455 -15.979 -10.554  0.00  0.00    -0.372 N 
ATOM      3  N   UNL     1      -5.271 -15.276 -10.562  0.00  0.00    -0.372 N 
ATOM      4  C   UNL     1      -6.503 -15.185 -10.050  0.00  0.00    +0.166 C 
ATOM      5  H   UNL     1      -7.763 -14.291  -8.738  0.00  0.00    +0.163 HD
ATOM      6  H   UNL     1      -7.257 -16.635 -11.299  0.00  0.00    +0.159 HD
ATOM      7  H   UNL     1      -8.403 -15.967 -10.198  0.00  0.00    +0.159 HD
ATOM      8  H   UNL     1      -4.509 -14.701 -10.230  0.00  0.00    +0.159 HD
ATOM      9  H   UNL     1      -5.056 -15.918 -11.315  0.00  0.00    +0.159 HD
ENDROOT
BRANCH   1  10
ATOM     10  C   UNL     1      -5.828 -13.464  -8.406  0.00  0.00    +0.151 C 
BRANCH  10  11
ATOM     11  C   UNL     1      -6.321 -12.044  -8.461  0.00  0.00    -0.028 A 
ATOM     12  C   UNL     1      -6.353 -11.256  -7.301  0.00  0.00    +0.005 A 
ATOM     13  C   UNL     1      -6.752 -11.479  -9.671  0.00  0.00    +0.005 A 
ATOM     14  C   UNL     1      -6.782  -9.928  -7.357  0.00  0.00    +0.000 A 
ATOM     15  C   UNL     1      -7.181 -10.152  -9.722  0.00  0.00    +0.000 A 
ATOM     16  C   UNL     1      -7.193  -9.377  -8.566  0.00  0.00    +0.000 A 
ENDBRANCH  10  11
ENDBRANCH   1  10
TORSDOF 2
ENDMDL
MODEL 9
REMARK VINA RESULT:    -5.159      3.432      4.895
REMARK INTER + INTRA:          -5.883
REMARK INTER:                  -5.733
REMARK INTRA:                  -0.150
REMARK UNBOUND:                -0.120
REMARK  Name = 1550473
REMARK  2 active torsions:
REMARK  status: ('A' for Active; 'I' for Inactive)
REMARK    1  A    between atoms: N_1  and  C_4
REMARK    2  A    between atoms: C_4  and  C_5
REMARK                            x       y       z     vdW  Elec       q    Type
REMARK                         _______ _______ _______ _____ _____    ______ ____
ROOT
ATOM      1  N   UNL     1      -9.016  -7.233 -10.872  0.00  0.00    -0.354 N 
ATOM      2  N   UNL     1     -10.473  -8.394 -12.248  0.00  0.00    -0.372 N 
ATOM      3  N   UNL     1     -11.271  -6.617 -11.035  0.00  0.00    -0.372 N 
ATOM      4  C   UNL     1     -10.246  -7.405 -11.375  0.00  0.00    +0.166 C 
ATOM      5  H   UNL     1      -8.288  -7.883 -11.147  0.00  0.00    +0.163 HD
ATOM      6  H   UNL     1     -11.390  -8.546 -12.647  0.00  0.00    +0.159 HD
ATOM      7  H   UNL     1      -9.734  -9.014 -12.556  0.00  0.00    +0.159 HD
ATOM      8  H   UNL     1     -11.166  -5.856 -10.377  0.00  0.00    +0.159 HD
ATOM      9  H   UNL     1     -12.198  -6.760 -11.414  0.00  0.00    +0.159 HD
ENDROOT
BRANCH   1  10
ATOM     10  C   UNL     1      -8.650  -6.154  -9.956  0.00  0.00    +0.151 C 
BRANCH  10  11
ATOM     11  C   UNL     1      -7.677  -5.236 -10.643  0.00  0.00    -0.028 A 
ATOM     12  C   UNL     1      -6.681  -5.754 -11.484  0.00  0.00    +0.005 A 
ATOM     13  C   UNL     1      -7.748  -3.846 -10.460  0.00  0.00    +0.005 A 
ATOM     14  C   UNL     1      -5.796  -4.899 -12.145  0.00  0.00    +0.000 A 
ATOM     15  C   UNL     1      -6.862  -2.996 -11.121  0.00  0.00    +0.000 A 
ATOM     16  C   UNL     1      -5.888  -3.523 -11.966  0.00  0.00    +0.000 A 
ENDBRANCH  10  11
ENDBRANCH   1  10
TORSDOF 2
ENDMDL
