MODEL 1
REMARK VINA RESULT:    -5.292      0.000      0.000
REMARK INTER + INTRA:          -6.049
REMARK INTER:                  -5.911
REMARK INTRA:                  -0.138
REMARK UNBOUND:                -0.138
REMARK  Name = 1550473
REMARK  2 active torsions:
REMARK  status: ('A' for Active; 'I' for Inactive)
REMARK    1  A    between atoms: N_1  and  C_4
REMARK    2  A    between atoms: C_4  and  C_5
REMARK                            x       y       z     vdW  Elec       q    Type
REMARK                         _______ _______ _______ _____ _____    ______ ____
ROOT
ATOM      1  N   UNL     1       8.620  -1.349   4.002  0.00  0.00    -0.354 N 
ATOM      2  N   UNL     1      10.659  -1.325   5.099  0.00  0.00    -0.372 N 
ATOM      3  N   UNL     1      10.613  -0.946   2.836  0.00  0.00    -0.372 N 
ATOM      4  C   UNL     1       9.951  -1.207   3.969  0.00  0.00    +0.166 C 
ATOM      5  H   UNL     1       8.181  -1.576   4.887  0.00  0.00    +0.163 HD
ATOM      6  H   UNL     1      11.665  -1.220   5.106  0.00  0.00    +0.159 HD
ATOM      7  H   UNL     1      10.214  -1.507   5.990  0.00  0.00    +0.159 HD
ATOM      8  H   UNL     1      10.137  -0.850   1.949  0.00  0.00    +0.159 HD
ATOM      9  H   UNL     1      11.620  -0.848   2.821  0.00  0.00    +0.159 HD
ENDROOT
BRANCH   1  10
ATOM     10  C   UNL     1       7.751  -1.186   2.837  0.00  0.00    +0.151 C 
BRANCH  10  11
ATOM     11  C   UNL     1       6.552  -0.367   3.229  0.00  0.00    -0.028 A 
ATOM     12  C   UNL     1       5.630   0.054   2.260  0.00  0.00    +0.005 A 
ATOM     13  C   UNL     1       6.331  -0.013   4.569  0.00  0.00    +0.005 A 
ATOM     14  C   UNL     1       4.500   0.789   2.628  0.00  0.00    +0.000 A 
ATOM     15  C   UNL     1       5.202   0.721   4.932  0.00  0.00    +0.000 A 
ATOM     16  C   UNL     1       4.286   1.120   3.962  0.00  0.00    +0.000 A 
ENDBRANCH  10  11
ENDBRANCH   1  10
TORSDOF 2
ENDMDL
MODEL 2
REMARK VINA RESULT:    -5.123     22.542     23.835
REMARK INTER + INTRA:          -5.861
REMARK INTER:                  -5.716
REMARK INTRA:                  -0.144
REMARK UNBOUND:                -0.138
REMARK  Name = 1550473
REMARK  2 active torsions:
REMARK  status: ('A' for Active; 'I' for Inactive)
REMARK    1  A    between atoms: N_1  and  C_4
REMARK    2  A    between atoms: C_4  and  C_5
REMARK                            x       y       z     vdW  Elec       q    Type
REMARK                         _______ _______ _______ _____ _____    ______ ____
ROOT
ATOM      1  N   UNL     1       5.768 -17.028 -12.566  0.00  0.00    -0.354 N 
ATOM      2  N   UNL     1       5.686 -14.798 -11.944  0.00  0.00    -0.372 N 
ATOM      3  N   UNL     1       4.674 -16.362 -10.604  0.00  0.00    -0.372 N 
ATOM      4  C   UNL     1       5.375 -16.078 -11.707  0.00  0.00    +0.166 C 
ATOM      5  H   UNL     1       6.271 -16.745 -13.400  0.00  0.00    +0.163 HD
ATOM      6  H   UNL     1       5.406 -14.061 -11.312  0.00  0.00    +0.159 HD
ATOM      7  H   UNL     1       6.228 -14.523 -12.754  0.00  0.00    +0.159 HD
ATOM      8  H   UNL     1       4.402 -17.307 -10.371  0.00  0.00    +0.159 HD
ATOM      9  H   UNL     1       4.374 -15.636  -9.965  0.00  0.00    +0.159 HD
ENDROOT
BRANCH   1  10
ATOM     10  C   UNL     1       5.527 -18.457 -12.373  0.00  0.00    +0.151 C 
BRANCH  10  11
ATOM     11  C   UNL     1       6.720 -19.068 -11.690  0.00  0.00    -0.028 A 
ATOM     12  C   UNL     1       7.845 -19.455 -12.433  0.00  0.00    +0.005 A 
ATOM     13  C   UNL     1       6.734 -19.257 -10.300  0.00  0.00    +0.005 A 
ATOM     14  C   UNL     1       8.965 -19.994 -11.796  0.00  0.00    +0.000 A 
ATOM     15  C   UNL     1       7.853 -19.797  -9.667  0.00  0.00    +0.000 A 
ATOM     16  C   UNL     1       8.969 -20.163 -10.416  0.00  0.00    +0.000 A 
ENDBRANCH  10  11
ENDBRANCH   1  10
TORSDOF 2
ENDMDL
MODEL 3
REMARK VINA RESULT:    -4.811      7.816      9.934
REMARK INTER + INTRA:          -5.512
REMARK INTER:                  -5.334
REMARK INTRA:                  -0.178
REMARK UNBOUND:                -0.138
REMARK  Name = 1550473
REMARK  2 active torsions:
REMARK  status: ('A' for Active; 'I' for Inactive)
REMARK    1  A    between atoms: N_1  and  C_4
REMARK    2  A    between atoms: C_4  and  C_5
REMARK                            x       y       z     vdW  Elec       q    Type
REMARK                         _______ _______ _______ _____ _____    ______ ____
ROOT
ATOM      1  N   UNL     1      13.146  -4.564  -0.939  0.00  0.00    -0.354 N 
ATOM      2  N   UNL     1      12.125  -2.808   0.174  0.00  0.00    -0.372 N 
ATOM      3  N   UNL     1      12.990  -4.544   1.400  0.00  0.00    -0.372 N 
ATOM      4  C   UNL     1      12.761  -3.985   0.206  0.00  0.00    +0.166 C 
ATOM      5  H   UNL     1      12.916  -4.104  -1.812  0.00  0.00    +0.163 HD
ATOM      6  H   UNL     1      11.826  -2.346   1.022  0.00  0.00    +0.159 HD
ATOM      7  H   UNL     1      11.937  -2.328  -0.698  0.00  0.00    +0.159 HD
ATOM      8  H   UNL     1      13.460  -5.435   1.492  0.00  0.00    +0.159 HD
ATOM      9  H   UNL     1      12.688  -4.102   2.259  0.00  0.00    +0.159 HD
ENDROOT
BRANCH   1  10
ATOM     10  C   UNL     1      13.892  -5.819  -1.010  0.00  0.00    +0.151 C 
BRANCH  10  11
ATOM     11  C   UNL     1      12.962  -6.920  -1.439  0.00  0.00    -0.028 A 
ATOM     12  C   UNL     1      12.748  -7.182  -2.800  0.00  0.00    +0.005 A 
ATOM     13  C   UNL     1      12.295  -7.709  -0.489  0.00  0.00    +0.005 A 
ATOM     14  C   UNL     1      11.908  -8.224  -3.199  0.00  0.00    +0.000 A 
ATOM     15  C   UNL     1      11.456  -8.748  -0.891  0.00  0.00    +0.000 A 
ATOM     16  C   UNL     1      11.264  -9.006  -2.246  0.00  0.00    +0.000 A 
ENDBRANCH  10  11
ENDBRANCH   1  10
TORSDOF 2
ENDMDL
MODEL 4
REMARK VINA RESULT:    -4.672      3.013      4.089
REMARK INTER + INTRA:          -5.356
REMARK INTER:                  -5.213
REMARK INTRA:                  -0.143
REMARK UNBOUND:                -0.138
REMARK  Name = 1550473
REMARK  2 active torsions:
REMARK  status: ('A' for Active; 'I' for Inactive)
REMARK    1  A    between atoms: N_1  and  C_4
REMARK    2  A    between atoms: C_4  and  C_5
REMARK                            x       y       z     vdW  Elec       q    Type
REMARK                         _______ _______ _______ _____ _____    ______ ____
ROOT
ATOM      1  N   UNL     1       6.816   1.677   6.588  0.00  0.00    -0.354 N 
ATOM      2  N   UNL     1       8.679   2.144   7.882  0.00  0.00    -0.372 N 
ATOM      3  N   UNL     1       7.419   3.887   7.083  0.00  0.00    -0.372 N 
ATOM      4  C   UNL     1       7.625   2.569   7.175  0.00  0.00    +0.166 C 
ATOM      5  H   UNL     1       7.044   0.693   6.671  0.00  0.00    +0.163 HD
ATOM      6  H   UNL     1       9.306   2.793   8.338  0.00  0.00    +0.159 HD
ATOM      7  H   UNL     1       8.879   1.158   8.001  0.00  0.00    +0.159 HD
ATOM      8  H   UNL     1       6.645   4.272   6.559  0.00  0.00    +0.159 HD
ATOM      9  H   UNL     1       8.042   4.553   7.523  0.00  0.00    +0.159 HD
ENDROOT
BRANCH   1  10
ATOM     10  C   UNL     1       5.611   2.034   5.841  0.00  0.00    +0.151 C 
BRANCH  10  11
ATOM     11  C   UNL     1       5.609   1.297   4.531  0.00  0.00    -0.028 A 
ATOM     12  C   UNL     1       6.698   0.493   4.164  0.00  0.00    +0.005 A 
ATOM     13  C   UNL     1       4.518   1.393   3.653  0.00  0.00    +0.005 A 
ATOM     14  C   UNL     1       6.684  -0.215   2.960  0.00  0.00    +0.000 A 
ATOM     15  C   UNL     1       4.508   0.685   2.452  0.00  0.00    +0.000 A 
ATOM     16  C   UNL     1       5.590  -0.121   2.107  0.00  0.00    +0.000 A 
ENDBRANCH  10  11
ENDBRANCH   1  10
TORSDOF 2
ENDMDL
MODEL 5
REMARK VINA RESULT:    -4.546     23.668     24.908
REMARK INTER + INTRA:          -5.216
REMARK INTER:                  -5.081
REMARK INTRA:                  -0.135
REMARK UNBOUND:                -0.138
REMARK  Name = 1550473
REMARK  2 active torsions:
REMARK  status: ('A' for Active; 'I' for Inactive)
REMARK    1  A    between atoms: N_1  and  C_4
REMARK    2  A    between atoms: C_4  and  C_5
REMARK                            x       y       z     vdW  Elec       q    Type
REMARK                         _______ _______ _______ _____ _____    ______ ____
ROOT
ATOM      1  N   UNL     1       6.135 -17.467 -12.159  0.00  0.00    -0.354 N 
ATOM      2  N   UNL     1       6.941 -15.526 -11.187  0.00  0.00    -0.372 N 
ATOM      3  N   UNL     1       4.809 -16.213 -10.689  0.00  0.00    -0.372 N 
ATOM      4  C   UNL     1       5.954 -16.415 -11.351  0.00  0.00    +0.166 C 
ATOM      5  H   UNL     1       7.015 -17.547 -12.655  0.00  0.00    +0.163 HD
ATOM      6  H   UNL     1       6.835 -14.724 -10.581  0.00  0.00    +0.159 HD
ATOM      7  H   UNL     1       7.836 -15.633 -11.648  0.00  0.00    +0.159 HD
ATOM      8  H   UNL     1       4.023 -16.844 -10.775  0.00  0.00    +0.159 HD
ATOM      9  H   UNL     1       4.679 -15.410 -10.087  0.00  0.00    +0.159 HD
ENDROOT
BRANCH   1  10
ATOM     10  C   UNL     1       5.143 -18.521 -12.364  0.00  0.00    +0.151 C 
BRANCH  10  11
ATOM     11  C   UNL     1       5.838 -19.855 -12.376  0.00  0.00    -0.028 A 
ATOM     12  C   UNL     1       5.100 -21.043 -12.279  0.00  0.00    +0.005 A 
ATOM     13  C   UNL     1       7.235 -19.936 -12.491  0.00  0.00    +0.005 A 
ATOM     14  C   UNL     1       5.743 -22.283 -12.320  0.00  0.00    +0.000 A 
ATOM     15  C   UNL     1       7.873 -21.176 -12.531  0.00  0.00    +0.000 A 
ATOM     16  C   UNL     1       7.126 -22.349 -12.448  0.00  0.00    +0.000 A 
ENDBRANCH  10  11
ENDBRANCH   1  10
TORSDOF 2
ENDMDL
MODEL 6
REMARK VINA RESULT:    -4.545      7.105      7.908
REMARK INTER + INTRA:          -5.215
REMARK INTER:                  -5.091
REMARK INTRA:                  -0.123
REMARK UNBOUND:                -0.138
REMARK  Name = 1550473
REMARK  2 active torsions:
REMARK  status: ('A' for Active; 'I' for Inactive)
REMARK    1  A    between atoms: N_1  and  C_4
REMARK    2  A    between atoms: C_4  and  C_5
REMARK                            x       y       z     vdW  Elec       q    Type
REMARK                         _______ _______ _______ _____ _____    ______ ____
ROOT
ATOM      1  N   UNL     1       8.842   6.681   7.206  0.00  0.00    -0.354 N 
ATOM      2  N   UNL     1       9.826   8.777   7.138  0.00  0.00    -0.372 N 
ATOM      3  N   UNL     1       8.636   8.050   5.315  0.00  0.00    -0.372 N 
ATOM      4  C   UNL     1       9.094   7.822   6.551  0.00  0.00    +0.166 C 
ATOM      5  H   UNL     1       9.244   6.557   8.128  0.00  0.00    +0.163 HD
ATOM      6  H   UNL     1      10.030   9.650   6.669  0.00  0.00    +0.159 HD
ATOM      7  H   UNL     1      10.187   8.669   8.078  0.00  0.00    +0.159 HD
ATOM      8  H   UNL     1       8.082   7.368   4.815  0.00  0.00    +0.159 HD
ATOM      9  H   UNL     1       8.839   8.913   4.826  0.00  0.00    +0.159 HD
ENDROOT
BRANCH   1  10
ATOM     10  C   UNL     1       8.011   5.601   6.677  0.00  0.00    +0.151 C 
BRANCH  10  11
ATOM     11  C   UNL     1       7.829   4.555   7.742  0.00  0.00    -0.028 A 
ATOM     12  C   UNL     1       7.078   3.399   7.484  0.00  0.00    +0.005 A 
ATOM     13  C   UNL     1       8.410   4.711   9.010  0.00  0.00    +0.005 A 
ATOM     14  C   UNL     1       6.934   2.413   8.463  0.00  0.00    +0.000 A 
ATOM     15  C   UNL     1       8.263   3.725   9.985  0.00  0.00    +0.000 A 
ATOM     16  C   UNL     1       7.527   2.575   9.711  0.00  0.00    +0.000 A 
ENDBRANCH  10  11
ENDBRANCH   1  10
TORSDOF 2
ENDMDL
MODEL 7
REMARK VINA RESULT:    -4.361     16.340     18.257
REMARK INTER + INTRA:          -5.009
REMARK INTER:                  -4.885
REMARK INTRA:                  -0.124
REMARK UNBOUND:                -0.138
REMARK  Name = 1550473
REMARK  2 active torsions:
REMARK  status: ('A' for Active; 'I' for Inactive)
REMARK    1  A    between atoms: N_1  and  C_4
REMARK    2  A    between atoms: C_4  and  C_5
REMARK                            x       y       z     vdW  Elec       q    Type
REMARK                         _______ _______ _______ _____ _____    ______ ____
ROOT
ATOM      1  N   UNL     1      -8.589   9.272  -0.677  0.00  0.00    -0.354 N 
ATOM      2  N   UNL     1     -10.867   9.584  -0.395  0.00  0.00    -0.372 N 
ATOM      3  N   UNL     1      -9.683  11.111  -1.633  0.00  0.00    -0.372 N 
ATOM      4  C   UNL     1      -9.698   9.989  -0.905  0.00  0.00    +0.166 C 
ATOM      5  H   UNL     1      -8.662   8.448  -0.091  0.00  0.00    +0.163 HD
ATOM      6  H   UNL     1     -11.721  10.102  -0.554  0.00  0.00    +0.159 HD
ATOM      7  H   UNL     1     -10.944   8.735   0.151  0.00  0.00    +0.159 HD
ATOM      8  H   UNL     1      -8.832  11.474  -2.041  0.00  0.00    +0.159 HD
ATOM      9  H   UNL     1     -10.525  11.650  -1.793  0.00  0.00    +0.159 HD
ENDROOT
BRANCH   1  10
ATOM     10  C   UNL     1      -7.276   9.598  -1.230  0.00  0.00    +0.151 C 
BRANCH  10  11
ATOM     11  C   UNL     1      -6.340   8.446  -0.985  0.00  0.00    -0.028 A 
ATOM     12  C   UNL     1      -6.830   7.219  -0.516  0.00  0.00    +0.005 A 
ATOM     13  C   UNL     1      -4.964   8.575  -1.226  0.00  0.00    +0.005 A 
ATOM     14  C   UNL     1      -5.965   6.140  -0.316  0.00  0.00    +0.000 A 
ATOM     15  C   UNL     1      -4.104   7.496  -1.024  0.00  0.00    +0.000 A 
ATOM     16  C   UNL     1      -4.605   6.278  -0.572  0.00  0.00    +0.000 A 
ENDBRANCH  10  11
ENDBRANCH   1  10
TORSDOF 2
ENDMDL
MODEL 8
REMARK VINA RESULT:    -4.299     23.991     24.669
REMARK INTER + INTRA:          -4.940
REMARK INTER:                  -4.811
REMARK INTRA:                  -0.130
REMARK UNBOUND:                -0.138
REMARK  Name = 1550473
REMARK  2 active torsions:
REMARK  status: ('A' for Active; 'I' for Inactive)
REMARK    1  A    between atoms: N_1  and  C_4
REMARK    2  A    between atoms: C_4  and  C_5
REMARK                            x       y       z     vdW  Elec       q    Type
REMARK                         _______ _______ _______ _____ _____    ______ ____
ROOT
ATOM      1  N   UNL     1      -4.760  -5.777 -17.658  0.00  0.00    -0.354 N 
ATOM      2  N   UNL     1      -3.172  -7.463 -17.668  0.00  0.00    -0.372 N 
ATOM      3  N   UNL     1      -2.681  -5.484 -16.616  0.00  0.00    -0.372 N 
ATOM      4  C   UNL     1      -3.547  -6.228 -17.313  0.00  0.00    +0.166 C 
ATOM      5  H   UNL     1      -5.358  -6.379 -18.212  0.00  0.00    +0.163 HD
ATOM      6  H   UNL     1      -2.264  -7.832 -17.419  0.00  0.00    +0.159 HD
ATOM      7  H   UNL     1      -3.789  -8.080 -18.183  0.00  0.00    +0.159 HD
ATOM      8  H   UNL     1      -2.901  -4.542 -16.322  0.00  0.00    +0.159 HD
ATOM      9  H   UNL     1      -1.763  -5.832 -16.367  0.00  0.00    +0.159 HD
ENDROOT
BRANCH   1  10
ATOM     10  C   UNL     1      -5.285  -4.468 -17.274  0.00  0.00    +0.151 C 
BRANCH  10  11
ATOM     11  C   UNL     1      -6.549  -4.659 -16.482  0.00  0.00    -0.028 A 
ATOM     12  C   UNL     1      -7.654  -3.821 -16.692  0.00  0.00    +0.005 A 
ATOM     13  C   UNL     1      -6.650  -5.679 -15.523  0.00  0.00    +0.005 A 
ATOM     14  C   UNL     1      -8.839  -4.017 -15.978  0.00  0.00    +0.000 A 
ATOM     15  C   UNL     1      -7.834  -5.870 -14.812  0.00  0.00    +0.000 A 
ATOM     16  C   UNL     1      -8.929  -5.041 -15.042  0.00  0.00    +0.000 A 
ENDBRANCH  10  11
ENDBRANCH   1  10
TORSDOF 2
ENDMDL
MODEL 9
REMARK VINA RESULT:    -3.949     22.551     23.601
REMARK INTER + INTRA:          -4.549
REMARK INTER:                  -4.398
REMARK INTRA:                  -0.151
REMARK UNBOUND:                -0.138
REMARK  Name = 1550473
REMARK  2 active torsions:
REMARK  status: ('A' for Active; 'I' for Inactive)
REMARK    1  A    between atoms: N_1  and  C_4
REMARK    2  A    between atoms: C_4  and  C_5
REMARK                            x       y       z     vdW  Elec       q    Type
REMARK                         _______ _______ _______ _____ _____    ______ ____
ROOT
ATOM      1  N   UNL     1       7.276 -19.942  -9.326  0.00  0.00    -0.354 N 
ATOM      2  N   UNL     1       6.229 -21.930  -8.764  0.00  0.00    -0.372 N 
ATOM      3  N   UNL     1       7.548 -21.863 -10.641  0.00  0.00    -0.372 N 
ATOM      4  C   UNL     1       7.026 -21.232  -9.583  0.00  0.00    +0.166 C 
ATOM      5  H   UNL     1       6.826 -19.514  -8.525  0.00  0.00    +0.163 HD
ATOM      6  H   UNL     1       6.025 -22.906  -8.931  0.00  0.00    +0.159 HD
ATOM      7  H   UNL     1       5.817 -21.512  -7.939  0.00  0.00    +0.159 HD
ATOM      8  H   UNL     1       8.152 -21.391 -11.301  0.00  0.00    +0.159 HD
ATOM      9  H   UNL     1       7.346 -22.836 -10.831  0.00  0.00    +0.159 HD
ENDROOT
BRANCH   1  10
ATOM     10  C   UNL     1       8.172 -19.108 -10.125  0.00  0.00    +0.151 C 
BRANCH  10  11
ATOM     11  C   UNL     1       7.355 -18.109 -10.898  0.00  0.00    -0.028 A 
ATOM     12  C   UNL     1       6.552 -18.524 -11.971  0.00  0.00    +0.005 A 
ATOM     13  C   UNL     1       7.375 -16.748 -10.559  0.00  0.00    +0.005 A 
ATOM     14  C   UNL     1       5.770 -17.602 -12.670  0.00  0.00    +0.000 A 
ATOM     15  C   UNL     1       6.594 -15.830 -11.260  0.00  0.00    +0.000 A 
ATOM     16  C   UNL     1       5.789 -16.257 -12.314  0.00  0.00    +0.000 A 
ENDBRANCH  10  11
ENDBRANCH   1  10
TORSDOF 2
ENDMDL
