MODEL 1
REMARK VINA RESULT:    -4.853      0.000      0.000
REMARK INTER + INTRA:          -5.569
REMARK INTER:                  -5.421
REMARK INTRA:                  -0.148
REMARK UNBOUND:                -0.148
REMARK  Name = 1550473
REMARK  2 active torsions:
REMARK  status: ('A' for Active; 'I' for Inactive)
REMARK    1  A    between atoms: N_1  and  C_4
REMARK    2  A    between atoms: C_4  and  C_5
REMARK                            x       y       z     vdW  Elec       q    Type
REMARK                         _______ _______ _______ _____ _____    ______ ____
ROOT
ATOM      1  N   UNL     1      13.386   6.448  12.300  0.00  0.00    -0.354 N 
ATOM      2  N   UNL     1      11.260   5.535  12.217  0.00  0.00    -0.372 N 
ATOM      3  N   UNL     1      11.568   7.694  11.504  0.00  0.00    -0.372 N 
ATOM      4  C   UNL     1      12.085   6.568  12.007  0.00  0.00    +0.166 C 
ATOM      5  H   UNL     1      13.710   5.578  12.706  0.00  0.00    +0.163 HD
ATOM      6  H   UNL     1      10.273   5.594  12.002  0.00  0.00    +0.159 HD
ATOM      7  H   UNL     1      11.595   4.651  12.581  0.00  0.00    +0.159 HD
ATOM      8  H   UNL     1      12.136   8.512  11.328  0.00  0.00    +0.159 HD
ATOM      9  H   UNL     1      10.581   7.776  11.294  0.00  0.00    +0.159 HD
ENDROOT
BRANCH   1  10
ATOM     10  C   UNL     1      14.378   7.495  12.058  0.00  0.00    +0.151 C 
BRANCH  10  11
ATOM     11  C   UNL     1      14.936   7.956  13.376  0.00  0.00    -0.028 A 
ATOM     12  C   UNL     1      15.688   7.084  14.176  0.00  0.00    +0.005 A 
ATOM     13  C   UNL     1      14.721   9.267  13.828  0.00  0.00    +0.005 A 
ATOM     14  C   UNL     1      16.232   7.521  15.386  0.00  0.00    +0.000 A 
ATOM     15  C   UNL     1      15.265   9.700  15.038  0.00  0.00    +0.000 A 
ATOM     16  C   UNL     1      16.022   8.827  15.815  0.00  0.00    +0.000 A 
ENDBRANCH  10  11
ENDBRANCH   1  10
TORSDOF 2
ENDMDL
MODEL 2
REMARK VINA RESULT:    -4.779     49.961     50.848
REMARK INTER + INTRA:          -5.486
REMARK INTER:                  -5.321
REMARK INTRA:                  -0.165
REMARK UNBOUND:                -0.148
REMARK  Name = 1550473
REMARK  2 active torsions:
REMARK  status: ('A' for Active; 'I' for Inactive)
REMARK    1  A    between atoms: N_1  and  C_4
REMARK    2  A    between atoms: C_4  and  C_5
REMARK                            x       y       z     vdW  Elec       q    Type
REMARK                         _______ _______ _______ _____ _____    ______ ____
ROOT
ATOM      1  N   UNL     1      -2.223 -21.426 -25.869  0.00  0.00    -0.354 N 
ATOM      2  N   UNL     1      -2.745 -22.752 -27.695  0.00  0.00    -0.372 N 
ATOM      3  N   UNL     1      -4.239 -21.143 -27.029  0.00  0.00    -0.372 N 
ATOM      4  C   UNL     1      -3.068 -21.763 -26.852  0.00  0.00    +0.166 C 
ATOM      5  H   UNL     1      -1.364 -21.956 -25.769  0.00  0.00    +0.163 HD
ATOM      6  H   UNL     1      -3.361 -23.026 -28.448  0.00  0.00    +0.159 HD
ATOM      7  H   UNL     1      -1.866 -23.248 -27.622  0.00  0.00    +0.159 HD
ATOM      8  H   UNL     1      -4.545 -20.393 -26.423  0.00  0.00    +0.159 HD
ATOM      9  H   UNL     1      -4.875 -21.410 -27.770  0.00  0.00    +0.159 HD
ENDROOT
BRANCH   1  10
ATOM     10  C   UNL     1      -2.455 -20.330 -24.930  0.00  0.00    +0.151 C 
BRANCH  10  11
ATOM     11  C   UNL     1      -3.102 -20.875 -23.687  0.00  0.00    -0.028 A 
ATOM     12  C   UNL     1      -4.266 -20.287 -23.173  0.00  0.00    +0.005 A 
ATOM     13  C   UNL     1      -2.558 -21.985 -23.022  0.00  0.00    +0.005 A 
ATOM     14  C   UNL     1      -4.884 -20.812 -22.035  0.00  0.00    +0.000 A 
ATOM     15  C   UNL     1      -3.177 -22.506 -21.886  0.00  0.00    +0.000 A 
ATOM     16  C   UNL     1      -4.341 -21.920 -21.394  0.00  0.00    +0.000 A 
ENDBRANCH  10  11
ENDBRANCH   1  10
TORSDOF 2
ENDMDL
MODEL 3
REMARK VINA RESULT:    -4.723     12.840     14.966
REMARK INTER + INTRA:          -5.424
REMARK INTER:                  -5.333
REMARK INTRA:                  -0.090
REMARK UNBOUND:                -0.148
REMARK  Name = 1550473
REMARK  2 active torsions:
REMARK  status: ('A' for Active; 'I' for Inactive)
REMARK    1  A    between atoms: N_1  and  C_4
REMARK    2  A    between atoms: C_4  and  C_5
REMARK                            x       y       z     vdW  Elec       q    Type
REMARK                         _______ _______ _______ _____ _____    ______ ____
ROOT
ATOM      1  N   UNL     1       9.488   0.442   3.326  0.00  0.00    -0.354 N 
ATOM      2  N   UNL     1      11.298   1.777   3.879  0.00  0.00    -0.372 N 
ATOM      3  N   UNL     1      11.243   0.783   1.812  0.00  0.00    -0.372 N 
ATOM      4  C   UNL     1      10.665   0.991   3.000  0.00  0.00    +0.166 C 
ATOM      5  H   UNL     1       9.118   0.614   4.254  0.00  0.00    +0.163 HD
ATOM      6  H   UNL     1      12.186   2.208   3.660  0.00  0.00    +0.159 HD
ATOM      7  H   UNL     1      10.904   1.984   4.789  0.00  0.00    +0.159 HD
ATOM      8  H   UNL     1      10.820   0.196   1.106  0.00  0.00    +0.159 HD
ATOM      9  H   UNL     1      12.137   1.196   1.578  0.00  0.00    +0.159 HD
ENDROOT
BRANCH   1  10
ATOM     10  C   UNL     1       8.692  -0.385   2.421  0.00  0.00    +0.151 C 
BRANCH  10  11
ATOM     11  C   UNL     1       7.482  -0.893   3.156  0.00  0.00    -0.028 A 
ATOM     12  C   UNL     1       6.277  -0.176   3.124  0.00  0.00    +0.005 A 
ATOM     13  C   UNL     1       7.533  -2.093   3.881  0.00  0.00    +0.005 A 
ATOM     14  C   UNL     1       5.144  -0.663   3.781  0.00  0.00    +0.000 A 
ATOM     15  C   UNL     1       6.400  -2.576   4.536  0.00  0.00    +0.000 A 
ATOM     16  C   UNL     1       5.206  -1.862   4.484  0.00  0.00    +0.000 A 
ENDBRANCH  10  11
ENDBRANCH   1  10
TORSDOF 2
ENDMDL
MODEL 4
REMARK VINA RESULT:    -4.713     33.989     36.231
REMARK INTER + INTRA:          -5.413
REMARK INTER:                  -5.292
REMARK INTRA:                  -0.121
REMARK UNBOUND:                -0.148
REMARK  Name = 1550473
REMARK  2 active torsions:
REMARK  status: ('A' for Active; 'I' for Inactive)
REMARK    1  A    between atoms: N_1  and  C_4
REMARK    2  A    between atoms: C_4  and  C_5
REMARK                            x       y       z     vdW  Elec       q    Type
REMARK                         _______ _______ _______ _____ _____    ______ ____
ROOT
ATOM      1  N   UNL     1       2.644 -16.343  -9.580  0.00  0.00    -0.354 N 
ATOM      2  N   UNL     1       1.154 -15.700  -7.928  0.00  0.00    -0.372 N 
ATOM      3  N   UNL     1       3.400 -15.681  -7.463  0.00  0.00    -0.372 N 
ATOM      4  C   UNL     1       2.412 -15.912  -8.333  0.00  0.00    +0.166 C 
ATOM      5  H   UNL     1       1.850 -16.528 -10.181  0.00  0.00    +0.163 HD
ATOM      6  H   UNL     1       0.947 -15.372  -6.995  0.00  0.00    +0.159 HD
ATOM      7  H   UNL     1       0.364 -15.842  -8.546  0.00  0.00    +0.159 HD
ATOM      8  H   UNL     1       4.371 -15.827  -7.704  0.00  0.00    +0.159 HD
ATOM      9  H   UNL     1       3.213 -15.363  -6.520  0.00  0.00    +0.159 HD
ENDROOT
BRANCH   1  10
ATOM     10  C   UNL     1       3.980 -16.553 -10.136  0.00  0.00    +0.151 C 
BRANCH  10  11
ATOM     11  C   UNL     1       3.884 -16.609 -11.636  0.00  0.00    -0.028 A 
ATOM     12  C   UNL     1       2.660 -16.889 -12.261  0.00  0.00    +0.005 A 
ATOM     13  C   UNL     1       5.012 -16.378 -12.438  0.00  0.00    +0.005 A 
ATOM     14  C   UNL     1       2.564 -16.911 -13.655  0.00  0.00    +0.000 A 
ATOM     15  C   UNL     1       4.912 -16.402 -13.829  0.00  0.00    +0.000 A 
ATOM     16  C   UNL     1       3.687 -16.666 -14.437  0.00  0.00    +0.000 A 
ENDBRANCH  10  11
ENDBRANCH   1  10
TORSDOF 2
ENDMDL
MODEL 5
REMARK VINA RESULT:    -4.700      6.576      7.792
REMARK INTER + INTRA:          -5.398
REMARK INTER:                  -5.291
REMARK INTRA:                  -0.106
REMARK UNBOUND:                -0.148
REMARK  Name = 1550473
REMARK  2 active torsions:
REMARK  status: ('A' for Active; 'I' for Inactive)
REMARK    1  A    between atoms: N_1  and  C_4
REMARK    2  A    between atoms: C_4  and  C_5
REMARK                            x       y       z     vdW  Elec       q    Type
REMARK                         _______ _______ _______ _____ _____    ______ ____
ROOT
ATOM      1  N   UNL     1       7.985   9.516   7.283  0.00  0.00    -0.354 N 
ATOM      2  N   UNL     1       6.622   9.791   5.431  0.00  0.00    -0.372 N 
ATOM      3  N   UNL     1       8.898   9.856   5.152  0.00  0.00    -0.372 N 
ATOM      4  C   UNL     1       7.846   9.720   5.966  0.00  0.00    +0.166 C 
ATOM      5  H   UNL     1       7.148   9.451   7.851  0.00  0.00    +0.163 HD
ATOM      6  H   UNL     1       6.486   9.941   4.440  0.00  0.00    +0.159 HD
ATOM      7  H   UNL     1       5.787   9.680   5.994  0.00  0.00    +0.159 HD
ATOM      8  H   UNL     1       9.849   9.818   5.494  0.00  0.00    +0.159 HD
ATOM      9  H   UNL     1       8.783  10.018   4.159  0.00  0.00    +0.159 HD
ENDROOT
BRANCH   1  10
ATOM     10  C   UNL     1       9.274   9.370   7.957  0.00  0.00    +0.151 C 
BRANCH  10  11
ATOM     11  C   UNL     1       9.065   9.461   9.443  0.00  0.00    -0.028 A 
ATOM     12  C   UNL     1       9.512   8.436  10.290  0.00  0.00    +0.005 A 
ATOM     13  C   UNL     1       8.425  10.574  10.012  0.00  0.00    +0.005 A 
ATOM     14  C   UNL     1       9.345   8.535  11.673  0.00  0.00    +0.000 A 
ATOM     15  C   UNL     1       8.260  10.668  11.393  0.00  0.00    +0.000 A 
ATOM     16  C   UNL     1       8.721   9.650  12.224  0.00  0.00    +0.000 A 
ENDBRANCH  10  11
ENDBRANCH   1  10
TORSDOF 2
ENDMDL
MODEL 6
REMARK VINA RESULT:    -4.588     50.797     53.142
REMARK INTER + INTRA:          -5.272
REMARK INTER:                  -5.143
REMARK INTRA:                  -0.130
REMARK UNBOUND:                -0.148
REMARK  Name = 1550473
REMARK  2 active torsions:
REMARK  status: ('A' for Active; 'I' for Inactive)
REMARK    1  A    between atoms: N_1  and  C_4
REMARK    2  A    between atoms: C_4  and  C_5
REMARK                            x       y       z     vdW  Elec       q    Type
REMARK                         _______ _______ _______ _____ _____    ______ ____
ROOT
ATOM      1  N   UNL     1      -0.059  -9.200 -33.694  0.00  0.00    -0.354 N 
ATOM      2  N   UNL     1       0.935 -10.165 -31.838  0.00  0.00    -0.372 N 
ATOM      3  N   UNL     1      -0.486  -8.389 -31.537  0.00  0.00    -0.372 N 
ATOM      4  C   UNL     1       0.122  -9.243 -32.367  0.00  0.00    +0.166 C 
ATOM      5  H   UNL     1       0.455  -9.855 -34.271  0.00  0.00    +0.163 HD
ATOM      6  H   UNL     1       1.089 -10.224 -30.840  0.00  0.00    +0.159 HD
ATOM      7  H   UNL     1       1.412 -10.849 -32.414  0.00  0.00    +0.159 HD
ATOM      8  H   UNL     1      -1.107  -7.666 -31.874  0.00  0.00    +0.159 HD
ATOM      9  H   UNL     1      -0.336  -8.425 -30.537  0.00  0.00    +0.159 HD
ENDROOT
BRANCH   1  10
ATOM     10  C   UNL     1      -0.964  -8.269 -34.366  0.00  0.00    +0.151 C 
BRANCH  10  11
ATOM     11  C   UNL     1      -0.414  -7.945 -35.727  0.00  0.00    -0.028 A 
ATOM     12  C   UNL     1      -0.981  -6.920 -36.499  0.00  0.00    +0.005 A 
ATOM     13  C   UNL     1       0.678  -8.656 -36.249  0.00  0.00    +0.005 A 
ATOM     14  C   UNL     1      -0.451  -6.599 -37.751  0.00  0.00    +0.000 A 
ATOM     15  C   UNL     1       1.204  -8.332 -37.500  0.00  0.00    +0.000 A 
ATOM     16  C   UNL     1       0.641  -7.302 -38.249  0.00  0.00    +0.000 A 
ENDBRANCH  10  11
ENDBRANCH   1  10
TORSDOF 2
ENDMDL
MODEL 7
REMARK VINA RESULT:    -4.569     22.947     24.106
REMARK INTER + INTRA:          -5.251
REMARK INTER:                  -5.108
REMARK INTRA:                  -0.143
REMARK UNBOUND:                -0.148
REMARK  Name = 1550473
REMARK  2 active torsions:
REMARK  status: ('A' for Active; 'I' for Inactive)
REMARK    1  A    between atoms: N_1  and  C_4
REMARK    2  A    between atoms: C_4  and  C_5
REMARK                            x       y       z     vdW  Elec       q    Type
REMARK                         _______ _______ _______ _____ _____    ______ ____
ROOT
ATOM      1  N   UNL     1       5.665  19.375  33.609  0.00  0.00    -0.354 N 
ATOM      2  N   UNL     1       4.299  18.399  35.204  0.00  0.00    -0.372 N 
ATOM      3  N   UNL     1       4.628  17.312  33.210  0.00  0.00    -0.372 N 
ATOM      4  C   UNL     1       4.872  18.367  33.995  0.00  0.00    +0.166 C 
ATOM      5  H   UNL     1       5.786  20.161  34.238  0.00  0.00    +0.163 HD
ATOM      6  H   UNL     1       3.699  17.651  35.525  0.00  0.00    +0.159 HD
ATOM      7  H   UNL     1       4.459  19.163  35.850  0.00  0.00    +0.159 HD
ATOM      8  H   UNL     1       5.025  17.230  32.284  0.00  0.00    +0.159 HD
ATOM      9  H   UNL     1       4.021  16.559  33.509  0.00  0.00    +0.159 HD
ENDROOT
BRANCH   1  10
ATOM     10  C   UNL     1       6.380  19.412  32.334  0.00  0.00    +0.151 C 
BRANCH  10  11
ATOM     11  C   UNL     1       7.823  19.750  32.590  0.00  0.00    -0.028 A 
ATOM     12  C   UNL     1       8.256  20.091  33.880  0.00  0.00    +0.005 A 
ATOM     13  C   UNL     1       8.762  19.727  31.548  0.00  0.00    +0.005 A 
ATOM     14  C   UNL     1       9.602  20.377  34.123  0.00  0.00    +0.000 A 
ATOM     15  C   UNL     1      10.104  20.014  31.795  0.00  0.00    +0.000 A 
ATOM     16  C   UNL     1      10.524  20.336  33.083  0.00  0.00    +0.000 A 
ENDBRANCH  10  11
ENDBRANCH   1  10
TORSDOF 2
ENDMDL
MODEL 8
REMARK VINA RESULT:    -4.542      9.294     10.179
REMARK INTER + INTRA:          -5.221
REMARK INTER:                  -5.069
REMARK INTRA:                  -0.152
REMARK UNBOUND:                -0.148
REMARK  Name = 1550473
REMARK  2 active torsions:
REMARK  status: ('A' for Active; 'I' for Inactive)
REMARK    1  A    between atoms: N_1  and  C_4
REMARK    2  A    between atoms: C_4  and  C_5
REMARK                            x       y       z     vdW  Elec       q    Type
REMARK                         _______ _______ _______ _____ _____    ______ ____
ROOT
ATOM      1  N   UNL     1      11.367  15.795  19.446  0.00  0.00    -0.354 N 
ATOM      2  N   UNL     1      10.223  16.587  17.594  0.00  0.00    -0.372 N 
ATOM      3  N   UNL     1      11.291  14.561  17.455  0.00  0.00    -0.372 N 
ATOM      4  C   UNL     1      10.969  15.640  18.176  0.00  0.00    +0.166 C 
ATOM      5  H   UNL     1      11.115  16.650  19.928  0.00  0.00    +0.163 HD
ATOM      6  H   UNL     1       9.905  16.496  16.639  0.00  0.00    +0.159 HD
ATOM      7  H   UNL     1       9.934  17.419  18.094  0.00  0.00    +0.159 HD
ATOM      8  H   UNL     1      11.857  13.813  17.834  0.00  0.00    +0.159 HD
ATOM      9  H   UNL     1      10.992  14.457  16.493  0.00  0.00    +0.159 HD
ENDROOT
BRANCH   1  10
ATOM     10  C   UNL     1      12.137  14.799  20.189  0.00  0.00    +0.151 C 
BRANCH  10  11
ATOM     11  C   UNL     1      13.576  15.233  20.247  0.00  0.00    -0.028 A 
ATOM     12  C   UNL     1      14.601  14.285  20.378  0.00  0.00    +0.005 A 
ATOM     13  C   UNL     1      13.921  16.591  20.164  0.00  0.00    +0.005 A 
ATOM     14  C   UNL     1      15.939  14.686  20.402  0.00  0.00    +0.000 A 
ATOM     15  C   UNL     1      15.258  16.987  20.189  0.00  0.00    +0.000 A 
ATOM     16  C   UNL     1      16.267  16.034  20.305  0.00  0.00    +0.000 A 
ENDBRANCH  10  11
ENDBRANCH   1  10
TORSDOF 2
ENDMDL
MODEL 9
REMARK VINA RESULT:    -4.527     22.144     23.152
REMARK INTER + INTRA:          -5.205
REMARK INTER:                  -5.070
REMARK INTRA:                  -0.135
REMARK UNBOUND:                -0.148
REMARK  Name = 1550473
REMARK  2 active torsions:
REMARK  status: ('A' for Active; 'I' for Inactive)
REMARK    1  A    between atoms: N_1  and  C_4
REMARK    2  A    between atoms: C_4  and  C_5
REMARK                            x       y       z     vdW  Elec       q    Type
REMARK                         _______ _______ _______ _____ _____    ______ ____
ROOT
ATOM      1  N   UNL     1       6.292  18.100  31.822  0.00  0.00    -0.354 N 
ATOM      2  N   UNL     1       4.463  17.230  32.946  0.00  0.00    -0.372 N 
ATOM      3  N   UNL     1       4.319  19.342  32.061  0.00  0.00    -0.372 N 
ATOM      4  C   UNL     1       5.036  18.233  32.269  0.00  0.00    +0.166 C 
ATOM      5  H   UNL     1       6.792  17.246  32.039  0.00  0.00    +0.163 HD
ATOM      6  H   UNL     1       3.516  17.300  33.292  0.00  0.00    +0.159 HD
ATOM      7  H   UNL     1       4.949  16.359  33.121  0.00  0.00    +0.159 HD
ATOM      8  H   UNL     1       4.695  20.137  31.562  0.00  0.00    +0.159 HD
ATOM      9  H   UNL     1       3.373  19.436  32.410  0.00  0.00    +0.159 HD
ENDROOT
BRANCH   1  10
ATOM     10  C   UNL     1       6.988  19.111  31.028  0.00  0.00    +0.151 C 
BRANCH  10  11
ATOM     11  C   UNL     1       8.214  19.563  31.774  0.00  0.00    -0.028 A 
ATOM     12  C   UNL     1       9.444  19.686  31.113  0.00  0.00    +0.005 A 
ATOM     13  C   UNL     1       8.149  19.875  33.141  0.00  0.00    +0.005 A 
ATOM     14  C   UNL     1      10.576  20.135  31.798  0.00  0.00    +0.000 A 
ATOM     15  C   UNL     1       9.281  20.322  33.822  0.00  0.00    +0.000 A 
ATOM     16  C   UNL     1      10.494  20.454  33.150  0.00  0.00    +0.000 A 
ENDBRANCH  10  11
ENDBRANCH   1  10
TORSDOF 2
ENDMDL
