MODEL 1
REMARK VINA RESULT:    -5.141      0.000      0.000
REMARK INTER + INTRA:          -5.869
REMARK INTER:                  -5.742
REMARK INTRA:                  -0.127
REMARK UNBOUND:                -0.127
REMARK  Name = 1550473
REMARK  2 active torsions:
REMARK  status: ('A' for Active; 'I' for Inactive)
REMARK    1  A    between atoms: N_1  and  C_4
REMARK    2  A    between atoms: C_4  and  C_5
REMARK                            x       y       z     vdW  Elec       q    Type
REMARK                         _______ _______ _______ _____ _____    ______ ____
ROOT
ATOM      1  N   UNL     1     -14.505   8.432 -25.457  0.00  0.00    -0.354 N 
ATOM      2  N   UNL     1     -15.961   6.816 -26.253  0.00  0.00    -0.372 N 
ATOM      3  N   UNL     1     -14.853   8.148 -27.757  0.00  0.00    -0.372 N 
ATOM      4  C   UNL     1     -15.096   7.811 -26.486  0.00  0.00    +0.166 C 
ATOM      5  H   UNL     1     -14.755   8.149 -24.516  0.00  0.00    +0.163 HD
ATOM      6  H   UNL     1     -16.419   6.326 -27.010  0.00  0.00    +0.159 HD
ATOM      7  H   UNL     1     -16.174   6.504 -25.313  0.00  0.00    +0.159 HD
ATOM      8  H   UNL     1     -14.215   8.895 -28.000  0.00  0.00    +0.159 HD
ATOM      9  H   UNL     1     -15.310   7.678 -28.528  0.00  0.00    +0.159 HD
ENDROOT
BRANCH   1  10
ATOM     10  C   UNL     1     -13.509   9.491 -25.604  0.00  0.00    +0.151 C 
BRANCH  10  11
ATOM     11  C   UNL     1     -12.527   9.403 -24.468  0.00  0.00    -0.028 A 
ATOM     12  C   UNL     1     -11.271  10.019 -24.564  0.00  0.00    +0.005 A 
ATOM     13  C   UNL     1     -12.849   8.709 -23.292  0.00  0.00    +0.005 A 
ATOM     14  C   UNL     1     -10.370   9.963 -23.498  0.00  0.00    +0.000 A 
ATOM     15  C   UNL     1     -11.946   8.654 -22.230  0.00  0.00    +0.000 A 
ATOM     16  C   UNL     1     -10.708   9.283 -22.332  0.00  0.00    +0.000 A 
ENDBRANCH  10  11
ENDBRANCH   1  10
TORSDOF 2
ENDMDL
MODEL 2
REMARK VINA RESULT:    -4.965     15.515     16.570
REMARK INTER + INTRA:          -5.673
REMARK INTER:                  -5.564
REMARK INTRA:                  -0.108
REMARK UNBOUND:                -0.127
REMARK  Name = 1550473
REMARK  2 active torsions:
REMARK  status: ('A' for Active; 'I' for Inactive)
REMARK    1  A    between atoms: N_1  and  C_4
REMARK    2  A    between atoms: C_4  and  C_5
REMARK                            x       y       z     vdW  Elec       q    Type
REMARK                         _______ _______ _______ _____ _____    ______ ____
ROOT
ATOM      1  N   UNL     1     -18.293  -5.853 -17.195  0.00  0.00    -0.354 N 
ATOM      2  N   UNL     1     -16.350  -7.110 -17.104  0.00  0.00    -0.372 N 
ATOM      3  N   UNL     1     -17.640  -7.198 -19.000  0.00  0.00    -0.372 N 
ATOM      4  C   UNL     1     -17.441  -6.713 -17.769  0.00  0.00    +0.166 C 
ATOM      5  H   UNL     1     -18.102  -5.546 -16.248  0.00  0.00    +0.163 HD
ATOM      6  H   UNL     1     -15.688  -7.756 -17.513  0.00  0.00    +0.159 HD
ATOM      7  H   UNL     1     -16.138  -6.766 -16.175  0.00  0.00    +0.159 HD
ATOM      8  H   UNL     1     -18.447  -6.942 -19.553  0.00  0.00    +0.159 HD
ATOM      9  H   UNL     1     -16.994  -7.854 -19.422  0.00  0.00    +0.159 HD
ENDROOT
BRANCH   1  10
ATOM     10  C   UNL     1     -19.482  -5.317 -17.855  0.00  0.00    +0.151 C 
BRANCH  10  11
ATOM     11  C   UNL     1     -19.711  -3.907 -17.384  0.00  0.00    -0.028 A 
ATOM     12  C   UNL     1     -18.970  -2.846 -17.927  0.00  0.00    +0.005 A 
ATOM     13  C   UNL     1     -20.671  -3.624 -16.401  0.00  0.00    +0.005 A 
ATOM     14  C   UNL     1     -19.204  -1.533 -17.512  0.00  0.00    +0.000 A 
ATOM     15  C   UNL     1     -20.900  -2.312 -15.988  0.00  0.00    +0.000 A 
ATOM     16  C   UNL     1     -20.168  -1.266 -16.546  0.00  0.00    +0.000 A 
ENDBRANCH  10  11
ENDBRANCH   1  10
TORSDOF 2
ENDMDL
MODEL 3
REMARK VINA RESULT:    -4.806     32.569     33.084
REMARK INTER + INTRA:          -5.494
REMARK INTER:                  -5.363
REMARK INTRA:                  -0.131
REMARK UNBOUND:                -0.127
REMARK  Name = 1550473
REMARK  2 active torsions:
REMARK  status: ('A' for Active; 'I' for Inactive)
REMARK    1  A    between atoms: N_1  and  C_4
REMARK    2  A    between atoms: C_4  and  C_5
REMARK                            x       y       z     vdW  Elec       q    Type
REMARK                         _______ _______ _______ _____ _____    ______ ____
ROOT
ATOM      1  N   UNL     1       1.300 -16.807 -10.111  0.00  0.00    -0.354 N 
ATOM      2  N   UNL     1       0.220 -18.439  -8.873  0.00  0.00    -0.372 N 
ATOM      3  N   UNL     1       2.073 -19.019 -10.096  0.00  0.00    -0.372 N 
ATOM      4  C   UNL     1       1.206 -18.079  -9.703  0.00  0.00    +0.166 C 
ATOM      5  H   UNL     1       0.594 -16.149  -9.801  0.00  0.00    +0.163 HD
ATOM      6  H   UNL     1       0.126 -19.391  -8.545  0.00  0.00    +0.159 HD
ATOM      7  H   UNL     1      -0.457 -17.770  -8.528  0.00  0.00    +0.159 HD
ATOM      8  H   UNL     1       2.836 -18.813 -10.726  0.00  0.00    +0.159 HD
ATOM      9  H   UNL     1       1.988 -19.980  -9.788  0.00  0.00    +0.159 HD
ENDROOT
BRANCH   1  10
ATOM     10  C   UNL     1       2.368 -16.300 -10.971  0.00  0.00    +0.151 C 
BRANCH  10  11
ATOM     11  C   UNL     1       3.196 -15.312 -10.196  0.00  0.00    -0.028 A 
ATOM     12  C   UNL     1       2.827 -14.940  -8.895  0.00  0.00    +0.005 A 
ATOM     13  C   UNL     1       4.353 -14.749 -10.756  0.00  0.00    +0.005 A 
ATOM     14  C   UNL     1       3.613 -14.046  -8.164  0.00  0.00    +0.000 A 
ATOM     15  C   UNL     1       5.134 -13.856 -10.022  0.00  0.00    +0.000 A 
ATOM     16  C   UNL     1       4.765 -13.507  -8.726  0.00  0.00    +0.000 A 
ENDBRANCH  10  11
ENDBRANCH   1  10
TORSDOF 2
ENDMDL
MODEL 4
REMARK VINA RESULT:    -4.793     33.157     34.887
REMARK INTER + INTRA:          -5.480
REMARK INTER:                  -5.361
REMARK INTRA:                  -0.119
REMARK UNBOUND:                -0.127
REMARK  Name = 1550473
REMARK  2 active torsions:
REMARK  status: ('A' for Active; 'I' for Inactive)
REMARK    1  A    between atoms: N_1  and  C_4
REMARK    2  A    between atoms: C_4  and  C_5
REMARK                            x       y       z     vdW  Elec       q    Type
REMARK                         _______ _______ _______ _____ _____    ______ ____
ROOT
ATOM      1  N   UNL     1     -11.385   8.276  11.124  0.00  0.00    -0.354 N 
ATOM      2  N   UNL     1     -12.171   7.634  13.206  0.00  0.00    -0.372 N 
ATOM      3  N   UNL     1      -9.907   7.814  12.883  0.00  0.00    -0.372 N 
ATOM      4  C   UNL     1     -11.146   7.912  12.391  0.00  0.00    +0.166 C 
ATOM      5  H   UNL     1     -12.346   8.302  10.804  0.00  0.00    +0.163 HD
ATOM      6  H   UNL     1     -12.022   7.360  14.168  0.00  0.00    +0.159 HD
ATOM      7  H   UNL     1     -13.133   7.706  12.896  0.00  0.00    +0.159 HD
ATOM      8  H   UNL     1      -9.090   8.005  12.318  0.00  0.00    +0.159 HD
ATOM      9  H   UNL     1      -9.737   7.530  13.839  0.00  0.00    +0.159 HD
ENDROOT
BRANCH   1  10
ATOM     10  C   UNL     1     -10.342   8.652  10.171  0.00  0.00    +0.151 C 
BRANCH  10  11
ATOM     11  C   UNL     1     -10.367   7.693   9.012  0.00  0.00    -0.028 A 
ATOM     12  C   UNL     1     -11.063   6.479   9.108  0.00  0.00    +0.005 A 
ATOM     13  C   UNL     1      -9.702   7.996   7.815  0.00  0.00    +0.005 A 
ATOM     14  C   UNL     1     -11.112   5.602   8.022  0.00  0.00    +0.000 A 
ATOM     15  C   UNL     1      -9.752   7.117   6.733  0.00  0.00    +0.000 A 
ATOM     16  C   UNL     1     -10.459   5.921   6.836  0.00  0.00    +0.000 A 
ENDBRANCH  10  11
ENDBRANCH   1  10
TORSDOF 2
ENDMDL
MODEL 5
REMARK VINA RESULT:    -4.648     15.370     16.620
REMARK INTER + INTRA:          -5.318
REMARK INTER:                  -5.181
REMARK INTRA:                  -0.137
REMARK UNBOUND:                -0.127
REMARK  Name = 1550473
REMARK  2 active torsions:
REMARK  status: ('A' for Active; 'I' for Inactive)
REMARK    1  A    between atoms: N_1  and  C_4
REMARK    2  A    between atoms: C_4  and  C_5
REMARK                            x       y       z     vdW  Elec       q    Type
REMARK                         _______ _______ _______ _____ _____    ______ ____
ROOT
ATOM      1  N   UNL     1     -19.433  -0.703 -15.569  0.00  0.00    -0.354 N 
ATOM      2  N   UNL     1     -17.324  -0.096 -14.827  0.00  0.00    -0.372 N 
ATOM      3  N   UNL     1     -17.856  -2.325 -14.955  0.00  0.00    -0.372 N 
ATOM      4  C   UNL     1     -18.218  -1.048 -15.121  0.00  0.00    +0.166 C 
ATOM      5  H   UNL     1     -19.655   0.283 -15.645  0.00  0.00    +0.163 HD
ATOM      6  H   UNL     1     -16.399  -0.326 -14.490  0.00  0.00    +0.159 HD
ATOM      7  H   UNL     1     -17.534   0.887 -14.947  0.00  0.00    +0.159 HD
ATOM      8  H   UNL     1     -18.487  -3.090 -15.153  0.00  0.00    +0.159 HD
ATOM      9  H   UNL     1     -16.939  -2.575 -14.608  0.00  0.00    +0.159 HD
ENDROOT
BRANCH   1  10
ATOM     10  C   UNL     1     -20.460  -1.663 -15.969  0.00  0.00    +0.151 C 
BRANCH  10  11
ATOM     11  C   UNL     1     -21.773  -1.261 -15.356  0.00  0.00    -0.028 A 
ATOM     12  C   UNL     1     -22.817  -2.190 -15.236  0.00  0.00    +0.005 A 
ATOM     13  C   UNL     1     -21.978   0.047 -14.889  0.00  0.00    +0.005 A 
ATOM     14  C   UNL     1     -24.027  -1.825 -14.640  0.00  0.00    +0.000 A 
ATOM     15  C   UNL     1     -23.187   0.407 -14.295  0.00  0.00    +0.000 A 
ATOM     16  C   UNL     1     -24.210  -0.529 -14.169  0.00  0.00    +0.000 A 
ENDBRANCH  10  11
ENDBRANCH   1  10
TORSDOF 2
ENDMDL
MODEL 6
REMARK VINA RESULT:    -4.597     26.022     27.802
REMARK INTER + INTRA:          -5.261
REMARK INTER:                  -5.131
REMARK INTRA:                  -0.131
REMARK UNBOUND:                -0.127
REMARK  Name = 1550473
REMARK  2 active torsions:
REMARK  status: ('A' for Active; 'I' for Inactive)
REMARK    1  A    between atoms: N_1  and  C_4
REMARK    2  A    between atoms: C_4  and  C_5
REMARK                            x       y       z     vdW  Elec       q    Type
REMARK                         _______ _______ _______ _____ _____    ______ ____
ROOT
ATOM      1  N   UNL     1      -9.078   4.931   3.440  0.00  0.00    -0.354 N 
ATOM      2  N   UNL     1     -10.159   6.492   4.767  0.00  0.00    -0.372 N 
ATOM      3  N   UNL     1     -10.477   4.261   5.196  0.00  0.00    -0.372 N 
ATOM      4  C   UNL     1      -9.899   5.216   4.460  0.00  0.00    +0.166 C 
ATOM      5  H   UNL     1      -8.695   5.700   2.901  0.00  0.00    +0.163 HD
ATOM      6  H   UNL     1     -10.771   6.738   5.533  0.00  0.00    +0.159 HD
ATOM      7  H   UNL     1      -9.738   7.259   4.256  0.00  0.00    +0.159 HD
ATOM      8  H   UNL     1     -10.327   3.278   5.013  0.00  0.00    +0.159 HD
ATOM      9  H   UNL     1     -11.103   4.486   5.960  0.00  0.00    +0.159 HD
ENDROOT
BRANCH   1  10
ATOM     10  C   UNL     1      -8.688   3.575   3.058  0.00  0.00    +0.151 C 
BRANCH  10  11
ATOM     11  C   UNL     1      -8.525   3.513   1.564  0.00  0.00    -0.028 A 
ATOM     12  C   UNL     1      -8.412   2.277   0.911  0.00  0.00    +0.005 A 
ATOM     13  C   UNL     1      -8.489   4.687   0.796  0.00  0.00    +0.005 A 
ATOM     14  C   UNL     1      -8.291   2.218  -0.480  0.00  0.00    +0.000 A 
ATOM     15  C   UNL     1      -8.368   4.624  -0.592  0.00  0.00    +0.000 A 
ATOM     16  C   UNL     1      -8.271   3.389  -1.230  0.00  0.00    +0.000 A 
ENDBRANCH  10  11
ENDBRANCH   1  10
TORSDOF 2
ENDMDL
MODEL 7
REMARK VINA RESULT:    -4.471      2.000      2.704
REMARK INTER + INTRA:          -5.121
REMARK INTER:                  -4.998
REMARK INTRA:                  -0.123
REMARK UNBOUND:                -0.127
REMARK  Name = 1550473
REMARK  2 active torsions:
REMARK  status: ('A' for Active; 'I' for Inactive)
REMARK    1  A    between atoms: N_1  and  C_4
REMARK    2  A    between atoms: C_4  and  C_5
REMARK                            x       y       z     vdW  Elec       q    Type
REMARK                         _______ _______ _______ _____ _____    ______ ____
ROOT
ATOM      1  N   UNL     1     -15.193   8.743 -23.415  0.00  0.00    -0.354 N 
ATOM      2  N   UNL     1     -17.102   8.219 -22.213  0.00  0.00    -0.372 N 
ATOM      3  N   UNL     1     -16.587   6.977 -24.072  0.00  0.00    -0.372 N 
ATOM      4  C   UNL     1     -16.282   7.981 -23.243  0.00  0.00    +0.166 C 
ATOM      5  H   UNL     1     -15.034   9.507 -22.769  0.00  0.00    +0.163 HD
ATOM      6  H   UNL     1     -17.929   7.659 -22.056  0.00  0.00    +0.159 HD
ATOM      7  H   UNL     1     -16.916   8.955 -21.542  0.00  0.00    +0.159 HD
ATOM      8  H   UNL     1     -16.012   6.750 -24.872  0.00  0.00    +0.159 HD
ATOM      9  H   UNL     1     -17.417   6.413 -23.939  0.00  0.00    +0.159 HD
ENDROOT
BRANCH   1  10
ATOM     10  C   UNL     1     -14.207   8.533 -24.473  0.00  0.00    +0.151 C 
BRANCH  10  11
ATOM     11  C   UNL     1     -12.863   9.011 -23.995  0.00  0.00    -0.028 A 
ATOM     12  C   UNL     1     -12.423   8.714 -22.697  0.00  0.00    +0.005 A 
ATOM     13  C   UNL     1     -12.024   9.756 -24.838  0.00  0.00    +0.005 A 
ATOM     14  C   UNL     1     -11.163   9.132 -22.263  0.00  0.00    +0.000 A 
ATOM     15  C   UNL     1     -10.767  10.172 -24.400  0.00  0.00    +0.000 A 
ATOM     16  C   UNL     1     -10.336   9.858 -23.113  0.00  0.00    +0.000 A 
ENDBRANCH  10  11
ENDBRANCH   1  10
TORSDOF 2
ENDMDL
MODEL 8
REMARK VINA RESULT:    -4.414      9.512     11.149
REMARK INTER + INTRA:          -5.057
REMARK INTER:                  -4.936
REMARK INTRA:                  -0.121
REMARK UNBOUND:                -0.127
REMARK  Name = 1550473
REMARK  2 active torsions:
REMARK  status: ('A' for Active; 'I' for Inactive)
REMARK    1  A    between atoms: N_1  and  C_4
REMARK    2  A    between atoms: C_4  and  C_5
REMARK                            x       y       z     vdW  Elec       q    Type
REMARK                         _______ _______ _______ _____ _____    ______ ____
ROOT
ATOM      1  N   UNL     1      -8.364   3.108 -17.275  0.00  0.00    -0.354 N 
ATOM      2  N   UNL     1      -6.208   2.293 -17.048  0.00  0.00    -0.372 N 
ATOM      3  N   UNL     1      -7.492   2.573 -15.167  0.00  0.00    -0.372 N 
ATOM      4  C   UNL     1      -7.370   2.663 -16.495  0.00  0.00    +0.166 C 
ATOM      5  H   UNL     1      -8.198   3.181 -18.272  0.00  0.00    +0.163 HD
ATOM      6  H   UNL     1      -5.441   1.950 -16.485  0.00  0.00    +0.159 HD
ATOM      7  H   UNL     1      -6.061   2.324 -18.049  0.00  0.00    +0.159 HD
ATOM      8  H   UNL     1      -8.341   2.843 -14.688  0.00  0.00    +0.159 HD
ATOM      9  H   UNL     1      -6.732   2.243 -14.585  0.00  0.00    +0.159 HD
ENDROOT
BRANCH   1  10
ATOM     10  C   UNL     1      -9.686   3.485 -16.779  0.00  0.00    +0.151 C 
BRANCH  10  11
ATOM     11  C   UNL     1     -10.735   2.912 -17.691  0.00  0.00    -0.028 A 
ATOM     12  C   UNL     1     -11.891   2.318 -17.162  0.00  0.00    +0.005 A 
ATOM     13  C   UNL     1     -10.583   2.965 -19.085  0.00  0.00    +0.005 A 
ATOM     14  C   UNL     1     -12.880   1.812 -18.009  0.00  0.00    +0.000 A 
ATOM     15  C   UNL     1     -11.572   2.458 -19.927  0.00  0.00    +0.000 A 
ATOM     16  C   UNL     1     -12.722   1.884 -19.389  0.00  0.00    +0.000 A 
ENDBRANCH  10  11
ENDBRANCH   1  10
TORSDOF 2
ENDMDL
MODEL 9
REMARK VINA RESULT:    -4.350     10.722     11.216
REMARK INTER + INTRA:          -4.986
REMARK INTER:                  -4.849
REMARK INTRA:                  -0.136
REMARK UNBOUND:                -0.127
REMARK  Name = 1550473
REMARK  2 active torsions:
REMARK  status: ('A' for Active; 'I' for Inactive)
REMARK    1  A    between atoms: N_1  and  C_4
REMARK    2  A    between atoms: C_4  and  C_5
REMARK                            x       y       z     vdW  Elec       q    Type
REMARK                         _______ _______ _______ _____ _____    ______ ____
ROOT
ATOM      1  N   UNL     1      -7.072   4.066 -17.396  0.00  0.00    -0.354 N 
ATOM      2  N   UNL     1      -8.143   2.046 -17.025  0.00  0.00    -0.372 N 
ATOM      3  N   UNL     1      -5.960   2.284 -16.358  0.00  0.00    -0.372 N 
ATOM      4  C   UNL     1      -7.049   2.811 -16.928  0.00  0.00    +0.166 C 
ATOM      5  H   UNL     1      -7.919   4.397 -17.844  0.00  0.00    +0.163 HD
ATOM      6  H   UNL     1      -8.156   1.096 -16.678  0.00  0.00    +0.159 HD
ATOM      7  H   UNL     1      -9.002   2.394 -17.433  0.00  0.00    +0.159 HD
ATOM      8  H   UNL     1      -5.101   2.807 -16.259  0.00  0.00    +0.159 HD
ATOM      9  H   UNL     1      -5.950   1.331 -16.015  0.00  0.00    +0.159 HD
ENDROOT
BRANCH   1  10
ATOM     10  C   UNL     1      -5.952   4.999 -17.290  0.00  0.00    +0.151 C 
BRANCH  10  11
ATOM     11  C   UNL     1      -6.444   6.293 -16.702  0.00  0.00    -0.028 A 
ATOM     12  C   UNL     1      -7.486   6.297 -15.763  0.00  0.00    +0.005 A 
ATOM     13  C   UNL     1      -5.868   7.517 -17.074  0.00  0.00    +0.005 A 
ATOM     14  C   UNL     1      -7.923   7.495 -15.193  0.00  0.00    +0.000 A 
ATOM     15  C   UNL     1      -6.308   8.712 -16.504  0.00  0.00    +0.000 A 
ATOM     16  C   UNL     1      -7.334   8.700 -15.562  0.00  0.00    +0.000 A 
ENDBRANCH  10  11
ENDBRANCH   1  10
TORSDOF 2
ENDMDL
