MODEL 1
REMARK VINA RESULT:    -6.014      0.000      0.000
REMARK INTER + INTRA:          -6.708
REMARK INTER:                  -6.718
REMARK INTRA:                   0.010
REMARK UNBOUND:                 0.010
REMARK  Name = 1550473
REMARK  2 active torsions:
REMARK  status: ('A' for Active; 'I' for Inactive)
REMARK    1  A    between atoms: N_1  and  C_4
REMARK    2  A    between atoms: C_4  and  C_5
REMARK                            x       y       z     vdW  Elec       q    Type
REMARK                         _______ _______ _______ _____ _____    ______ ____
ROOT
ATOM      1  N   UNL     1      -8.556 -12.469  -7.513  0.00  0.00    -0.354 N 
ATOM      2  N   UNL     1      -7.213 -12.618  -9.394  0.00  0.00    -0.372 N 
ATOM      3  N   UNL     1      -9.492 -12.687  -9.650  0.00  0.00    -0.372 N 
ATOM      4  C   UNL     1      -8.432 -12.591  -8.841  0.00  0.00    +0.166 C 
ATOM      5  H   UNL     1      -7.713 -12.432  -6.952  0.00  0.00    +0.163 HD
ATOM      6  H   UNL     1      -7.087 -12.706 -10.393  0.00  0.00    +0.159 HD
ATOM      7  H   UNL     1      -6.372 -12.534  -8.835  0.00  0.00    +0.159 HD
ATOM      8  H   UNL     1     -10.439 -12.678  -9.296  0.00  0.00    +0.159 HD
ATOM      9  H   UNL     1      -9.387 -12.786 -10.652  0.00  0.00    +0.159 HD
ENDROOT
BRANCH   1  10
ATOM     10  C   UNL     1      -9.838 -12.376  -6.817  0.00  0.00    +0.151 C 
BRANCH  10  11
ATOM     11  C   UNL     1     -10.420 -11.007  -7.042  0.00  0.00    -0.028 A 
ATOM     12  C   UNL     1      -9.675  -9.858  -6.740  0.00  0.00    +0.005 A 
ATOM     13  C   UNL     1     -11.714 -10.853  -7.562  0.00  0.00    +0.005 A 
ATOM     14  C   UNL     1     -10.203  -8.587  -6.976  0.00  0.00    +0.000 A 
ATOM     15  C   UNL     1     -12.239  -9.582  -7.796  0.00  0.00    +0.000 A 
ATOM     16  C   UNL     1     -11.482  -8.449  -7.505  0.00  0.00    +0.000 A 
ENDBRANCH  10  11
ENDBRANCH   1  10
TORSDOF 2
ENDMDL
MODEL 2
REMARK VINA RESULT:    -5.913     11.553     12.978
REMARK INTER + INTRA:          -6.594
REMARK INTER:                  -6.455
REMARK INTRA:                  -0.139
REMARK UNBOUND:                 0.010
REMARK  Name = 1550473
REMARK  2 active torsions:
REMARK  status: ('A' for Active; 'I' for Inactive)
REMARK    1  A    between atoms: N_1  and  C_4
REMARK    2  A    between atoms: C_4  and  C_5
REMARK                            x       y       z     vdW  Elec       q    Type
REMARK                         _______ _______ _______ _____ _____    ______ ____
ROOT
ATOM      1  N   UNL     1     -10.918  -0.338  -4.086  0.00  0.00    -0.354 N 
ATOM      2  N   UNL     1      -9.615  -0.150  -5.991  0.00  0.00    -0.372 N 
ATOM      3  N   UNL     1      -8.585  -0.167  -3.941  0.00  0.00    -0.372 N 
ATOM      4  C   UNL     1      -9.712  -0.219  -4.658  0.00  0.00    +0.166 C 
ATOM      5  H   UNL     1     -11.736  -0.341  -4.683  0.00  0.00    +0.163 HD
ATOM      6  H   UNL     1      -8.719  -0.064  -6.452  0.00  0.00    +0.159 HD
ATOM      7  H   UNL     1     -10.431  -0.200  -6.588  0.00  0.00    +0.159 HD
ATOM      8  H   UNL     1      -8.590  -0.209  -2.931  0.00  0.00    +0.159 HD
ATOM      9  H   UNL     1      -7.679  -0.069  -4.383  0.00  0.00    +0.159 HD
ENDROOT
BRANCH   1  10
ATOM     10  C   UNL     1     -11.129  -0.475  -2.646  0.00  0.00    +0.151 C 
BRANCH  10  11
ATOM     11  C   UNL     1     -12.100   0.578  -2.189  0.00  0.00    -0.028 A 
ATOM     12  C   UNL     1     -13.100   1.047  -3.053  0.00  0.00    +0.005 A 
ATOM     13  C   UNL     1     -12.029   1.108  -0.891  0.00  0.00    +0.005 A 
ATOM     14  C   UNL     1     -14.021   2.004  -2.619  0.00  0.00    +0.000 A 
ATOM     15  C   UNL     1     -12.950   2.064  -0.462  0.00  0.00    +0.000 A 
ATOM     16  C   UNL     1     -13.947   2.509  -1.326  0.00  0.00    +0.000 A 
ENDBRANCH  10  11
ENDBRANCH   1  10
TORSDOF 2
ENDMDL
MODEL 3
REMARK VINA RESULT:    -5.701      6.552      8.218
REMARK INTER + INTRA:          -6.357
REMARK INTER:                  -6.217
REMARK INTRA:                  -0.141
REMARK UNBOUND:                 0.010
REMARK  Name = 1550473
REMARK  2 active torsions:
REMARK  status: ('A' for Active; 'I' for Inactive)
REMARK    1  A    between atoms: N_1  and  C_4
REMARK    2  A    between atoms: C_4  and  C_5
REMARK                            x       y       z     vdW  Elec       q    Type
REMARK                         _______ _______ _______ _____ _____    ______ ____
ROOT
ATOM      1  N   UNL     1     -10.110  -3.240  -4.981  0.00  0.00    -0.354 N 
ATOM      2  N   UNL     1     -10.832  -2.768  -2.832  0.00  0.00    -0.372 N 
ATOM      3  N   UNL     1      -8.640  -2.364  -3.380  0.00  0.00    -0.372 N 
ATOM      4  C   UNL     1      -9.853  -2.793  -3.745  0.00  0.00    +0.166 C 
ATOM      5  H   UNL     1     -11.042  -3.580  -5.186  0.00  0.00    +0.163 HD
ATOM      6  H   UNL     1     -10.669  -2.433  -1.892  0.00  0.00    +0.159 HD
ATOM      7  H   UNL     1     -11.774  -3.066  -3.052  0.00  0.00    +0.159 HD
ATOM      8  H   UNL     1      -7.858  -2.362  -4.020  0.00  0.00    +0.159 HD
ATOM      9  H   UNL     1      -8.455  -2.035  -2.440  0.00  0.00    +0.159 HD
ENDROOT
BRANCH   1  10
ATOM     10  C   UNL     1      -9.128  -3.258  -6.064  0.00  0.00    +0.151 C 
BRANCH  10  11
ATOM     11  C   UNL     1      -9.155  -4.607  -6.729  0.00  0.00    -0.028 A 
ATOM     12  C   UNL     1      -9.039  -4.717  -8.122  0.00  0.00    +0.005 A 
ATOM     13  C   UNL     1      -9.289  -5.780  -5.969  0.00  0.00    +0.005 A 
ATOM     14  C   UNL     1      -9.034  -5.972  -8.737  0.00  0.00    +0.000 A 
ATOM     15  C   UNL     1      -9.284  -7.031  -6.587  0.00  0.00    +0.000 A 
ATOM     16  C   UNL     1      -9.154  -7.126  -7.971  0.00  0.00    +0.000 A 
ENDBRANCH  10  11
ENDBRANCH   1  10
TORSDOF 2
ENDMDL
MODEL 4
REMARK VINA RESULT:    -5.618      1.874      3.359
REMARK INTER + INTRA:          -6.264
REMARK INTER:                  -6.087
REMARK INTRA:                  -0.178
REMARK UNBOUND:                 0.010
REMARK  Name = 1550473
REMARK  2 active torsions:
REMARK  status: ('A' for Active; 'I' for Inactive)
REMARK    1  A    between atoms: N_1  and  C_4
REMARK    2  A    between atoms: C_4  and  C_5
REMARK                            x       y       z     vdW  Elec       q    Type
REMARK                         _______ _______ _______ _____ _____    ______ ____
ROOT
ATOM      1  N   UNL     1      -8.357 -12.161  -7.530  0.00  0.00    -0.354 N 
ATOM      2  N   UNL     1      -7.261 -12.951  -9.411  0.00  0.00    -0.372 N 
ATOM      3  N   UNL     1      -9.152 -11.679  -9.681  0.00  0.00    -0.372 N 
ATOM      4  C   UNL     1      -8.266 -12.257  -8.863  0.00  0.00    +0.166 C 
ATOM      5  H   UNL     1      -7.671 -12.647  -6.964  0.00  0.00    +0.163 HD
ATOM      6  H   UNL     1      -7.165 -13.038 -10.414  0.00  0.00    +0.159 HD
ATOM      7  H   UNL     1      -6.550 -13.397  -8.844  0.00  0.00    +0.159 HD
ATOM      8  H   UNL     1      -9.937 -11.147  -9.330  0.00  0.00    +0.159 HD
ATOM      9  H   UNL     1      -9.079 -11.765 -10.687  0.00  0.00    +0.159 HD
ENDROOT
BRANCH   1  10
ATOM     10  C   UNL     1      -9.382 -11.385  -6.834  0.00  0.00    +0.151 C 
BRANCH  10  11
ATOM     11  C   UNL     1     -10.431 -12.322  -6.302  0.00  0.00    -0.028 A 
ATOM     12  C   UNL     1     -11.767 -12.202  -6.713  0.00  0.00    +0.005 A 
ATOM     13  C   UNL     1     -10.095 -13.335  -5.392  0.00  0.00    +0.005 A 
ATOM     14  C   UNL     1     -12.736 -13.091  -6.243  0.00  0.00    +0.000 A 
ATOM     15  C   UNL     1     -11.066 -14.221  -4.924  0.00  0.00    +0.000 A 
ATOM     16  C   UNL     1     -12.386 -14.100  -5.351  0.00  0.00    +0.000 A 
ENDBRANCH  10  11
ENDBRANCH   1  10
TORSDOF 2
ENDMDL
MODEL 5
REMARK VINA RESULT:    -5.349     18.412     19.568
REMARK INTER + INTRA:          -5.964
REMARK INTER:                  -5.853
REMARK INTRA:                  -0.111
REMARK UNBOUND:                 0.010
REMARK  Name = 1550473
REMARK  2 active torsions:
REMARK  status: ('A' for Active; 'I' for Inactive)
REMARK    1  A    between atoms: N_1  and  C_4
REMARK    2  A    between atoms: C_4  and  C_5
REMARK                            x       y       z     vdW  Elec       q    Type
REMARK                         _______ _______ _______ _____ _____    ______ ____
ROOT
ATOM      1  N   UNL     1     -15.939   0.836   6.325  0.00  0.00    -0.354 N 
ATOM      2  N   UNL     1     -17.215   2.768   6.407  0.00  0.00    -0.372 N 
ATOM      3  N   UNL     1     -15.625   2.558   4.767  0.00  0.00    -0.372 N 
ATOM      4  C   UNL     1     -16.249   2.042   5.830  0.00  0.00    +0.166 C 
ATOM      5  H   UNL     1     -16.429   0.515   7.152  0.00  0.00    +0.163 HD
ATOM      6  H   UNL     1     -17.474   3.679   6.054  0.00  0.00    +0.159 HD
ATOM      7  H   UNL     1     -17.735   2.424   7.206  0.00  0.00    +0.159 HD
ATOM      8  H   UNL     1     -14.883   2.063   4.289  0.00  0.00    +0.159 HD
ATOM      9  H   UNL     1     -15.861   3.474   4.405  0.00  0.00    +0.159 HD
ENDROOT
BRANCH   1  10
ATOM     10  C   UNL     1     -14.941  -0.056   5.739  0.00  0.00    +0.151 C 
BRANCH  10  11
ATOM     11  C   UNL     1     -13.831  -0.272   6.731  0.00  0.00    -0.028 A 
ATOM     12  C   UNL     1     -13.518   0.717   7.675  0.00  0.00    +0.005 A 
ATOM     13  C   UNL     1     -13.093  -1.465   6.736  0.00  0.00    +0.005 A 
ATOM     14  C   UNL     1     -12.508   0.505   8.616  0.00  0.00    +0.000 A 
ATOM     15  C   UNL     1     -12.084  -1.673   7.677  0.00  0.00    +0.000 A 
ATOM     16  C   UNL     1     -11.794  -0.688   8.618  0.00  0.00    +0.000 A 
ENDBRANCH  10  11
ENDBRANCH   1  10
TORSDOF 2
ENDMDL
MODEL 6
REMARK VINA RESULT:    -5.232      2.074      3.265
REMARK INTER + INTRA:          -5.834
REMARK INTER:                  -5.664
REMARK INTRA:                  -0.169
REMARK UNBOUND:                 0.010
REMARK  Name = 1550473
REMARK  2 active torsions:
REMARK  status: ('A' for Active; 'I' for Inactive)
REMARK    1  A    between atoms: N_1  and  C_4
REMARK    2  A    between atoms: C_4  and  C_5
REMARK                            x       y       z     vdW  Elec       q    Type
REMARK                         _______ _______ _______ _____ _____    ______ ____
ROOT
ATOM      1  N   UNL     1      -9.594 -13.198  -5.932  0.00  0.00    -0.354 N 
ATOM      2  N   UNL     1      -9.530 -13.919  -3.731  0.00  0.00    -0.372 N 
ATOM      3  N   UNL     1     -11.554 -13.820  -4.808  0.00  0.00    -0.372 N 
ATOM      4  C   UNL     1     -10.229 -13.641  -4.839  0.00  0.00    +0.166 C 
ATOM      5  H   UNL     1      -8.592 -13.055  -5.881  0.00  0.00    +0.163 HD
ATOM      6  H   UNL     1      -9.982 -14.257  -2.893  0.00  0.00    +0.159 HD
ATOM      7  H   UNL     1      -8.523 -13.818  -3.698  0.00  0.00    +0.159 HD
ATOM      8  H   UNL     1     -12.140 -13.623  -5.609  0.00  0.00    +0.159 HD
ATOM      9  H   UNL     1     -12.026 -14.147  -3.974  0.00  0.00    +0.159 HD
ENDROOT
BRANCH   1  10
ATOM     10  C   UNL     1     -10.255 -12.918  -7.205  0.00  0.00    +0.151 C 
BRANCH  10  11
ATOM     11  C   UNL     1     -10.554 -11.447  -7.290  0.00  0.00    -0.028 A 
ATOM     12  C   UNL     1     -11.823 -10.999  -7.683  0.00  0.00    +0.005 A 
ATOM     13  C   UNL     1      -9.573 -10.494  -6.973  0.00  0.00    +0.005 A 
ATOM     14  C   UNL     1     -12.110  -9.633  -7.734  0.00  0.00    +0.000 A 
ATOM     15  C   UNL     1      -9.863  -9.131  -7.025  0.00  0.00    +0.000 A 
ATOM     16  C   UNL     1     -11.132  -8.701  -7.403  0.00  0.00    +0.000 A 
ENDBRANCH  10  11
ENDBRANCH   1  10
TORSDOF 2
ENDMDL
MODEL 7
REMARK VINA RESULT:    -5.108     18.758     19.731
REMARK INTER + INTRA:          -5.695
REMARK INTER:                  -5.572
REMARK INTRA:                  -0.124
REMARK UNBOUND:                 0.010
REMARK  Name = 1550473
REMARK  2 active torsions:
REMARK  status: ('A' for Active; 'I' for Inactive)
REMARK    1  A    between atoms: N_1  and  C_4
REMARK    2  A    between atoms: C_4  and  C_5
REMARK                            x       y       z     vdW  Elec       q    Type
REMARK                         _______ _______ _______ _____ _____    ______ ____
ROOT
ATOM      1  N   UNL     1      -5.838 -27.631   1.637  0.00  0.00    -0.354 N 
ATOM      2  N   UNL     1      -7.289 -28.347  -0.020  0.00  0.00    -0.372 N 
ATOM      3  N   UNL     1      -5.320 -29.481   0.295  0.00  0.00    -0.372 N 
ATOM      4  C   UNL     1      -6.137 -28.483   0.648  0.00  0.00    +0.166 C 
ATOM      5  H   UNL     1      -6.487 -26.877   1.835  0.00  0.00    +0.163 HD
ATOM      6  H   UNL     1      -7.543 -28.977  -0.769  0.00  0.00    +0.159 HD
ATOM      7  H   UNL     1      -7.956 -27.621   0.211  0.00  0.00    +0.159 HD
ATOM      8  H   UNL     1      -4.433 -29.634   0.756  0.00  0.00    +0.159 HD
ATOM      9  H   UNL     1      -5.551 -30.115  -0.459  0.00  0.00    +0.159 HD
ENDROOT
BRANCH   1  10
ATOM     10  C   UNL     1      -4.635 -27.725   2.462  0.00  0.00    +0.151 C 
BRANCH  10  11
ATOM     11  C   UNL     1      -4.541 -26.504   3.335  0.00  0.00    -0.028 A 
ATOM     12  C   UNL     1      -5.581 -25.563   3.357  0.00  0.00    +0.005 A 
ATOM     13  C   UNL     1      -3.417 -26.285   4.146  0.00  0.00    +0.005 A 
ATOM     14  C   UNL     1      -5.508 -24.445   4.191  0.00  0.00    +0.000 A 
ATOM     15  C   UNL     1      -3.348 -25.167   4.976  0.00  0.00    +0.000 A 
ATOM     16  C   UNL     1      -4.394 -24.248   5.000  0.00  0.00    +0.000 A 
ENDBRANCH  10  11
ENDBRANCH   1  10
TORSDOF 2
ENDMDL
MODEL 8
REMARK VINA RESULT:    -5.098     42.696     43.797
REMARK INTER + INTRA:          -5.684
REMARK INTER:                  -5.502
REMARK INTRA:                  -0.182
REMARK UNBOUND:                 0.010
REMARK  Name = 1550473
REMARK  2 active torsions:
REMARK  status: ('A' for Active; 'I' for Inactive)
REMARK    1  A    between atoms: N_1  and  C_4
REMARK    2  A    between atoms: C_4  and  C_5
REMARK                            x       y       z     vdW  Elec       q    Type
REMARK                         _______ _______ _______ _____ _____    ______ ____
ROOT
ATOM      1  N   UNL     1      21.808   8.958  11.289  0.00  0.00    -0.354 N 
ATOM      2  N   UNL     1      19.536   8.713  11.668  0.00  0.00    -0.372 N 
ATOM      3  N   UNL     1      20.911   6.898  11.953  0.00  0.00    -0.372 N 
ATOM      4  C   UNL     1      20.767   8.189  11.635  0.00  0.00    +0.166 C 
ATOM      5  H   UNL     1      21.629   9.922  11.030  0.00  0.00    +0.163 HD
ATOM      6  H   UNL     1      18.732   8.158  11.929  0.00  0.00    +0.159 HD
ATOM      7  H   UNL     1      19.367   9.688  11.453  0.00  0.00    +0.159 HD
ATOM      8  H   UNL     1      21.812   6.440  11.941  0.00  0.00    +0.159 HD
ATOM      9  H   UNL     1      20.116   6.323  12.205  0.00  0.00    +0.159 HD
ENDROOT
BRANCH   1  10
ATOM     10  C   UNL     1      23.195   8.499  11.273  0.00  0.00    +0.151 C 
BRANCH  10  11
ATOM     11  C   UNL     1      23.893   8.999  12.508  0.00  0.00    -0.028 A 
ATOM     12  C   UNL     1      24.214  10.358  12.642  0.00  0.00    +0.005 A 
ATOM     13  C   UNL     1      24.231   8.121  13.549  0.00  0.00    +0.005 A 
ATOM     14  C   UNL     1      24.835  10.829  13.802  0.00  0.00    +0.000 A 
ATOM     15  C   UNL     1      24.852   8.595  14.704  0.00  0.00    +0.000 A 
ATOM     16  C   UNL     1      25.152   9.949  14.832  0.00  0.00    +0.000 A 
ENDBRANCH  10  11
ENDBRANCH   1  10
TORSDOF 2
ENDMDL
MODEL 9
REMARK VINA RESULT:    -4.951     10.263     10.597
REMARK INTER + INTRA:          -5.520
REMARK INTER:                  -5.380
REMARK INTRA:                  -0.139
REMARK UNBOUND:                 0.010
REMARK  Name = 1550473
REMARK  2 active torsions:
REMARK  status: ('A' for Active; 'I' for Inactive)
REMARK    1  A    between atoms: N_1  and  C_4
REMARK    2  A    between atoms: C_4  and  C_5
REMARK                            x       y       z     vdW  Elec       q    Type
REMARK                         _______ _______ _______ _____ _____    ______ ____
ROOT
ATOM      1  N   UNL     1      -7.088  -1.126  -5.322  0.00  0.00    -0.354 N 
ATOM      2  N   UNL     1      -5.816  -2.123  -3.663  0.00  0.00    -0.372 N 
ATOM      3  N   UNL     1      -8.102  -2.270  -3.546  0.00  0.00    -0.372 N 
ATOM      4  C   UNL     1      -7.013  -1.834  -4.187  0.00  0.00    +0.166 C 
ATOM      5  H   UNL     1      -6.226  -0.798  -5.743  0.00  0.00    +0.163 HD
ATOM      6  H   UNL     1      -5.727  -2.658  -2.810  0.00  0.00    +0.159 HD
ATOM      7  H   UNL     1      -4.954  -1.834  -4.111  0.00  0.00    +0.159 HD
ATOM      8  H   UNL     1      -9.036  -2.080  -3.886  0.00  0.00    +0.159 HD
ATOM      9  H   UNL     1      -8.035  -2.797  -2.685  0.00  0.00    +0.159 HD
ENDROOT
BRANCH   1  10
ATOM     10  C   UNL     1      -8.340  -0.803  -6.003  0.00  0.00    +0.151 C 
BRANCH  10  11
ATOM     11  C   UNL     1      -8.172  -1.041  -7.479  0.00  0.00    -0.028 A 
ATOM     12  C   UNL     1      -9.238  -0.815  -8.362  0.00  0.00    +0.005 A 
ATOM     13  C   UNL     1      -6.948  -1.486  -8.000  0.00  0.00    +0.005 A 
ATOM     14  C   UNL     1      -9.074  -1.007  -9.736  0.00  0.00    +0.000 A 
ATOM     15  C   UNL     1      -6.788  -1.677  -9.373  0.00  0.00    +0.000 A 
ATOM     16  C   UNL     1      -7.850  -1.435 -10.240  0.00  0.00    +0.000 A 
ENDBRANCH  10  11
ENDBRANCH   1  10
TORSDOF 2
ENDMDL
