MODEL 1
REMARK VINA RESULT:    -4.985      0.000      0.000
REMARK INTER + INTRA:          -5.676
REMARK INTER:                  -5.568
REMARK INTRA:                  -0.107
REMARK UNBOUND:                -0.107
REMARK  Name = 1550473
REMARK  2 active torsions:
REMARK  status: ('A' for Active; 'I' for Inactive)
REMARK    1  A    between atoms: N_1  and  C_4
REMARK    2  A    between atoms: C_4  and  C_5
REMARK                            x       y       z     vdW  Elec       q    Type
REMARK                         _______ _______ _______ _____ _____    ______ ____
ROOT
ATOM      1  N   UNL     1       0.681  10.720  -2.897  0.00  0.00    -0.354 N 
ATOM      2  N   UNL     1       2.785  11.147  -2.028  0.00  0.00    -0.372 N 
ATOM      3  N   UNL     1       1.827  12.695  -3.424  0.00  0.00    -0.372 N 
ATOM      4  C   UNL     1       1.750  11.520  -2.790  0.00  0.00    +0.166 C 
ATOM      5  H   UNL     1       0.698   9.828  -2.416  0.00  0.00    +0.163 HD
ATOM      6  H   UNL     1       3.604  11.731  -1.925  0.00  0.00    +0.159 HD
ATOM      7  H   UNL     1       2.779  10.276  -1.511  0.00  0.00    +0.159 HD
ATOM      8  H   UNL     1       1.082  13.032  -4.020  0.00  0.00    +0.159 HD
ATOM      9  H   UNL     1       2.643  13.289  -3.343  0.00  0.00    +0.159 HD
ENDROOT
BRANCH   1  10
ATOM     10  C   UNL     1      -0.520  11.057  -3.659  0.00  0.00    +0.151 C 
BRANCH  10  11
ATOM     11  C   UNL     1      -1.603  11.481  -2.706  0.00  0.00    -0.028 A 
ATOM     12  C   UNL     1      -1.455  11.283  -1.326  0.00  0.00    +0.005 A 
ATOM     13  C   UNL     1      -2.778  12.088  -3.177  0.00  0.00    +0.005 A 
ATOM     14  C   UNL     1      -2.447  11.704  -0.437  0.00  0.00    +0.000 A 
ATOM     15  C   UNL     1      -3.767  12.506  -2.287  0.00  0.00    +0.000 A 
ATOM     16  C   UNL     1      -3.600  12.317  -0.917  0.00  0.00    +0.000 A 
ENDBRANCH  10  11
ENDBRANCH   1  10
TORSDOF 2
ENDMDL
MODEL 2
REMARK VINA RESULT:    -4.952      1.473      2.344
REMARK INTER + INTRA:          -5.638
REMARK INTER:                  -5.500
REMARK INTRA:                  -0.139
REMARK UNBOUND:                -0.107
REMARK  Name = 1550473
REMARK  2 active torsions:
REMARK  status: ('A' for Active; 'I' for Inactive)
REMARK    1  A    between atoms: N_1  and  C_4
REMARK    2  A    between atoms: C_4  and  C_5
REMARK                            x       y       z     vdW  Elec       q    Type
REMARK                         _______ _______ _______ _____ _____    ______ ____
ROOT
ATOM      1  N   UNL     1      -0.329  10.868  -4.333  0.00  0.00    -0.354 N 
ATOM      2  N   UNL     1       0.602  11.250  -6.419  0.00  0.00    -0.372 N 
ATOM      3  N   UNL     1       1.919  11.489  -4.555  0.00  0.00    -0.372 N 
ATOM      4  C   UNL     1       0.727  11.200  -5.087  0.00  0.00    +0.166 C 
ATOM      5  H   UNL     1      -1.214  10.690  -4.795  0.00  0.00    +0.163 HD
ATOM      6  H   UNL     1       1.382  11.495  -7.014  0.00  0.00    +0.159 HD
ATOM      7  H   UNL     1      -0.271  11.027  -6.881  0.00  0.00    +0.159 HD
ATOM      8  H   UNL     1       2.078  11.475  -3.557  0.00  0.00    +0.159 HD
ATOM      9  H   UNL     1       2.709  11.747  -5.133  0.00  0.00    +0.159 HD
ENDROOT
BRANCH   1  10
ATOM     10  C   UNL     1      -0.285  10.732  -2.878  0.00  0.00    +0.151 C 
BRANCH  10  11
ATOM     11  C   UNL     1      -1.522  11.352  -2.289  0.00  0.00    -0.028 A 
ATOM     12  C   UNL     1      -2.506  11.907  -3.121  0.00  0.00    +0.005 A 
ATOM     13  C   UNL     1      -1.719  11.384  -0.900  0.00  0.00    +0.005 A 
ATOM     14  C   UNL     1      -3.669  12.456  -2.576  0.00  0.00    +0.000 A 
ATOM     15  C   UNL     1      -2.881  11.934  -0.360  0.00  0.00    +0.000 A 
ATOM     16  C   UNL     1      -3.857  12.468  -1.198  0.00  0.00    +0.000 A 
ENDBRANCH  10  11
ENDBRANCH   1  10
TORSDOF 2
ENDMDL
MODEL 3
REMARK VINA RESULT:    -4.534     13.257     14.831
REMARK INTER + INTRA:          -5.171
REMARK INTER:                  -4.999
REMARK INTRA:                  -0.172
REMARK UNBOUND:                -0.107
REMARK  Name = 1550473
REMARK  2 active torsions:
REMARK  status: ('A' for Active; 'I' for Inactive)
REMARK    1  A    between atoms: N_1  and  C_4
REMARK    2  A    between atoms: C_4  and  C_5
REMARK                            x       y       z     vdW  Elec       q    Type
REMARK                         _______ _______ _______ _____ _____    ______ ____
ROOT
ATOM      1  N   UNL     1      -8.767   8.088  10.095  0.00  0.00    -0.354 N 
ATOM      2  N   UNL     1      -8.077   6.102  11.067  0.00  0.00    -0.372 N 
ATOM      3  N   UNL     1      -8.249   7.977  12.378  0.00  0.00    -0.372 N 
ATOM      4  C   UNL     1      -8.369   7.404  11.176  0.00  0.00    +0.166 C 
ATOM      5  H   UNL     1      -8.808   7.603   9.207  0.00  0.00    +0.163 HD
ATOM      6  H   UNL     1      -7.777   5.559  11.865  0.00  0.00    +0.159 HD
ATOM      7  H   UNL     1      -8.163   5.609  10.186  0.00  0.00    +0.159 HD
ATOM      8  H   UNL     1      -8.449   8.957  12.526  0.00  0.00    +0.159 HD
ATOM      9  H   UNL     1      -7.939   7.453  13.187  0.00  0.00    +0.159 HD
ENDROOT
BRANCH   1  10
ATOM     10  C   UNL     1      -9.160   9.496  10.118  0.00  0.00    +0.151 C 
BRANCH  10  11
ATOM     11  C   UNL     1      -7.984  10.341   9.713  0.00  0.00    -0.028 A 
ATOM     12  C   UNL     1      -7.570  11.415  10.515  0.00  0.00    +0.005 A 
ATOM     13  C   UNL     1      -7.276  10.070   8.533  0.00  0.00    +0.005 A 
ATOM     14  C   UNL     1      -6.459  12.182  10.154  0.00  0.00    +0.000 A 
ATOM     15  C   UNL     1      -6.168  10.838   8.176  0.00  0.00    +0.000 A 
ATOM     16  C   UNL     1      -5.758  11.892   8.988  0.00  0.00    +0.000 A 
ENDBRANCH  10  11
ENDBRANCH   1  10
TORSDOF 2
ENDMDL
MODEL 4
REMARK VINA RESULT:    -4.528     29.060     29.697
REMARK INTER + INTRA:          -5.165
REMARK INTER:                  -5.070
REMARK INTRA:                  -0.095
REMARK UNBOUND:                -0.107
REMARK  Name = 1550473
REMARK  2 active torsions:
REMARK  status: ('A' for Active; 'I' for Inactive)
REMARK    1  A    between atoms: N_1  and  C_4
REMARK    2  A    between atoms: C_4  and  C_5
REMARK                            x       y       z     vdW  Elec       q    Type
REMARK                         _______ _______ _______ _____ _____    ______ ____
ROOT
ATOM      1  N   UNL     1      -8.250  -1.942 -27.323  0.00  0.00    -0.354 N 
ATOM      2  N   UNL     1      -8.669  -0.393 -28.993  0.00  0.00    -0.372 N 
ATOM      3  N   UNL     1      -8.699  -2.627 -29.518  0.00  0.00    -0.372 N 
ATOM      4  C   UNL     1      -8.537  -1.666 -28.602  0.00  0.00    +0.166 C 
ATOM      5  H   UNL     1      -8.110  -1.168 -26.684  0.00  0.00    +0.163 HD
ATOM      6  H   UNL     1      -8.888  -0.155 -29.951  0.00  0.00    +0.159 HD
ATOM      7  H   UNL     1      -8.573   0.377 -28.343  0.00  0.00    +0.159 HD
ATOM      8  H   UNL     1      -8.607  -3.607 -29.289  0.00  0.00    +0.159 HD
ATOM      9  H   UNL     1      -8.907  -2.408 -30.485  0.00  0.00    +0.159 HD
ENDROOT
BRANCH   1  10
ATOM     10  C   UNL     1      -8.138  -3.295 -26.783  0.00  0.00    +0.151 C 
BRANCH  10  11
ATOM     11  C   UNL     1      -9.327  -3.574 -25.905  0.00  0.00    -0.028 A 
ATOM     12  C   UNL     1      -9.428  -4.786 -25.207  0.00  0.00    +0.005 A 
ATOM     13  C   UNL     1     -10.354  -2.628 -25.763  0.00  0.00    +0.005 A 
ATOM     14  C   UNL     1     -10.518  -5.033 -24.368  0.00  0.00    +0.000 A 
ATOM     15  C   UNL     1     -11.440  -2.879 -24.926  0.00  0.00    +0.000 A 
ATOM     16  C   UNL     1     -11.521  -4.080 -24.226  0.00  0.00    +0.000 A 
ENDBRANCH  10  11
ENDBRANCH   1  10
TORSDOF 2
ENDMDL
MODEL 5
REMARK VINA RESULT:    -4.449      3.255      4.299
REMARK INTER + INTRA:          -5.077
REMARK INTER:                  -4.968
REMARK INTRA:                  -0.109
REMARK UNBOUND:                -0.107
REMARK  Name = 1550473
REMARK  2 active torsions:
REMARK  status: ('A' for Active; 'I' for Inactive)
REMARK    1  A    between atoms: N_1  and  C_4
REMARK    2  A    between atoms: C_4  and  C_5
REMARK                            x       y       z     vdW  Elec       q    Type
REMARK                         _______ _______ _______ _____ _____    ______ ____
ROOT
ATOM      1  N   UNL     1      -2.668  13.926  -4.619  0.00  0.00    -0.354 N 
ATOM      2  N   UNL     1      -1.778  15.430  -6.138  0.00  0.00    -0.372 N 
ATOM      3  N   UNL     1      -4.039  15.041  -6.158  0.00  0.00    -0.372 N 
ATOM      4  C   UNL     1      -2.837  14.789  -5.629  0.00  0.00    +0.166 C 
ATOM      5  H   UNL     1      -1.727  13.757  -4.283  0.00  0.00    +0.163 HD
ATOM      6  H   UNL     1      -1.875  16.090  -6.898  0.00  0.00    +0.159 HD
ATOM      7  H   UNL     1      -0.845  15.294  -5.770  0.00  0.00    +0.159 HD
ATOM      8  H   UNL     1      -4.878  14.585  -5.823  0.00  0.00    +0.159 HD
ATOM      9  H   UNL     1      -4.155  15.689  -6.927  0.00  0.00    +0.159 HD
ENDROOT
BRANCH   1  10
ATOM     10  C   UNL     1      -3.762  13.217  -3.957  0.00  0.00    +0.151 C 
BRANCH  10  11
ATOM     11  C   UNL     1      -3.239  12.560  -2.710  0.00  0.00    -0.028 A 
ATOM     12  C   UNL     1      -2.012  11.880  -2.725  0.00  0.00    +0.005 A 
ATOM     13  C   UNL     1      -3.962  12.618  -1.509  0.00  0.00    +0.005 A 
ATOM     14  C   UNL     1      -1.511  11.295  -1.559  0.00  0.00    +0.000 A 
ATOM     15  C   UNL     1      -3.459  12.032  -0.348  0.00  0.00    +0.000 A 
ATOM     16  C   UNL     1      -2.232  11.373  -0.372  0.00  0.00    +0.000 A 
ENDBRANCH  10  11
ENDBRANCH   1  10
TORSDOF 2
ENDMDL
MODEL 6
REMARK VINA RESULT:    -4.278      2.633      3.537
REMARK INTER + INTRA:          -4.886
REMARK INTER:                  -4.743
REMARK INTRA:                  -0.142
REMARK UNBOUND:                -0.107
REMARK  Name = 1550473
REMARK  2 active torsions:
REMARK  status: ('A' for Active; 'I' for Inactive)
REMARK    1  A    between atoms: N_1  and  C_4
REMARK    2  A    between atoms: C_4  and  C_5
REMARK                            x       y       z     vdW  Elec       q    Type
REMARK                         _______ _______ _______ _____ _____    ______ ____
ROOT
ATOM      1  N   UNL     1       0.938  11.576  -6.506  0.00  0.00    -0.354 N 
ATOM      2  N   UNL     1       2.529  12.648  -7.804  0.00  0.00    -0.372 N 
ATOM      3  N   UNL     1       3.224  11.162  -6.200  0.00  0.00    -0.372 N 
ATOM      4  C   UNL     1       2.222  11.787  -6.827  0.00  0.00    +0.166 C 
ATOM      5  H   UNL     1       0.226  12.104  -6.999  0.00  0.00    +0.163 HD
ATOM      6  H   UNL     1       3.488  12.825  -8.071  0.00  0.00    +0.159 HD
ATOM      7  H   UNL     1       1.813  13.139  -8.326  0.00  0.00    +0.159 HD
ATOM      8  H   UNL     1       3.060  10.505  -5.449  0.00  0.00    +0.159 HD
ATOM      9  H   UNL     1       4.191  11.335  -6.444  0.00  0.00    +0.159 HD
ENDROOT
BRANCH   1  10
ATOM     10  C   UNL     1       0.494  10.620  -5.494  0.00  0.00    +0.151 C 
BRANCH  10  11
ATOM     11  C   UNL     1      -0.129  11.370  -4.349  0.00  0.00    -0.028 A 
ATOM     12  C   UNL     1      -0.423  12.736  -4.469  0.00  0.00    +0.005 A 
ATOM     13  C   UNL     1      -0.434  10.718  -3.144  0.00  0.00    +0.005 A 
ATOM     14  C   UNL     1      -1.029  13.426  -3.417  0.00  0.00    +0.000 A 
ATOM     15  C   UNL     1      -1.038  11.411  -2.095  0.00  0.00    +0.000 A 
ATOM     16  C   UNL     1      -1.338  12.764  -2.233  0.00  0.00    +0.000 A 
ENDBRANCH  10  11
ENDBRANCH   1  10
TORSDOF 2
ENDMDL
MODEL 7
REMARK VINA RESULT:    -4.222      2.847      4.711
REMARK INTER + INTRA:          -4.823
REMARK INTER:                  -4.665
REMARK INTRA:                  -0.159
REMARK UNBOUND:                -0.107
REMARK  Name = 1550473
REMARK  2 active torsions:
REMARK  status: ('A' for Active; 'I' for Inactive)
REMARK    1  A    between atoms: N_1  and  C_4
REMARK    2  A    between atoms: C_4  and  C_5
REMARK                            x       y       z     vdW  Elec       q    Type
REMARK                         _______ _______ _______ _____ _____    ______ ____
ROOT
ATOM      1  N   UNL     1      -2.629  11.819  -1.542  0.00  0.00    -0.354 N 
ATOM      2  N   UNL     1      -3.334  11.868   0.664  0.00  0.00    -0.372 N 
ATOM      3  N   UNL     1      -3.329  13.820  -0.543  0.00  0.00    -0.372 N 
ATOM      4  C   UNL     1      -3.093  12.504  -0.489  0.00  0.00    +0.166 C 
ATOM      5  H   UNL     1      -2.442  10.829  -1.427  0.00  0.00    +0.163 HD
ATOM      6  H   UNL     1      -3.687  12.358   1.474  0.00  0.00    +0.159 HD
ATOM      7  H   UNL     1      -3.190  10.870   0.762  0.00  0.00    +0.159 HD
ATOM      8  H   UNL     1      -3.162  14.359  -1.382  0.00  0.00    +0.159 HD
ATOM      9  H   UNL     1      -3.672  14.330   0.261  0.00  0.00    +0.159 HD
ENDROOT
BRANCH   1  10
ATOM     10  C   UNL     1      -2.385  12.407  -2.858  0.00  0.00    +0.151 C 
BRANCH  10  11
ATOM     11  C   UNL     1      -0.925  12.274  -3.192  0.00  0.00    -0.028 A 
ATOM     12  C   UNL     1      -0.509  11.457  -4.254  0.00  0.00    +0.005 A 
ATOM     13  C   UNL     1       0.048  12.967  -2.454  0.00  0.00    +0.005 A 
ATOM     14  C   UNL     1       0.845  11.357  -4.584  0.00  0.00    +0.000 A 
ATOM     15  C   UNL     1       1.398  12.863  -2.786  0.00  0.00    +0.000 A 
ATOM     16  C   UNL     1       1.796  12.060  -3.853  0.00  0.00    +0.000 A 
ENDBRANCH  10  11
ENDBRANCH   1  10
TORSDOF 2
ENDMDL
MODEL 8
REMARK VINA RESULT:    -4.209     27.519     28.793
REMARK INTER + INTRA:          -4.809
REMARK INTER:                  -4.629
REMARK INTRA:                  -0.179
REMARK UNBOUND:                -0.107
REMARK  Name = 1550473
REMARK  2 active torsions:
REMARK  status: ('A' for Active; 'I' for Inactive)
REMARK    1  A    between atoms: N_1  and  C_4
REMARK    2  A    between atoms: C_4  and  C_5
REMARK                            x       y       z     vdW  Elec       q    Type
REMARK                         _______ _______ _______ _____ _____    ______ ____
ROOT
ATOM      1  N   UNL     1      -9.231  -1.733 -24.087  0.00  0.00    -0.354 N 
ATOM      2  N   UNL     1      -7.861  -1.695 -22.220  0.00  0.00    -0.372 N 
ATOM      3  N   UNL     1      -8.977  -3.632 -22.738  0.00  0.00    -0.372 N 
ATOM      4  C   UNL     1      -8.700  -2.356 -23.027  0.00  0.00    +0.166 C 
ATOM      5  H   UNL     1      -9.004  -0.756 -24.234  0.00  0.00    +0.163 HD
ATOM      6  H   UNL     1      -7.442  -2.140 -21.414  0.00  0.00    +0.159 HD
ATOM      7  H   UNL     1      -7.601  -0.732 -22.395  0.00  0.00    +0.159 HD
ATOM      8  H   UNL     1      -9.606  -4.185 -23.304  0.00  0.00    +0.159 HD
ATOM      9  H   UNL     1      -8.576  -4.092 -21.930  0.00  0.00    +0.159 HD
ENDROOT
BRANCH   1  10
ATOM     10  C   UNL     1     -10.112  -2.379 -25.058  0.00  0.00    +0.151 C 
BRANCH  10  11
ATOM     11  C   UNL     1      -9.321  -2.712 -26.293  0.00  0.00    -0.028 A 
ATOM     12  C   UNL     1      -9.182  -1.772 -27.325  0.00  0.00    +0.005 A 
ATOM     13  C   UNL     1      -8.704  -3.965 -26.435  0.00  0.00    +0.005 A 
ATOM     14  C   UNL     1      -8.423  -2.071 -28.459  0.00  0.00    +0.000 A 
ATOM     15  C   UNL     1      -7.948  -4.259 -27.570  0.00  0.00    +0.000 A 
ATOM     16  C   UNL     1      -7.805  -3.311 -28.580  0.00  0.00    +0.000 A 
ENDBRANCH  10  11
ENDBRANCH   1  10
TORSDOF 2
ENDMDL
MODEL 9
REMARK VINA RESULT:    -4.077      1.526      2.273
REMARK INTER + INTRA:          -4.662
REMARK INTER:                  -4.499
REMARK INTRA:                  -0.162
REMARK UNBOUND:                -0.107
REMARK  Name = 1550473
REMARK  2 active torsions:
REMARK  status: ('A' for Active; 'I' for Inactive)
REMARK    1  A    between atoms: N_1  and  C_4
REMARK    2  A    between atoms: C_4  and  C_5
REMARK                            x       y       z     vdW  Elec       q    Type
REMARK                         _______ _______ _______ _____ _____    ______ ____
ROOT
ATOM      1  N   UNL     1       1.484  11.250  -3.791  0.00  0.00    -0.354 N 
ATOM      2  N   UNL     1       2.895  11.103  -1.960  0.00  0.00    -0.372 N 
ATOM      3  N   UNL     1       2.502  13.161  -2.895  0.00  0.00    -0.372 N 
ATOM      4  C   UNL     1       2.285  11.842  -2.895  0.00  0.00    +0.166 C 
ATOM      5  H   UNL     1       1.385  10.242  -3.756  0.00  0.00    +0.163 HD
ATOM      6  H   UNL     1       3.502  11.522  -1.268  0.00  0.00    +0.159 HD
ATOM      7  H   UNL     1       2.757  10.102  -1.899  0.00  0.00    +0.159 HD
ATOM      8  H   UNL     1       2.076  13.774  -3.578  0.00  0.00    +0.159 HD
ATOM      9  H   UNL     1       3.115  13.598  -2.218  0.00  0.00    +0.159 HD
ENDROOT
BRANCH   1  10
ATOM     10  C   UNL     1       0.731  11.970  -4.816  0.00  0.00    +0.151 C 
BRANCH  10  11
ATOM     11  C   UNL     1      -0.676  12.186  -4.331  0.00  0.00    -0.028 A 
ATOM     12  C   UNL     1      -1.362  13.370  -4.640  0.00  0.00    +0.005 A 
ATOM     13  C   UNL     1      -1.331  11.209  -3.567  0.00  0.00    +0.005 A 
ATOM     14  C   UNL     1      -2.679  13.558  -4.215  0.00  0.00    +0.000 A 
ATOM     15  C   UNL     1      -2.646  11.401  -3.144  0.00  0.00    +0.000 A 
ATOM     16  C   UNL     1      -3.320  12.575  -3.470  0.00  0.00    +0.000 A 
ENDBRANCH  10  11
ENDBRANCH   1  10
TORSDOF 2
ENDMDL
