MODEL 1
REMARK VINA RESULT:    -4.396      0.000      0.000
REMARK INTER + INTRA:          -5.035
REMARK INTER:                  -4.910
REMARK INTRA:                  -0.125
REMARK UNBOUND:                -0.125
REMARK  Name = 1550473
REMARK  2 active torsions:
REMARK  status: ('A' for Active; 'I' for Inactive)
REMARK    1  A    between atoms: N_1  and  C_4
REMARK    2  A    between atoms: C_4  and  C_5
REMARK                            x       y       z     vdW  Elec       q    Type
REMARK                         _______ _______ _______ _____ _____    ______ ____
ROOT
ATOM      1  N   UNL     1      16.178 -12.458 -33.352  0.00  0.00    -0.354 N 
ATOM      2  N   UNL     1      16.962 -11.006 -31.727  0.00  0.00    -0.372 N 
ATOM      3  N   UNL     1      17.128 -13.266 -31.368  0.00  0.00    -0.372 N 
ATOM      4  C   UNL     1      16.751 -12.256 -32.158  0.00  0.00    +0.166 C 
ATOM      5  H   UNL     1      15.887 -11.650 -33.890  0.00  0.00    +0.163 HD
ATOM      6  H   UNL     1      17.395 -10.822 -30.832  0.00  0.00    +0.159 HD
ATOM      7  H   UNL     1      16.712 -10.200 -32.287  0.00  0.00    +0.159 HD
ATOM      8  H   UNL     1      16.991 -14.233 -31.633  0.00  0.00    +0.159 HD
ATOM      9  H   UNL     1      17.553 -13.102 -30.464  0.00  0.00    +0.159 HD
ENDROOT
BRANCH   1  10
ATOM     10  C   UNL     1      15.953 -13.779 -33.937  0.00  0.00    +0.151 C 
BRANCH  10  11
ATOM     11  C   UNL     1      15.659 -13.622 -35.404  0.00  0.00    -0.028 A 
ATOM     12  C   UNL     1      15.461 -14.750 -36.214  0.00  0.00    +0.005 A 
ATOM     13  C   UNL     1      15.570 -12.349 -35.987  0.00  0.00    +0.005 A 
ATOM     14  C   UNL     1      15.158 -14.604 -37.570  0.00  0.00    +0.000 A 
ATOM     15  C   UNL     1      15.268 -12.208 -37.342  0.00  0.00    +0.000 A 
ATOM     16  C   UNL     1      15.060 -13.336 -38.132  0.00  0.00    +0.000 A 
ENDBRANCH  10  11
ENDBRANCH   1  10
TORSDOF 2
ENDMDL
MODEL 2
REMARK VINA RESULT:    -4.362     21.335     22.101
REMARK INTER + INTRA:          -4.996
REMARK INTER:                  -4.827
REMARK INTRA:                  -0.169
REMARK UNBOUND:                -0.125
REMARK  Name = 1550473
REMARK  2 active torsions:
REMARK  status: ('A' for Active; 'I' for Inactive)
REMARK    1  A    between atoms: N_1  and  C_4
REMARK    2  A    between atoms: C_4  and  C_5
REMARK                            x       y       z     vdW  Elec       q    Type
REMARK                         _______ _______ _______ _____ _____    ______ ____
ROOT
ATOM      1  N   UNL     1       2.843 -14.687 -17.357  0.00  0.00    -0.354 N 
ATOM      2  N   UNL     1       2.590 -13.275 -19.175  0.00  0.00    -0.372 N 
ATOM      3  N   UNL     1       1.100 -14.997 -18.892  0.00  0.00    -0.372 N 
ATOM      4  C   UNL     1       2.177 -14.331 -18.463  0.00  0.00    +0.166 C 
ATOM      5  H   UNL     1       3.670 -14.159 -17.101  0.00  0.00    +0.163 HD
ATOM      6  H   UNL     1       2.106 -12.981 -20.013  0.00  0.00    +0.159 HD
ATOM      7  H   UNL     1       3.390 -12.722 -18.893  0.00  0.00    +0.159 HD
ATOM      8  H   UNL     1       0.741 -15.806 -18.403  0.00  0.00    +0.159 HD
ATOM      9  H   UNL     1       0.609 -14.724 -19.734  0.00  0.00    +0.159 HD
ENDROOT
BRANCH   1  10
ATOM     10  C   UNL     1       2.444 -15.787 -16.481  0.00  0.00    +0.151 C 
BRANCH  10  11
ATOM     11  C   UNL     1       3.400 -16.933 -16.666  0.00  0.00    -0.028 A 
ATOM     12  C   UNL     1       2.944 -18.172 -17.141  0.00  0.00    +0.005 A 
ATOM     13  C   UNL     1       4.765 -16.786 -16.373  0.00  0.00    +0.005 A 
ATOM     14  C   UNL     1       3.836 -19.227 -17.342  0.00  0.00    +0.000 A 
ATOM     15  C   UNL     1       5.653 -17.843 -16.574  0.00  0.00    +0.000 A 
ATOM     16  C   UNL     1       5.189 -19.062 -17.061  0.00  0.00    +0.000 A 
ENDBRANCH  10  11
ENDBRANCH   1  10
TORSDOF 2
ENDMDL
MODEL 3
REMARK VINA RESULT:    -4.319      1.422      2.377
REMARK INTER + INTRA:          -4.949
REMARK INTER:                  -4.807
REMARK INTRA:                  -0.142
REMARK UNBOUND:                -0.125
REMARK  Name = 1550473
REMARK  2 active torsions:
REMARK  status: ('A' for Active; 'I' for Inactive)
REMARK    1  A    between atoms: N_1  and  C_4
REMARK    2  A    between atoms: C_4  and  C_5
REMARK                            x       y       z     vdW  Elec       q    Type
REMARK                         _______ _______ _______ _____ _____    ______ ____
ROOT
ATOM      1  N   UNL     1      16.520 -13.147 -35.073  0.00  0.00    -0.354 N 
ATOM      2  N   UNL     1      16.108 -11.709 -33.304  0.00  0.00    -0.372 N 
ATOM      3  N   UNL     1      15.955 -13.972 -32.954  0.00  0.00    -0.372 N 
ATOM      4  C   UNL     1      16.196 -12.955 -33.788  0.00  0.00    +0.166 C 
ATOM      5  H   UNL     1      16.661 -12.333 -35.661  0.00  0.00    +0.163 HD
ATOM      6  H   UNL     1      15.869 -11.534 -32.338  0.00  0.00    +0.159 HD
ATOM      7  H   UNL     1      16.294 -10.899 -33.882  0.00  0.00    +0.159 HD
ATOM      8  H   UNL     1      16.000 -14.935 -33.258  0.00  0.00    +0.159 HD
ATOM      9  H   UNL     1      15.704 -13.816 -31.986  0.00  0.00    +0.159 HD
ENDROOT
BRANCH   1  10
ATOM     10  C   UNL     1      16.695 -14.463 -35.685  0.00  0.00    +0.151 C 
BRANCH  10  11
ATOM     11  C   UNL     1      15.762 -14.588 -36.857  0.00  0.00    -0.028 A 
ATOM     12  C   UNL     1      15.443 -13.466 -37.636  0.00  0.00    +0.005 A 
ATOM     13  C   UNL     1      15.197 -15.827 -37.198  0.00  0.00    +0.005 A 
ATOM     14  C   UNL     1      14.600 -13.587 -38.744  0.00  0.00    +0.000 A 
ATOM     15  C   UNL     1      14.355 -15.943 -38.304  0.00  0.00    +0.000 A 
ATOM     16  C   UNL     1      14.059 -14.824 -39.078  0.00  0.00    +0.000 A 
ENDBRANCH  10  11
ENDBRANCH   1  10
TORSDOF 2
ENDMDL
MODEL 4
REMARK VINA RESULT:    -4.246     59.733     61.826
REMARK INTER + INTRA:          -4.867
REMARK INTER:                  -4.729
REMARK INTRA:                  -0.138
REMARK UNBOUND:                -0.125
REMARK  Name = 1550473
REMARK  2 active torsions:
REMARK  status: ('A' for Active; 'I' for Inactive)
REMARK    1  A    between atoms: N_1  and  C_4
REMARK    2  A    between atoms: C_4  and  C_5
REMARK                            x       y       z     vdW  Elec       q    Type
REMARK                         _______ _______ _______ _____ _____    ______ ____
ROOT
ATOM      1  N   UNL     1      19.952  14.292  19.712  0.00  0.00    -0.354 N 
ATOM      2  N   UNL     1      21.379  12.994  18.430  0.00  0.00    -0.372 N 
ATOM      3  N   UNL     1      19.689  14.145  17.387  0.00  0.00    -0.372 N 
ATOM      4  C   UNL     1      20.329  13.820  18.516  0.00  0.00    +0.166 C 
ATOM      5  H   UNL     1      20.460  13.984  20.533  0.00  0.00    +0.163 HD
ATOM      6  H   UNL     1      21.689  12.624  17.541  0.00  0.00    +0.159 HD
ATOM      7  H   UNL     1      21.913  12.724  19.247  0.00  0.00    +0.159 HD
ATOM      8  H   UNL     1      18.886  14.759  17.385  0.00  0.00    +0.159 HD
ATOM      9  H   UNL     1      19.977  13.776  16.490  0.00  0.00    +0.159 HD
ENDROOT
BRANCH   1  10
ATOM     10  C   UNL     1      18.856  15.239  19.908  0.00  0.00    +0.151 C 
BRANCH  10  11
ATOM     11  C   UNL     1      17.890  14.672  20.911  0.00  0.00    -0.028 A 
ATOM     12  C   UNL     1      16.924  15.492  21.512  0.00  0.00    +0.005 A 
ATOM     13  C   UNL     1      17.933  13.313  21.262  0.00  0.00    +0.005 A 
ATOM     14  C   UNL     1      16.007  14.959  22.422  0.00  0.00    +0.000 A 
ATOM     15  C   UNL     1      17.017  12.785  22.171  0.00  0.00    +0.000 A 
ATOM     16  C   UNL     1      16.053  13.608  22.749  0.00  0.00    +0.000 A 
ENDBRANCH  10  11
ENDBRANCH   1  10
TORSDOF 2
ENDMDL
MODEL 5
REMARK VINA RESULT:    -4.246     66.252     67.861
REMARK INTER + INTRA:          -4.867
REMARK INTER:                  -4.730
REMARK INTRA:                  -0.137
REMARK UNBOUND:                -0.125
REMARK  Name = 1550473
REMARK  2 active torsions:
REMARK  status: ('A' for Active; 'I' for Inactive)
REMARK    1  A    between atoms: N_1  and  C_4
REMARK    2  A    between atoms: C_4  and  C_5
REMARK                            x       y       z     vdW  Elec       q    Type
REMARK                         _______ _______ _______ _____ _____    ______ ____
ROOT
ATOM      1  N   UNL     1     -10.425  17.240  18.631  0.00  0.00    -0.354 N 
ATOM      2  N   UNL     1      -8.991  19.020  18.261  0.00  0.00    -0.372 N 
ATOM      3  N   UNL     1      -8.126  16.896  18.336  0.00  0.00    -0.372 N 
ATOM      4  C   UNL     1      -9.188  17.705  18.412  0.00  0.00    +0.166 C 
ATOM      5  H   UNL     1     -11.184  17.908  18.708  0.00  0.00    +0.163 HD
ATOM      6  H   UNL     1      -8.069  19.400  18.091  0.00  0.00    +0.159 HD
ATOM      7  H   UNL     1      -9.757  19.681  18.292  0.00  0.00    +0.159 HD
ATOM      8  H   UNL     1      -8.207  15.894  18.447  0.00  0.00    +0.159 HD
ATOM      9  H   UNL     1      -7.194  17.258  18.178  0.00  0.00    +0.159 HD
ENDROOT
BRANCH   1  10
ATOM     10  C   UNL     1     -10.756  15.822  18.756  0.00  0.00    +0.151 C 
BRANCH  10  11
ATOM     11  C   UNL     1     -11.495  15.601  20.047  0.00  0.00    -0.028 A 
ATOM     12  C   UNL     1     -12.476  14.603  20.144  0.00  0.00    +0.005 A 
ATOM     13  C   UNL     1     -11.214  16.382  21.178  0.00  0.00    +0.005 A 
ATOM     14  C   UNL     1     -13.141  14.378  21.351  0.00  0.00    +0.000 A 
ATOM     15  C   UNL     1     -11.881  16.155  22.382  0.00  0.00    +0.000 A 
ATOM     16  C   UNL     1     -12.843  15.151  22.469  0.00  0.00    +0.000 A 
ENDBRANCH  10  11
ENDBRANCH   1  10
TORSDOF 2
ENDMDL
MODEL 6
REMARK VINA RESULT:    -4.207     46.255     48.514
REMARK INTER + INTRA:          -4.823
REMARK INTER:                  -4.699
REMARK INTRA:                  -0.124
REMARK UNBOUND:                -0.125
REMARK  Name = 1550473
REMARK  2 active torsions:
REMARK  status: ('A' for Active; 'I' for Inactive)
REMARK    1  A    between atoms: N_1  and  C_4
REMARK    2  A    between atoms: C_4  and  C_5
REMARK                            x       y       z     vdW  Elec       q    Type
REMARK                         _______ _______ _______ _____ _____    ______ ____
ROOT
ATOM      1  N   UNL     1      -7.751  -2.904   4.122  0.00  0.00    -0.354 N 
ATOM      2  N   UNL     1      -7.958  -3.101   1.823  0.00  0.00    -0.372 N 
ATOM      3  N   UNL     1      -6.606  -1.456   2.678  0.00  0.00    -0.372 N 
ATOM      4  C   UNL     1      -7.436  -2.483   2.890  0.00  0.00    +0.166 C 
ATOM      5  H   UNL     1      -8.410  -3.669   4.215  0.00  0.00    +0.163 HD
ATOM      6  H   UNL     1      -7.736  -2.808   0.881  0.00  0.00    +0.159 HD
ATOM      7  H   UNL     1      -8.580  -3.895   1.919  0.00  0.00    +0.159 HD
ATOM      8  H   UNL     1      -6.183  -0.944   3.441  0.00  0.00    +0.159 HD
ATOM      9  H   UNL     1      -6.380  -1.141   1.743  0.00  0.00    +0.159 HD
ENDROOT
BRANCH   1  10
ATOM     10  C   UNL     1      -7.195  -2.335   5.348  0.00  0.00    +0.151 C 
BRANCH  10  11
ATOM     11  C   UNL     1      -8.066  -2.726   6.510  0.00  0.00    -0.028 A 
ATOM     12  C   UNL     1      -7.856  -2.163   7.778  0.00  0.00    +0.005 A 
ATOM     13  C   UNL     1      -9.106  -3.654   6.349  0.00  0.00    +0.005 A 
ATOM     14  C   UNL     1      -8.683  -2.504   8.851  0.00  0.00    +0.000 A 
ATOM     15  C   UNL     1      -9.930  -3.991   7.423  0.00  0.00    +0.000 A 
ATOM     16  C   UNL     1      -9.719  -3.414   8.673  0.00  0.00    +0.000 A 
ENDBRANCH  10  11
ENDBRANCH   1  10
TORSDOF 2
ENDMDL
MODEL 7
REMARK VINA RESULT:    -4.167     22.159     23.541
REMARK INTER + INTRA:          -4.779
REMARK INTER:                  -4.606
REMARK INTRA:                  -0.172
REMARK UNBOUND:                -0.125
REMARK  Name = 1550473
REMARK  2 active torsions:
REMARK  status: ('A' for Active; 'I' for Inactive)
REMARK    1  A    between atoms: N_1  and  C_4
REMARK    2  A    between atoms: C_4  and  C_5
REMARK                            x       y       z     vdW  Elec       q    Type
REMARK                         _______ _______ _______ _____ _____    ______ ____
ROOT
ATOM      1  N   UNL     1       1.656 -13.247 -17.211  0.00  0.00    -0.354 N 
ATOM      2  N   UNL     1       3.787 -14.135 -17.403  0.00  0.00    -0.372 N 
ATOM      3  N   UNL     1       2.719 -13.395 -19.294  0.00  0.00    -0.372 N 
ATOM      4  C   UNL     1       2.706 -13.586 -17.971  0.00  0.00    +0.166 C 
ATOM      5  H   UNL     1       1.696 -13.446 -16.218  0.00  0.00    +0.163 HD
ATOM      6  H   UNL     1       4.595 -14.398 -17.950  0.00  0.00    +0.159 HD
ATOM      7  H   UNL     1       3.842 -14.290 -16.404  0.00  0.00    +0.159 HD
ATOM      8  H   UNL     1       1.932 -12.990 -19.785  0.00  0.00    +0.159 HD
ATOM      9  H   UNL     1       3.514 -13.662 -19.861  0.00  0.00    +0.159 HD
ENDROOT
BRANCH   1  10
ATOM     10  C   UNL     1       0.453 -12.594 -17.723  0.00  0.00    +0.151 C 
BRANCH  10  11
ATOM     11  C   UNL     1      -0.690 -13.571 -17.685  0.00  0.00    -0.028 A 
ATOM     12  C   UNL     1      -0.860 -14.509 -18.714  0.00  0.00    +0.005 A 
ATOM     13  C   UNL     1      -1.604 -13.567 -16.620  0.00  0.00    +0.005 A 
ATOM     14  C   UNL     1      -1.903 -15.436 -18.663  0.00  0.00    +0.000 A 
ATOM     15  C   UNL     1      -2.645 -14.494 -16.574  0.00  0.00    +0.000 A 
ATOM     16  C   UNL     1      -2.793 -15.430 -17.594  0.00  0.00    +0.000 A 
ENDBRANCH  10  11
ENDBRANCH   1  10
TORSDOF 2
ENDMDL
MODEL 8
REMARK VINA RESULT:    -4.100     50.966     52.374
REMARK INTER + INTRA:          -4.704
REMARK INTER:                  -4.569
REMARK INTRA:                  -0.135
REMARK UNBOUND:                -0.125
REMARK  Name = 1550473
REMARK  2 active torsions:
REMARK  status: ('A' for Active; 'I' for Inactive)
REMARK    1  A    between atoms: N_1  and  C_4
REMARK    2  A    between atoms: C_4  and  C_5
REMARK                            x       y       z     vdW  Elec       q    Type
REMARK                         _______ _______ _______ _____ _____    ______ ____
ROOT
ATOM      1  N   UNL     1      -7.485  -2.437  11.706  0.00  0.00    -0.354 N 
ATOM      2  N   UNL     1      -5.395  -2.390  12.704  0.00  0.00    -0.372 N 
ATOM      3  N   UNL     1      -7.080  -3.578  13.712  0.00  0.00    -0.372 N 
ATOM      4  C   UNL     1      -6.668  -2.803  12.703  0.00  0.00    +0.166 C 
ATOM      5  H   UNL     1      -7.120  -1.823  10.986  0.00  0.00    +0.163 HD
ATOM      6  H   UNL     1      -4.755  -2.654  13.441  0.00  0.00    +0.159 HD
ATOM      7  H   UNL     1      -5.021  -1.815  11.959  0.00  0.00    +0.159 HD
ATOM      8  H   UNL     1      -8.030  -3.918  13.773  0.00  0.00    +0.159 HD
ATOM      9  H   UNL     1      -6.457  -3.843  14.465  0.00  0.00    +0.159 HD
ENDROOT
BRANCH   1  10
ATOM     10  C   UNL     1      -8.874  -2.876  11.583  0.00  0.00    +0.151 C 
BRANCH  10  11
ATOM     11  C   UNL     1      -9.173  -3.158  10.136  0.00  0.00    -0.028 A 
ATOM     12  C   UNL     1      -8.246  -2.822   9.139  0.00  0.00    +0.005 A 
ATOM     13  C   UNL     1     -10.379  -3.767   9.757  0.00  0.00    +0.005 A 
ATOM     14  C   UNL     1      -8.511  -3.111   7.798  0.00  0.00    +0.000 A 
ATOM     15  C   UNL     1     -10.640  -4.053   8.417  0.00  0.00    +0.000 A 
ATOM     16  C   UNL     1      -9.705  -3.727   7.438  0.00  0.00    +0.000 A 
ENDBRANCH  10  11
ENDBRANCH   1  10
TORSDOF 2
ENDMDL
MODEL 9
REMARK VINA RESULT:    -4.072     70.779     72.083
REMARK INTER + INTRA:          -4.673
REMARK INTER:                  -4.578
REMARK INTRA:                  -0.095
REMARK UNBOUND:                -0.125
REMARK  Name = 1550473
REMARK  2 active torsions:
REMARK  status: ('A' for Active; 'I' for Inactive)
REMARK    1  A    between atoms: N_1  and  C_4
REMARK    2  A    between atoms: C_4  and  C_5
REMARK                            x       y       z     vdW  Elec       q    Type
REMARK                         _______ _______ _______ _____ _____    ______ ____
ROOT
ATOM      1  N   UNL     1       2.700   5.396  34.858  0.00  0.00    -0.354 N 
ATOM      2  N   UNL     1       2.032   6.855  36.528  0.00  0.00    -0.372 N 
ATOM      3  N   UNL     1       3.286   7.664  34.784  0.00  0.00    -0.372 N 
ATOM      4  C   UNL     1       2.679   6.631  35.378  0.00  0.00    +0.166 C 
ATOM      5  H   UNL     1       2.246   4.649  35.372  0.00  0.00    +0.163 HD
ATOM      6  H   UNL     1       1.996   7.777  36.942  0.00  0.00    +0.159 HD
ATOM      7  H   UNL     1       1.540   6.117  37.016  0.00  0.00    +0.159 HD
ATOM      8  H   UNL     1       3.796   7.559  33.917  0.00  0.00    +0.159 HD
ATOM      9  H   UNL     1       3.271   8.591  35.189  0.00  0.00    +0.159 HD
ENDROOT
BRANCH   1  10
ATOM     10  C   UNL     1       3.330   5.056  33.584  0.00  0.00    +0.151 C 
BRANCH  10  11
ATOM     11  C   UNL     1       2.960   3.646  33.214  0.00  0.00    -0.028 A 
ATOM     12  C   UNL     1       3.466   2.562  33.946  0.00  0.00    +0.005 A 
ATOM     13  C   UNL     1       2.100   3.387  32.136  0.00  0.00    +0.005 A 
ATOM     14  C   UNL     1       3.099   1.253  33.622  0.00  0.00    +0.000 A 
ATOM     15  C   UNL     1       1.736   2.080  31.814  0.00  0.00    +0.000 A 
ATOM     16  C   UNL     1       2.234   1.013  32.559  0.00  0.00    +0.000 A 
ENDBRANCH  10  11
ENDBRANCH   1  10
TORSDOF 2
ENDMDL
