MODEL 1
REMARK VINA RESULT:    -5.549      0.000      0.000
REMARK INTER + INTRA:          -6.338
REMARK INTER:                  -6.198
REMARK INTRA:                  -0.140
REMARK UNBOUND:                -0.140
REMARK  Name = 1550473
REMARK  2 active torsions:
REMARK  status: ('A' for Active; 'I' for Inactive)
REMARK    1  A    between atoms: N_1  and  C_4
REMARK    2  A    between atoms: C_4  and  C_5
REMARK                            x       y       z     vdW  Elec       q    Type
REMARK                         _______ _______ _______ _____ _____    ______ ____
ROOT
ATOM      1  N   UNL     1      11.943   3.327  16.782  0.00  0.00    -0.354 N 
ATOM      2  N   UNL     1      10.183   2.645  15.439  0.00  0.00    -0.372 N 
ATOM      3  N   UNL     1      11.575   1.056  16.335  0.00  0.00    -0.372 N 
ATOM      4  C   UNL     1      11.247   2.345  16.195  0.00  0.00    +0.166 C 
ATOM      5  H   UNL     1      11.661   4.286  16.612  0.00  0.00    +0.163 HD
ATOM      6  H   UNL     1       9.637   1.925  14.987  0.00  0.00    +0.159 HD
ATOM      7  H   UNL     1       9.876   3.601  15.308  0.00  0.00    +0.159 HD
ATOM      8  H   UNL     1      12.370   0.763  16.888  0.00  0.00    +0.159 HD
ATOM      9  H   UNL     1      11.047   0.322  15.881  0.00  0.00    +0.159 HD
ENDROOT
BRANCH   1  10
ATOM     10  C   UNL     1      13.084   3.104  17.668  0.00  0.00    +0.151 C 
BRANCH  10  11
ATOM     11  C   UNL     1      14.214   4.005  17.250  0.00  0.00    -0.028 A 
ATOM     12  C   UNL     1      14.294   4.483  15.935  0.00  0.00    +0.005 A 
ATOM     13  C   UNL     1      15.204   4.388  18.168  0.00  0.00    +0.005 A 
ATOM     14  C   UNL     1      15.326   5.345  15.554  0.00  0.00    +0.000 A 
ATOM     15  C   UNL     1      16.234   5.247  17.784  0.00  0.00    +0.000 A 
ATOM     16  C   UNL     1      16.293   5.727  16.478  0.00  0.00    +0.000 A 
ENDBRANCH  10  11
ENDBRANCH   1  10
TORSDOF 2
ENDMDL
MODEL 2
REMARK VINA RESULT:    -5.141      1.327      2.190
REMARK INTER + INTRA:          -5.882
REMARK INTER:                  -5.728
REMARK INTRA:                  -0.155
REMARK UNBOUND:                -0.140
REMARK  Name = 1550473
REMARK  2 active torsions:
REMARK  status: ('A' for Active; 'I' for Inactive)
REMARK    1  A    between atoms: N_1  and  C_4
REMARK    2  A    between atoms: C_4  and  C_5
REMARK                            x       y       z     vdW  Elec       q    Type
REMARK                         _______ _______ _______ _____ _____    ______ ____
ROOT
ATOM      1  N   UNL     1      12.349   3.343  16.530  0.00  0.00    -0.354 N 
ATOM      2  N   UNL     1      10.134   2.832  16.974  0.00  0.00    -0.372 N 
ATOM      3  N   UNL     1      11.553   1.149  16.326  0.00  0.00    -0.372 N 
ATOM      4  C   UNL     1      11.361   2.442  16.606  0.00  0.00    +0.166 C 
ATOM      5  H   UNL     1      12.132   4.314  16.725  0.00  0.00    +0.163 HD
ATOM      6  H   UNL     1       9.370   2.174  17.044  0.00  0.00    +0.159 HD
ATOM      7  H   UNL     1       9.931   3.795  17.213  0.00  0.00    +0.159 HD
ATOM      8  H   UNL     1      12.454   0.791  16.037  0.00  0.00    +0.159 HD
ATOM      9  H   UNL     1      10.797   0.477  16.379  0.00  0.00    +0.159 HD
ENDROOT
BRANCH   1  10
ATOM     10  C   UNL     1      13.733   3.013  16.191  0.00  0.00    +0.151 C 
BRANCH  10  11
ATOM     11  C   UNL     1      14.616   3.338  17.364  0.00  0.00    -0.028 A 
ATOM     12  C   UNL     1      14.891   2.368  18.338  0.00  0.00    +0.005 A 
ATOM     13  C   UNL     1      15.186   4.613  17.503  0.00  0.00    +0.005 A 
ATOM     14  C   UNL     1      15.736   2.660  19.412  0.00  0.00    +0.000 A 
ATOM     15  C   UNL     1      16.028   4.901  18.577  0.00  0.00    +0.000 A 
ATOM     16  C   UNL     1      16.305   3.924  19.530  0.00  0.00    +0.000 A 
ENDBRANCH  10  11
ENDBRANCH   1  10
TORSDOF 2
ENDMDL
MODEL 3
REMARK VINA RESULT:    -4.936      3.867      4.758
REMARK INTER + INTRA:          -5.653
REMARK INTER:                  -5.529
REMARK INTRA:                  -0.125
REMARK UNBOUND:                -0.140
REMARK  Name = 1550473
REMARK  2 active torsions:
REMARK  status: ('A' for Active; 'I' for Inactive)
REMARK    1  A    between atoms: N_1  and  C_4
REMARK    2  A    between atoms: C_4  and  C_5
REMARK                            x       y       z     vdW  Elec       q    Type
REMARK                         _______ _______ _______ _____ _____    ______ ____
ROOT
ATOM      1  N   UNL     1      16.970   3.195  14.420  0.00  0.00    -0.354 N 
ATOM      2  N   UNL     1      18.716   3.030  12.906  0.00  0.00    -0.372 N 
ATOM      3  N   UNL     1      16.932   1.600  12.703  0.00  0.00    -0.372 N 
ATOM      4  C   UNL     1      17.526   2.607  13.352  0.00  0.00    +0.166 C 
ATOM      5  H   UNL     1      17.485   3.933  14.886  0.00  0.00    +0.163 HD
ATOM      6  H   UNL     1      19.158   2.608  12.101  0.00  0.00    +0.159 HD
ATOM      7  H   UNL     1      19.207   3.798  13.346  0.00  0.00    +0.159 HD
ATOM      8  H   UNL     1      16.037   1.231  12.993  0.00  0.00    +0.159 HD
ATOM      9  H   UNL     1      17.365   1.157  11.903  0.00  0.00    +0.159 HD
ENDROOT
BRANCH   1  10
ATOM     10  C   UNL     1      15.655   2.846  14.953  0.00  0.00    +0.151 C 
BRANCH  10  11
ATOM     11  C   UNL     1      15.516   3.423  16.335  0.00  0.00    -0.028 A 
ATOM     12  C   UNL     1      16.502   4.274  16.854  0.00  0.00    +0.005 A 
ATOM     13  C   UNL     1      14.397   3.126  17.128  0.00  0.00    +0.005 A 
ATOM     14  C   UNL     1      16.359   4.834  18.126  0.00  0.00    +0.000 A 
ATOM     15  C   UNL     1      14.258   3.686  18.398  0.00  0.00    +0.000 A 
ATOM     16  C   UNL     1      15.238   4.542  18.895  0.00  0.00    +0.000 A 
ENDBRANCH  10  11
ENDBRANCH   1  10
TORSDOF 2
ENDMDL
MODEL 4
REMARK VINA RESULT:    -4.725     23.527     24.608
REMARK INTER + INTRA:          -5.418
REMARK INTER:                  -5.295
REMARK INTRA:                  -0.123
REMARK UNBOUND:                -0.140
REMARK  Name = 1550473
REMARK  2 active torsions:
REMARK  status: ('A' for Active; 'I' for Inactive)
REMARK    1  A    between atoms: N_1  and  C_4
REMARK    2  A    between atoms: C_4  and  C_5
REMARK                            x       y       z     vdW  Elec       q    Type
REMARK                         _______ _______ _______ _____ _____    ______ ____
ROOT
ATOM      1  N   UNL     1      -7.207   2.611   4.924  0.00  0.00    -0.354 N 
ATOM      2  N   UNL     1      -6.857   2.190   7.175  0.00  0.00    -0.372 N 
ATOM      3  N   UNL     1      -8.877   3.051   6.508  0.00  0.00    -0.372 N 
ATOM      4  C   UNL     1      -7.652   2.621   6.188  0.00  0.00    +0.166 C 
ATOM      5  H   UNL     1      -6.257   2.302   4.751  0.00  0.00    +0.163 HD
ATOM      6  H   UNL     1      -7.166   2.183   8.137  0.00  0.00    +0.159 HD
ATOM      7  H   UNL     1      -5.925   1.839   6.993  0.00  0.00    +0.159 HD
ATOM      8  H   UNL     1      -9.523   3.394   5.811  0.00  0.00    +0.159 HD
ATOM      9  H   UNL     1      -9.200   3.062   7.467  0.00  0.00    +0.159 HD
ENDROOT
BRANCH   1  10
ATOM     10  C   UNL     1      -8.012   3.009   3.771  0.00  0.00    +0.151 C 
BRANCH  10  11
ATOM     11  C   UNL     1      -7.096   3.419   2.651  0.00  0.00    -0.028 A 
ATOM     12  C   UNL     1      -7.574   4.206   1.592  0.00  0.00    +0.005 A 
ATOM     13  C   UNL     1      -5.748   3.030   2.645  0.00  0.00    +0.005 A 
ATOM     14  C   UNL     1      -6.716   4.613   0.567  0.00  0.00    +0.000 A 
ATOM     15  C   UNL     1      -4.895   3.437   1.619  0.00  0.00    +0.000 A 
ATOM     16  C   UNL     1      -5.379   4.231   0.582  0.00  0.00    +0.000 A 
ENDBRANCH  10  11
ENDBRANCH   1  10
TORSDOF 2
ENDMDL
MODEL 5
REMARK VINA RESULT:    -4.611      4.482      5.376
REMARK INTER + INTRA:          -5.290
REMARK INTER:                  -5.149
REMARK INTRA:                  -0.140
REMARK UNBOUND:                -0.140
REMARK  Name = 1550473
REMARK  2 active torsions:
REMARK  status: ('A' for Active; 'I' for Inactive)
REMARK    1  A    between atoms: N_1  and  C_4
REMARK    2  A    between atoms: C_4  and  C_5
REMARK                            x       y       z     vdW  Elec       q    Type
REMARK                         _______ _______ _______ _____ _____    ______ ____
ROOT
ATOM      1  N   UNL     1      18.323   3.437  13.038  0.00  0.00    -0.354 N 
ATOM      2  N   UNL     1      17.893   2.763  10.864  0.00  0.00    -0.372 N 
ATOM      3  N   UNL     1      17.051   1.519  12.599  0.00  0.00    -0.372 N 
ATOM      4  C   UNL     1      17.757   2.575  12.183  0.00  0.00    +0.166 C 
ATOM      5  H   UNL     1      18.871   4.201  12.659  0.00  0.00    +0.163 HD
ATOM      6  H   UNL     1      17.474   2.131  10.195  0.00  0.00    +0.159 HD
ATOM      7  H   UNL     1      18.403   3.553  10.488  0.00  0.00    +0.159 HD
ATOM      8  H   UNL     1      16.916   1.318  13.580  0.00  0.00    +0.159 HD
ATOM      9  H   UNL     1      16.634   0.869  11.944  0.00  0.00    +0.159 HD
ENDROOT
BRANCH   1  10
ATOM     10  C   UNL     1      18.190   3.353  14.491  0.00  0.00    +0.151 C 
BRANCH  10  11
ATOM     11  C   UNL     1      16.976   4.130  14.919  0.00  0.00    -0.028 A 
ATOM     12  C   UNL     1      15.819   3.462  15.348  0.00  0.00    +0.005 A 
ATOM     13  C   UNL     1      16.977   5.533  14.903  0.00  0.00    +0.005 A 
ATOM     14  C   UNL     1      14.701   4.183  15.775  0.00  0.00    +0.000 A 
ATOM     15  C   UNL     1      15.858   6.249  15.329  0.00  0.00    +0.000 A 
ATOM     16  C   UNL     1      14.721   5.574  15.767  0.00  0.00    +0.000 A 
ENDBRANCH  10  11
ENDBRANCH   1  10
TORSDOF 2
ENDMDL
MODEL 6
REMARK VINA RESULT:    -4.456     22.806     24.370
REMARK INTER + INTRA:          -5.117
REMARK INTER:                  -4.942
REMARK INTRA:                  -0.175
REMARK UNBOUND:                -0.140
REMARK  Name = 1550473
REMARK  2 active torsions:
REMARK  status: ('A' for Active; 'I' for Inactive)
REMARK    1  A    between atoms: N_1  and  C_4
REMARK    2  A    between atoms: C_4  and  C_5
REMARK                            x       y       z     vdW  Elec       q    Type
REMARK                         _______ _______ _______ _____ _____    ______ ____
ROOT
ATOM      1  N   UNL     1      -7.451   4.750   5.010  0.00  0.00    -0.354 N 
ATOM      2  N   UNL     1      -6.778   6.548   6.306  0.00  0.00    -0.372 N 
ATOM      3  N   UNL     1      -5.326   4.799   5.996  0.00  0.00    -0.372 N 
ATOM      4  C   UNL     1      -6.520   5.353   5.763  0.00  0.00    +0.166 C 
ATOM      5  H   UNL     1      -8.348   5.208   4.896  0.00  0.00    +0.163 HD
ATOM      6  H   UNL     1      -6.094   7.029   6.875  0.00  0.00    +0.159 HD
ATOM      7  H   UNL     1      -7.658   7.025   6.152  0.00  0.00    +0.159 HD
ATOM      8  H   UNL     1      -5.071   3.896   5.620  0.00  0.00    +0.159 HD
ATOM      9  H   UNL     1      -4.632   5.259   6.573  0.00  0.00    +0.159 HD
ENDROOT
BRANCH   1  10
ATOM     10  C   UNL     1      -7.251   3.472   4.329  0.00  0.00    +0.151 C 
BRANCH  10  11
ATOM     11  C   UNL     1      -6.766   3.732   2.930  0.00  0.00    -0.028 A 
ATOM     12  C   UNL     1      -7.596   4.368   1.995  0.00  0.00    +0.005 A 
ATOM     13  C   UNL     1      -5.474   3.350   2.534  0.00  0.00    +0.005 A 
ATOM     14  C   UNL     1      -7.135   4.636   0.704  0.00  0.00    +0.000 A 
ATOM     15  C   UNL     1      -5.018   3.619   1.244  0.00  0.00    +0.000 A 
ATOM     16  C   UNL     1      -5.848   4.264   0.330  0.00  0.00    +0.000 A 
ENDBRANCH  10  11
ENDBRANCH   1  10
TORSDOF 2
ENDMDL
MODEL 7
REMARK VINA RESULT:    -4.422      3.981      5.092
REMARK INTER + INTRA:          -5.079
REMARK INTER:                  -4.944
REMARK INTRA:                  -0.135
REMARK UNBOUND:                -0.140
REMARK  Name = 1550473
REMARK  2 active torsions:
REMARK  status: ('A' for Active; 'I' for Inactive)
REMARK    1  A    between atoms: N_1  and  C_4
REMARK    2  A    between atoms: C_4  and  C_5
REMARK                            x       y       z     vdW  Elec       q    Type
REMARK                         _______ _______ _______ _____ _____    ______ ____
ROOT
ATOM      1  N   UNL     1      17.274   3.972  14.507  0.00  0.00    -0.354 N 
ATOM      2  N   UNL     1      18.084   2.590  12.834  0.00  0.00    -0.372 N 
ATOM      3  N   UNL     1      19.539   3.380  14.422  0.00  0.00    -0.372 N 
ATOM      4  C   UNL     1      18.296   3.324  13.933  0.00  0.00    +0.166 C 
ATOM      5  H   UNL     1      16.361   3.914  14.070  0.00  0.00    +0.163 HD
ATOM      6  H   UNL     1      18.835   2.087  12.381  0.00  0.00    +0.159 HD
ATOM      7  H   UNL     1      17.162   2.496  12.426  0.00  0.00    +0.159 HD
ATOM      8  H   UNL     1      19.767   3.921  15.245  0.00  0.00    +0.159 HD
ATOM      9  H   UNL     1      20.307   2.893  13.976  0.00  0.00    +0.159 HD
ENDROOT
BRANCH   1  10
ATOM     10  C   UNL     1      17.388   4.754  15.736  0.00  0.00    +0.151 C 
BRANCH  10  11
ATOM     11  C   UNL     1      16.219   4.440  16.629  0.00  0.00    -0.028 A 
ATOM     12  C   UNL     1      15.056   3.861  16.101  0.00  0.00    +0.005 A 
ATOM     13  C   UNL     1      16.271   4.713  18.004  0.00  0.00    +0.005 A 
ATOM     14  C   UNL     1      13.981   3.541  16.935  0.00  0.00    +0.000 A 
ATOM     15  C   UNL     1      15.196   4.393  18.833  0.00  0.00    +0.000 A 
ATOM     16  C   UNL     1      14.052   3.805  18.298  0.00  0.00    +0.000 A 
ENDBRANCH  10  11
ENDBRANCH   1  10
TORSDOF 2
ENDMDL
MODEL 8
REMARK VINA RESULT:    -4.383     42.623     43.822
REMARK INTER + INTRA:          -5.036
REMARK INTER:                  -4.911
REMARK INTRA:                  -0.124
REMARK UNBOUND:                -0.140
REMARK  Name = 1550473
REMARK  2 active torsions:
REMARK  status: ('A' for Active; 'I' for Inactive)
REMARK    1  A    between atoms: N_1  and  C_4
REMARK    2  A    between atoms: C_4  and  C_5
REMARK                            x       y       z     vdW  Elec       q    Type
REMARK                         _______ _______ _______ _____ _____    ______ ____
ROOT
ATOM      1  N   UNL     1     -13.015   3.252 -17.860  0.00  0.00    -0.354 N 
ATOM      2  N   UNL     1     -14.986   2.659 -16.799  0.00  0.00    -0.372 N 
ATOM      3  N   UNL     1     -12.997   2.344 -15.700  0.00  0.00    -0.372 N 
ATOM      4  C   UNL     1     -13.651   2.754 -16.791  0.00  0.00    +0.166 C 
ATOM      5  H   UNL     1     -13.566   3.517 -18.668  0.00  0.00    +0.163 HD
ATOM      6  H   UNL     1     -15.494   2.290 -16.006  0.00  0.00    +0.159 HD
ATOM      7  H   UNL     1     -15.538   2.968 -17.590  0.00  0.00    +0.159 HD
ATOM      8  H   UNL     1     -11.989   2.384 -15.633  0.00  0.00    +0.159 HD
ATOM      9  H   UNL     1     -13.487   1.961 -14.901  0.00  0.00    +0.159 HD
ENDROOT
BRANCH   1  10
ATOM     10  C   UNL     1     -11.568   3.448 -17.932  0.00  0.00    +0.151 C 
BRANCH  10  11
ATOM     11  C   UNL     1     -11.242   4.255 -19.159  0.00  0.00    -0.028 A 
ATOM     12  C   UNL     1     -12.263   4.693 -20.014  0.00  0.00    +0.005 A 
ATOM     13  C   UNL     1      -9.915   4.590 -19.467  0.00  0.00    +0.005 A 
ATOM     14  C   UNL     1     -11.964   5.468 -21.138  0.00  0.00    +0.000 A 
ATOM     15  C   UNL     1      -9.620   5.363 -20.590  0.00  0.00    +0.000 A 
ATOM     16  C   UNL     1     -10.645   5.804 -21.423  0.00  0.00    +0.000 A 
ENDBRANCH  10  11
ENDBRANCH   1  10
TORSDOF 2
ENDMDL
MODEL 9
REMARK VINA RESULT:    -4.320     42.719     44.952
REMARK INTER + INTRA:          -4.965
REMARK INTER:                  -4.786
REMARK INTRA:                  -0.179
REMARK UNBOUND:                -0.140
REMARK  Name = 1550473
REMARK  2 active torsions:
REMARK  status: ('A' for Active; 'I' for Inactive)
REMARK    1  A    between atoms: N_1  and  C_4
REMARK    2  A    between atoms: C_4  and  C_5
REMARK                            x       y       z     vdW  Elec       q    Type
REMARK                         _______ _______ _______ _____ _____    ______ ____
ROOT
ATOM      1  N   UNL     1     -14.798   3.189 -16.413  0.00  0.00    -0.354 N 
ATOM      2  N   UNL     1     -13.358   3.999 -14.790  0.00  0.00    -0.372 N 
ATOM      3  N   UNL     1     -12.707   2.194 -16.048  0.00  0.00    -0.372 N 
ATOM      4  C   UNL     1     -13.629   3.120 -15.762  0.00  0.00    +0.166 C 
ATOM      5  H   UNL     1     -15.467   3.895 -16.129  0.00  0.00    +0.163 HD
ATOM      6  H   UNL     1     -12.484   3.974 -14.283  0.00  0.00    +0.159 HD
ATOM      7  H   UNL     1     -14.010   4.733 -14.539  0.00  0.00    +0.159 HD
ATOM      8  H   UNL     1     -12.853   1.498 -16.767  0.00  0.00    +0.159 HD
ATOM      9  H   UNL     1     -11.831   2.146 -15.545  0.00  0.00    +0.159 HD
ENDROOT
BRANCH   1  10
ATOM     10  C   UNL     1     -15.168   2.313 -17.524  0.00  0.00    +0.151 C 
BRANCH  10  11
ATOM     11  C   UNL     1     -14.978   3.054 -18.818  0.00  0.00    -0.028 A 
ATOM     12  C   UNL     1     -13.772   2.952 -19.527  0.00  0.00    +0.005 A 
ATOM     13  C   UNL     1     -16.004   3.854 -19.345  0.00  0.00    +0.005 A 
ATOM     14  C   UNL     1     -13.607   3.617 -20.745  0.00  0.00    +0.000 A 
ATOM     15  C   UNL     1     -15.834   4.517 -20.561  0.00  0.00    +0.000 A 
ATOM     16  C   UNL     1     -14.637   4.396 -21.261  0.00  0.00    +0.000 A 
ENDBRANCH  10  11
ENDBRANCH   1  10
TORSDOF 2
ENDMDL
