MODEL 1
REMARK VINA RESULT:    -5.224      0.000      0.000
REMARK INTER + INTRA:          -5.950
REMARK INTER:                  -5.835
REMARK INTRA:                  -0.115
REMARK UNBOUND:                -0.115
REMARK  Name = 1550473
REMARK  2 active torsions:
REMARK  status: ('A' for Active; 'I' for Inactive)
REMARK    1  A    between atoms: N_1  and  C_4
REMARK    2  A    between atoms: C_4  and  C_5
REMARK                            x       y       z     vdW  Elec       q    Type
REMARK                         _______ _______ _______ _____ _____    ______ ____
ROOT
ATOM      1  N   UNL     1     -12.758  -7.500  -1.231  0.00  0.00    -0.354 N 
ATOM      2  N   UNL     1     -13.613  -8.952   0.358  0.00  0.00    -0.372 N 
ATOM      3  N   UNL     1     -13.366  -9.690  -1.801  0.00  0.00    -0.372 N 
ATOM      4  C   UNL     1     -13.241  -8.706  -0.904  0.00  0.00    +0.166 C 
ATOM      5  H   UNL     1     -12.716  -6.787  -0.511  0.00  0.00    +0.163 HD
ATOM      6  H   UNL     1     -13.977  -9.854   0.634  0.00  0.00    +0.159 HD
ATOM      7  H   UNL     1     -13.527  -8.253   1.085  0.00  0.00    +0.159 HD
ATOM      8  H   UNL     1     -13.109  -9.566  -2.771  0.00  0.00    +0.159 HD
ATOM      9  H   UNL     1     -13.740 -10.595  -1.546  0.00  0.00    +0.159 HD
ENDROOT
BRANCH   1  10
ATOM     10  C   UNL     1     -12.275  -7.146  -2.564  0.00  0.00    +0.151 C 
BRANCH  10  11
ATOM     11  C   UNL     1     -11.081  -6.241  -2.430  0.00  0.00    -0.028 A 
ATOM     12  C   UNL     1     -11.093  -5.178  -1.515  0.00  0.00    +0.005 A 
ATOM     13  C   UNL     1      -9.933  -6.445  -3.210  0.00  0.00    +0.005 A 
ATOM     14  C   UNL     1      -9.973  -4.356  -1.368  0.00  0.00    +0.000 A 
ATOM     15  C   UNL     1      -8.817  -5.621  -3.062  0.00  0.00    +0.000 A 
ATOM     16  C   UNL     1      -8.837  -4.578  -2.139  0.00  0.00    +0.000 A 
ENDBRANCH  10  11
ENDBRANCH   1  10
TORSDOF 2
ENDMDL
MODEL 2
REMARK VINA RESULT:    -5.159      1.357      2.055
REMARK INTER + INTRA:          -5.878
REMARK INTER:                  -5.779
REMARK INTRA:                  -0.098
REMARK UNBOUND:                -0.115
REMARK  Name = 1550473
REMARK  2 active torsions:
REMARK  status: ('A' for Active; 'I' for Inactive)
REMARK    1  A    between atoms: N_1  and  C_4
REMARK    2  A    between atoms: C_4  and  C_5
REMARK                            x       y       z     vdW  Elec       q    Type
REMARK                         _______ _______ _______ _____ _____    ______ ____
ROOT
ATOM      1  N   UNL     1     -11.975  -7.577  -1.179  0.00  0.00    -0.354 N 
ATOM      2  N   UNL     1     -13.340  -9.164  -0.189  0.00  0.00    -0.372 N 
ATOM      3  N   UNL     1     -14.280  -7.218  -0.959  0.00  0.00    -0.372 N 
ATOM      4  C   UNL     1     -13.191  -7.974  -0.782  0.00  0.00    +0.166 C 
ATOM      5  H   UNL     1     -11.185  -8.183  -0.989  0.00  0.00    +0.163 HD
ATOM      6  H   UNL     1     -14.246  -9.492   0.118  0.00  0.00    +0.159 HD
ATOM      7  H   UNL     1     -12.556  -9.788  -0.041  0.00  0.00    +0.159 HD
ATOM      8  H   UNL     1     -14.234  -6.307  -1.395  0.00  0.00    +0.159 HD
ATOM      9  H   UNL     1     -15.194  -7.524  -0.648  0.00  0.00    +0.159 HD
ENDROOT
BRANCH   1  10
ATOM     10  C   UNL     1     -11.713  -6.323  -1.883  0.00  0.00    +0.151 C 
BRANCH  10  11
ATOM     11  C   UNL     1     -10.506  -6.496  -2.763  0.00  0.00    -0.028 A 
ATOM     12  C   UNL     1      -9.217  -6.509  -2.209  0.00  0.00    +0.005 A 
ATOM     13  C   UNL     1     -10.644  -6.653  -4.150  0.00  0.00    +0.005 A 
ATOM     14  C   UNL     1      -8.098  -6.700  -3.022  0.00  0.00    +0.000 A 
ATOM     15  C   UNL     1      -9.524  -6.843  -4.959  0.00  0.00    +0.000 A 
ATOM     16  C   UNL     1      -8.251  -6.868  -4.394  0.00  0.00    +0.000 A 
ENDBRANCH  10  11
ENDBRANCH   1  10
TORSDOF 2
ENDMDL
MODEL 3
REMARK VINA RESULT:    -5.154     12.224     13.504
REMARK INTER + INTRA:          -5.872
REMARK INTER:                  -5.730
REMARK INTRA:                  -0.141
REMARK UNBOUND:                -0.115
REMARK  Name = 1550473
REMARK  2 active torsions:
REMARK  status: ('A' for Active; 'I' for Inactive)
REMARK    1  A    between atoms: N_1  and  C_4
REMARK    2  A    between atoms: C_4  and  C_5
REMARK                            x       y       z     vdW  Elec       q    Type
REMARK                         _______ _______ _______ _____ _____    ______ ____
ROOT
ATOM      1  N   UNL     1      -7.685 -12.457 -12.096  0.00  0.00    -0.354 N 
ATOM      2  N   UNL     1      -9.484 -12.135 -10.674  0.00  0.00    -0.372 N 
ATOM      3  N   UNL     1      -7.384 -11.556  -9.953  0.00  0.00    -0.372 N 
ATOM      4  C   UNL     1      -8.171 -12.051 -10.915  0.00  0.00    +0.166 C 
ATOM      5  H   UNL     1      -8.329 -12.850 -12.772  0.00  0.00    +0.163 HD
ATOM      6  H   UNL     1      -9.880 -11.834  -9.794  0.00  0.00    +0.159 HD
ATOM      7  H   UNL     1     -10.132 -12.486 -11.369  0.00  0.00    +0.159 HD
ATOM      8  H   UNL     1      -6.383 -11.472 -10.070  0.00  0.00    +0.159 HD
ATOM      9  H   UNL     1      -7.760 -11.260  -9.061  0.00  0.00    +0.159 HD
ENDROOT
BRANCH   1  10
ATOM     10  C   UNL     1      -6.277 -12.357 -12.479  0.00  0.00    +0.151 C 
BRANCH  10  11
ATOM     11  C   UNL     1      -6.177 -11.647 -13.801  0.00  0.00    -0.028 A 
ATOM     12  C   UNL     1      -5.741 -12.332 -14.945  0.00  0.00    +0.005 A 
ATOM     13  C   UNL     1      -6.521 -10.292 -13.917  0.00  0.00    +0.005 A 
ATOM     14  C   UNL     1      -5.677 -11.681 -16.179  0.00  0.00    +0.000 A 
ATOM     15  C   UNL     1      -6.454  -9.646 -15.151  0.00  0.00    +0.000 A 
ATOM     16  C   UNL     1      -6.034 -10.341 -16.282  0.00  0.00    +0.000 A 
ENDBRANCH  10  11
ENDBRANCH   1  10
TORSDOF 2
ENDMDL
MODEL 4
REMARK VINA RESULT:    -5.013     18.807     19.805
REMARK INTER + INTRA:          -5.715
REMARK INTER:                  -5.613
REMARK INTRA:                  -0.102
REMARK UNBOUND:                -0.115
REMARK  Name = 1550473
REMARK  2 active torsions:
REMARK  status: ('A' for Active; 'I' for Inactive)
REMARK    1  A    between atoms: N_1  and  C_4
REMARK    2  A    between atoms: C_4  and  C_5
REMARK                            x       y       z     vdW  Elec       q    Type
REMARK                         _______ _______ _______ _____ _____    ______ ____
ROOT
ATOM      1  N   UNL     1       0.278  -4.581  14.352  0.00  0.00    -0.354 N 
ATOM      2  N   UNL     1       0.714  -2.319  14.600  0.00  0.00    -0.372 N 
ATOM      3  N   UNL     1       1.339  -3.363  12.655  0.00  0.00    -0.372 N 
ATOM      4  C   UNL     1       0.775  -3.436  13.865  0.00  0.00    +0.166 C 
ATOM      5  H   UNL     1      -0.109  -4.577  15.289  0.00  0.00    +0.163 HD
ATOM      6  H   UNL     1       1.077  -1.440  14.258  0.00  0.00    +0.159 HD
ATOM      7  H   UNL     1       0.284  -2.309  15.518  0.00  0.00    +0.159 HD
ATOM      8  H   UNL     1       1.422  -4.171  12.053  0.00  0.00    +0.159 HD
ATOM      9  H   UNL     1       1.720  -2.495  12.299  0.00  0.00    +0.159 HD
ENDROOT
BRANCH   1  10
ATOM     10  C   UNL     1       0.247  -5.840  13.611  0.00  0.00    +0.151 C 
BRANCH  10  11
ATOM     11  C   UNL     1      -0.945  -6.642  14.054  0.00  0.00    -0.028 A 
ATOM     12  C   UNL     1      -2.196  -6.452  13.449  0.00  0.00    +0.005 A 
ATOM     13  C   UNL     1      -0.830  -7.597  15.076  0.00  0.00    +0.005 A 
ATOM     14  C   UNL     1      -3.297  -7.218  13.839  0.00  0.00    +0.000 A 
ATOM     15  C   UNL     1      -1.932  -8.359  15.464  0.00  0.00    +0.000 A 
ATOM     16  C   UNL     1      -3.164  -8.171  14.844  0.00  0.00    +0.000 A 
ENDBRANCH  10  11
ENDBRANCH   1  10
TORSDOF 2
ENDMDL
MODEL 5
REMARK VINA RESULT:    -4.865      9.738     11.102
REMARK INTER + INTRA:          -5.549
REMARK INTER:                  -5.388
REMARK INTRA:                  -0.161
REMARK UNBOUND:                -0.115
REMARK  Name = 1550473
REMARK  2 active torsions:
REMARK  status: ('A' for Active; 'I' for Inactive)
REMARK    1  A    between atoms: N_1  and  C_4
REMARK    2  A    between atoms: C_4  and  C_5
REMARK                            x       y       z     vdW  Elec       q    Type
REMARK                         _______ _______ _______ _____ _____    ______ ____
ROOT
ATOM      1  N   UNL     1     -15.245  -7.913   9.136  0.00  0.00    -0.354 N 
ATOM      2  N   UNL     1     -16.700  -9.599   9.773  0.00  0.00    -0.372 N 
ATOM      3  N   UNL     1     -15.370  -8.622  11.366  0.00  0.00    -0.372 N 
ATOM      4  C   UNL     1     -15.761  -8.700  10.090  0.00  0.00    +0.166 C 
ATOM      5  H   UNL     1     -15.562  -8.043   8.182  0.00  0.00    +0.163 HD
ATOM      6  H   UNL     1     -17.110 -10.204  10.472  0.00  0.00    +0.159 HD
ATOM      7  H   UNL     1     -17.048  -9.695   8.826  0.00  0.00    +0.159 HD
ATOM      8  H   UNL     1     -14.661  -7.968  11.670  0.00  0.00    +0.159 HD
ATOM      9  H   UNL     1     -15.760  -9.226  12.078  0.00  0.00    +0.159 HD
ENDROOT
BRANCH   1  10
ATOM     10  C   UNL     1     -14.257  -6.866   9.386  0.00  0.00    +0.151 C 
BRANCH  10  11
ATOM     11  C   UNL     1     -12.996  -7.190   8.632  0.00  0.00    -0.028 A 
ATOM     12  C   UNL     1     -12.690  -6.524   7.436  0.00  0.00    +0.005 A 
ATOM     13  C   UNL     1     -12.101  -8.158   9.112  0.00  0.00    +0.005 A 
ATOM     14  C   UNL     1     -11.505  -6.804   6.752  0.00  0.00    +0.000 A 
ATOM     15  C   UNL     1     -10.919  -8.434   8.426  0.00  0.00    +0.000 A 
ATOM     16  C   UNL     1     -10.620  -7.755   7.247  0.00  0.00    +0.000 A 
ENDBRANCH  10  11
ENDBRANCH   1  10
TORSDOF 2
ENDMDL
MODEL 6
REMARK VINA RESULT:    -4.861     26.861     28.277
REMARK INTER + INTRA:          -5.545
REMARK INTER:                  -5.372
REMARK INTRA:                  -0.172
REMARK UNBOUND:                -0.115
REMARK  Name = 1550473
REMARK  2 active torsions:
REMARK  status: ('A' for Active; 'I' for Inactive)
REMARK    1  A    between atoms: N_1  and  C_4
REMARK    2  A    between atoms: C_4  and  C_5
REMARK                            x       y       z     vdW  Elec       q    Type
REMARK                         _______ _______ _______ _____ _____    ______ ____
ROOT
ATOM      1  N   UNL     1       6.612   9.712  14.234  0.00  0.00    -0.354 N 
ATOM      2  N   UNL     1       6.152   8.772  16.300  0.00  0.00    -0.372 N 
ATOM      3  N   UNL     1       5.695  10.996  15.967  0.00  0.00    -0.372 N 
ATOM      4  C   UNL     1       6.155   9.835  15.487  0.00  0.00    +0.166 C 
ATOM      5  H   UNL     1       6.975   8.813  13.940  0.00  0.00    +0.163 HD
ATOM      6  H   UNL     1       5.811   8.834  17.249  0.00  0.00    +0.159 HD
ATOM      7  H   UNL     1       6.473   7.863  15.989  0.00  0.00    +0.159 HD
ATOM      8  H   UNL     1       5.676  11.837  15.406  0.00  0.00    +0.159 HD
ATOM      9  H   UNL     1       5.360  11.080  16.918  0.00  0.00    +0.159 HD
ENDROOT
BRANCH   1  10
ATOM     10  C   UNL     1       6.609  10.795  13.252  0.00  0.00    +0.151 C 
BRANCH  10  11
ATOM     11  C   UNL     1       5.410  10.644  12.357  0.00  0.00    -0.028 A 
ATOM     12  C   UNL     1       4.217  11.322  12.644  0.00  0.00    +0.005 A 
ATOM     13  C   UNL     1       5.462   9.827  11.217  0.00  0.00    +0.005 A 
ATOM     14  C   UNL     1       3.112  11.205  11.797  0.00  0.00    +0.000 A 
ATOM     15  C   UNL     1       4.357   9.712  10.374  0.00  0.00    +0.000 A 
ATOM     16  C   UNL     1       3.183  10.403  10.663  0.00  0.00    +0.000 A 
ENDBRANCH  10  11
ENDBRANCH   1  10
TORSDOF 2
ENDMDL
MODEL 7
REMARK VINA RESULT:    -4.787      7.230      8.452
REMARK INTER + INTRA:          -5.462
REMARK INTER:                  -5.284
REMARK INTRA:                  -0.178
REMARK UNBOUND:                -0.115
REMARK  Name = 1550473
REMARK  2 active torsions:
REMARK  status: ('A' for Active; 'I' for Inactive)
REMARK    1  A    between atoms: N_1  and  C_4
REMARK    2  A    between atoms: C_4  and  C_5
REMARK                            x       y       z     vdW  Elec       q    Type
REMARK                         _______ _______ _______ _____ _____    ______ ____
ROOT
ATOM      1  N   UNL     1      -8.914 -10.056 -10.471  0.00  0.00    -0.354 N 
ATOM      2  N   UNL     1      -9.356 -12.303 -10.817  0.00  0.00    -0.372 N 
ATOM      3  N   UNL     1      -7.340 -11.697  -9.905  0.00  0.00    -0.372 N 
ATOM      4  C   UNL     1      -8.531 -11.338 -10.395  0.00  0.00    +0.166 C 
ATOM      5  H   UNL     1      -9.818  -9.848 -10.880  0.00  0.00    +0.163 HD
ATOM      6  H   UNL     1      -9.095 -13.279 -10.769  0.00  0.00    +0.159 HD
ATOM      7  H   UNL     1     -10.277 -12.095 -11.183  0.00  0.00    +0.159 HD
ATOM      8  H   UNL     1      -6.669 -11.016  -9.575  0.00  0.00    +0.159 HD
ATOM      9  H   UNL     1      -7.056 -12.668  -9.860  0.00  0.00    +0.159 HD
ENDROOT
BRANCH   1  10
ATOM     10  C   UNL     1      -8.113  -8.933  -9.989  0.00  0.00    +0.151 C 
BRANCH  10  11
ATOM     11  C   UNL     1      -8.623  -8.509  -8.639  0.00  0.00    -0.028 A 
ATOM     12  C   UNL     1      -9.677  -7.591  -8.532  0.00  0.00    +0.005 A 
ATOM     13  C   UNL     1      -8.060  -9.028  -7.463  0.00  0.00    +0.005 A 
ATOM     14  C   UNL     1     -10.172  -7.220  -7.279  0.00  0.00    +0.000 A 
ATOM     15  C   UNL     1      -8.556  -8.655  -6.213  0.00  0.00    +0.000 A 
ATOM     16  C   UNL     1      -9.613  -7.753  -6.122  0.00  0.00    +0.000 A 
ENDBRANCH  10  11
ENDBRANCH   1  10
TORSDOF 2
ENDMDL
MODEL 8
REMARK VINA RESULT:    -4.746      5.032      6.409
REMARK INTER + INTRA:          -5.416
REMARK INTER:                  -5.303
REMARK INTRA:                  -0.113
REMARK UNBOUND:                -0.115
REMARK  Name = 1550473
REMARK  2 active torsions:
REMARK  status: ('A' for Active; 'I' for Inactive)
REMARK    1  A    between atoms: N_1  and  C_4
REMARK    2  A    between atoms: C_4  and  C_5
REMARK                            x       y       z     vdW  Elec       q    Type
REMARK                         _______ _______ _______ _____ _____    ______ ____
ROOT
ATOM      1  N   UNL     1      -9.606  -6.859  -5.351  0.00  0.00    -0.354 N 
ATOM      2  N   UNL     1     -10.609  -5.141  -4.165  0.00  0.00    -0.372 N 
ATOM      3  N   UNL     1      -9.780  -6.945  -3.016  0.00  0.00    -0.372 N 
ATOM      4  C   UNL     1      -9.991  -6.328  -4.183  0.00  0.00    +0.166 C 
ATOM      5  H   UNL     1      -9.822  -6.355  -6.203  0.00  0.00    +0.163 HD
ATOM      6  H   UNL     1     -10.908  -4.714  -3.299  0.00  0.00    +0.159 HD
ATOM      7  H   UNL     1     -10.783  -4.618  -5.015  0.00  0.00    +0.159 HD
ATOM      8  H   UNL     1      -9.324  -7.847  -2.961  0.00  0.00    +0.159 HD
ATOM      9  H   UNL     1     -10.082  -6.540  -2.139  0.00  0.00    +0.159 HD
ENDROOT
BRANCH   1  10
ATOM     10  C   UNL     1      -8.878  -8.121  -5.475  0.00  0.00    +0.151 C 
BRANCH  10  11
ATOM     11  C   UNL     1      -8.520  -8.341  -6.919  0.00  0.00    -0.028 A 
ATOM     12  C   UNL     1      -9.400  -7.948  -7.939  0.00  0.00    +0.005 A 
ATOM     13  C   UNL     1      -7.301  -8.938  -7.275  0.00  0.00    +0.005 A 
ATOM     14  C   UNL     1      -9.055  -8.125  -9.281  0.00  0.00    +0.000 A 
ATOM     15  C   UNL     1      -6.961  -9.114  -8.616  0.00  0.00    +0.000 A 
ATOM     16  C   UNL     1      -7.837  -8.705  -9.619  0.00  0.00    +0.000 A 
ENDBRANCH  10  11
ENDBRANCH   1  10
TORSDOF 2
ENDMDL
MODEL 9
REMARK VINA RESULT:    -4.664      9.385     10.588
REMARK INTER + INTRA:          -5.324
REMARK INTER:                  -5.204
REMARK INTRA:                  -0.120
REMARK UNBOUND:                -0.115
REMARK  Name = 1550473
REMARK  2 active torsions:
REMARK  status: ('A' for Active; 'I' for Inactive)
REMARK    1  A    between atoms: N_1  and  C_4
REMARK    2  A    between atoms: C_4  and  C_5
REMARK                            x       y       z     vdW  Elec       q    Type
REMARK                         _______ _______ _______ _____ _____    ______ ____
ROOT
ATOM      1  N   UNL     1      -7.294 -11.943 -11.340  0.00  0.00    -0.354 N 
ATOM      2  N   UNL     1      -6.123 -12.193 -13.322  0.00  0.00    -0.372 N 
ATOM      3  N   UNL     1      -8.404 -11.956 -13.403  0.00  0.00    -0.372 N 
ATOM      4  C   UNL     1      -7.284 -12.029 -12.676  0.00  0.00    +0.166 C 
ATOM      5  H   UNL     1      -6.414 -12.036 -10.845  0.00  0.00    +0.163 HD
ATOM      6  H   UNL     1      -6.084 -12.258 -14.331  0.00  0.00    +0.159 HD
ATOM      7  H   UNL     1      -5.241 -12.240 -12.828  0.00  0.00    +0.159 HD
ATOM      8  H   UNL     1      -9.313 -11.839 -12.976  0.00  0.00    +0.159 HD
ATOM      9  H   UNL     1      -8.387 -12.031 -14.413  0.00  0.00    +0.159 HD
ENDROOT
BRANCH   1  10
ATOM     10  C   UNL     1      -8.498 -11.711 -10.544  0.00  0.00    +0.151 C 
BRANCH  10  11
ATOM     11  C   UNL     1      -8.228 -10.611  -9.554  0.00  0.00    -0.028 A 
ATOM     12  C   UNL     1      -9.098  -9.516  -9.452  0.00  0.00    +0.005 A 
ATOM     13  C   UNL     1      -7.107 -10.662  -8.711  0.00  0.00    +0.005 A 
ATOM     14  C   UNL     1      -8.864  -8.509  -8.512  0.00  0.00    +0.000 A 
ATOM     15  C   UNL     1      -6.877  -9.654  -7.775  0.00  0.00    +0.000 A 
ATOM     16  C   UNL     1      -7.756  -8.580  -7.674  0.00  0.00    +0.000 A 
ENDBRANCH  10  11
ENDBRANCH   1  10
TORSDOF 2
ENDMDL
