MODEL 1
REMARK VINA RESULT:    -4.916      0.000      0.000
REMARK INTER + INTRA:          -5.602
REMARK INTER:                  -5.490
REMARK INTRA:                  -0.112
REMARK UNBOUND:                -0.112
REMARK  Name = 1550473
REMARK  2 active torsions:
REMARK  status: ('A' for Active; 'I' for Inactive)
REMARK    1  A    between atoms: N_1  and  C_4
REMARK    2  A    between atoms: C_4  and  C_5
REMARK                            x       y       z     vdW  Elec       q    Type
REMARK                         _______ _______ _______ _____ _____    ______ ____
ROOT
ATOM      1  N   UNL     1       0.797  -6.562 -29.079  0.00  0.00    -0.354 N 
ATOM      2  N   UNL     1       0.398  -5.615 -31.154  0.00  0.00    -0.372 N 
ATOM      3  N   UNL     1       2.182  -7.037 -30.909  0.00  0.00    -0.372 N 
ATOM      4  C   UNL     1       1.131  -6.412 -30.367  0.00  0.00    +0.166 C 
ATOM      5  H   UNL     1       0.007  -6.037 -28.722  0.00  0.00    +0.163 HD
ATOM      6  H   UNL     1       0.623  -5.485 -32.131  0.00  0.00    +0.159 HD
ATOM      7  H   UNL     1      -0.419  -5.128 -30.806  0.00  0.00    +0.159 HD
ATOM      8  H   UNL     1       2.779  -7.648 -30.367  0.00  0.00    +0.159 HD
ATOM      9  H   UNL     1       2.431  -6.910 -31.882  0.00  0.00    +0.159 HD
ENDROOT
BRANCH   1  10
ATOM     10  C   UNL     1       1.497  -7.449 -28.151  0.00  0.00    +0.151 C 
BRANCH  10  11
ATOM     11  C   UNL     1       0.543  -8.506 -27.667  0.00  0.00    -0.028 A 
ATOM     12  C   UNL     1       0.790  -9.194 -26.470  0.00  0.00    +0.005 A 
ATOM     13  C   UNL     1      -0.613  -8.820 -28.398  0.00  0.00    +0.005 A 
ATOM     14  C   UNL     1      -0.111 -10.155 -26.005  0.00  0.00    +0.000 A 
ATOM     15  C   UNL     1      -1.509  -9.780 -27.931  0.00  0.00    +0.000 A 
ATOM     16  C   UNL     1      -1.259 -10.446 -26.734  0.00  0.00    +0.000 A 
ENDBRANCH  10  11
ENDBRANCH   1  10
TORSDOF 2
ENDMDL
MODEL 2
REMARK VINA RESULT:    -4.576     11.237     12.757
REMARK INTER + INTRA:          -5.223
REMARK INTER:                  -5.144
REMARK INTRA:                  -0.079
REMARK UNBOUND:                -0.112
REMARK  Name = 1550473
REMARK  2 active torsions:
REMARK  status: ('A' for Active; 'I' for Inactive)
REMARK    1  A    between atoms: N_1  and  C_4
REMARK    2  A    between atoms: C_4  and  C_5
REMARK                            x       y       z     vdW  Elec       q    Type
REMARK                         _______ _______ _______ _____ _____    ______ ____
ROOT
ATOM      1  N   UNL     1       0.882  -7.688 -15.285  0.00  0.00    -0.354 N 
ATOM      2  N   UNL     1       1.912  -9.724 -14.885  0.00  0.00    -0.372 N 
ATOM      3  N   UNL     1      -0.208  -9.376 -14.079  0.00  0.00    -0.372 N 
ATOM      4  C   UNL     1       0.853  -8.916 -14.751  0.00  0.00    +0.166 C 
ATOM      5  H   UNL     1       1.727  -7.388 -15.756  0.00  0.00    +0.163 HD
ATOM      6  H   UNL     1       1.917 -10.657 -14.496  0.00  0.00    +0.159 HD
ATOM      7  H   UNL     1       2.738  -9.438 -15.396  0.00  0.00    +0.159 HD
ATOM      8  H   UNL     1      -1.037  -8.814 -13.937  0.00  0.00    +0.159 HD
ATOM      9  H   UNL     1      -0.217 -10.303 -13.672  0.00  0.00    +0.159 HD
ENDROOT
BRANCH   1  10
ATOM     10  C   UNL     1      -0.239  -6.751 -15.241  0.00  0.00    +0.151 C 
BRANCH  10  11
ATOM     11  C   UNL     1      -0.891  -6.701 -16.595  0.00  0.00    -0.028 A 
ATOM     12  C   UNL     1      -0.400  -7.484 -17.651  0.00  0.00    +0.005 A 
ATOM     13  C   UNL     1      -2.003  -5.878 -16.828  0.00  0.00    +0.005 A 
ATOM     14  C   UNL     1      -1.024  -7.461 -18.901  0.00  0.00    +0.000 A 
ATOM     15  C   UNL     1      -2.623  -5.857 -18.078  0.00  0.00    +0.000 A 
ATOM     16  C   UNL     1      -2.134  -6.650 -19.113  0.00  0.00    +0.000 A 
ENDBRANCH  10  11
ENDBRANCH   1  10
TORSDOF 2
ENDMDL
MODEL 3
REMARK VINA RESULT:    -4.555     29.788     30.963
REMARK INTER + INTRA:          -5.199
REMARK INTER:                  -5.067
REMARK INTRA:                  -0.132
REMARK UNBOUND:                -0.112
REMARK  Name = 1550473
REMARK  2 active torsions:
REMARK  status: ('A' for Active; 'I' for Inactive)
REMARK    1  A    between atoms: N_1  and  C_4
REMARK    2  A    between atoms: C_4  and  C_5
REMARK                            x       y       z     vdW  Elec       q    Type
REMARK                         _______ _______ _______ _____ _____    ______ ____
ROOT
ATOM      1  N   UNL     1      11.601   1.333  -2.100  0.00  0.00    -0.354 N 
ATOM      2  N   UNL     1      13.219  -0.283  -1.737  0.00  0.00    -0.372 N 
ATOM      3  N   UNL     1      12.806   0.409  -3.885  0.00  0.00    -0.372 N 
ATOM      4  C   UNL     1      12.531   0.497  -2.579  0.00  0.00    +0.166 C 
ATOM      5  H   UNL     1      11.419   1.331  -1.103  0.00  0.00    +0.163 HD
ATOM      6  H   UNL     1      13.930  -0.922  -2.069  0.00  0.00    +0.159 HD
ATOM      7  H   UNL     1      13.067  -0.251  -0.736  0.00  0.00    +0.159 HD
ATOM      8  H   UNL     1      12.318   0.967  -4.574  0.00  0.00    +0.159 HD
ATOM      9  H   UNL     1      13.505  -0.232  -4.238  0.00  0.00    +0.159 HD
ENDROOT
BRANCH   1  10
ATOM     10  C   UNL     1      10.834   2.264  -2.927  0.00  0.00    +0.151 C 
BRANCH  10  11
ATOM     11  C   UNL     1      10.645   3.551  -2.172  0.00  0.00    -0.028 A 
ATOM     12  C   UNL     1      10.892   3.610  -0.792  0.00  0.00    +0.005 A 
ATOM     13  C   UNL     1      10.225   4.716  -2.832  0.00  0.00    +0.005 A 
ATOM     14  C   UNL     1      10.745   4.812  -0.096  0.00  0.00    +0.000 A 
ATOM     15  C   UNL     1      10.080   5.914  -2.133  0.00  0.00    +0.000 A 
ATOM     16  C   UNL     1      10.342   5.962  -0.766  0.00  0.00    +0.000 A 
ENDBRANCH  10  11
ENDBRANCH   1  10
TORSDOF 2
ENDMDL
MODEL 4
REMARK VINA RESULT:    -4.491     12.032     13.400
REMARK INTER + INTRA:          -5.128
REMARK INTER:                  -5.003
REMARK INTRA:                  -0.124
REMARK UNBOUND:                -0.112
REMARK  Name = 1550473
REMARK  2 active torsions:
REMARK  status: ('A' for Active; 'I' for Inactive)
REMARK    1  A    between atoms: N_1  and  C_4
REMARK    2  A    between atoms: C_4  and  C_5
REMARK                            x       y       z     vdW  Elec       q    Type
REMARK                         _______ _______ _______ _____ _____    ______ ____
ROOT
ATOM      1  N   UNL     1      -0.933  -8.426 -15.399  0.00  0.00    -0.354 N 
ATOM      2  N   UNL     1      -0.824  -9.768 -13.514  0.00  0.00    -0.372 N 
ATOM      3  N   UNL     1       1.077  -9.447 -14.759  0.00  0.00    -0.372 N 
ATOM      4  C   UNL     1      -0.225  -9.205 -14.571  0.00  0.00    +0.166 C 
ATOM      5  H   UNL     1      -1.923  -8.306 -15.218  0.00  0.00    +0.163 HD
ATOM      6  H   UNL     1      -0.314 -10.358 -12.870  0.00  0.00    +0.159 HD
ATOM      7  H   UNL     1      -1.803  -9.609 -13.310  0.00  0.00    +0.159 HD
ATOM      8  H   UNL     1       1.586  -9.057 -15.541  0.00  0.00    +0.159 HD
ATOM      9  H   UNL     1       1.601 -10.044 -14.132  0.00  0.00    +0.159 HD
ENDROOT
BRANCH   1  10
ATOM     10  C   UNL     1      -0.363  -7.723 -16.547  0.00  0.00    +0.151 C 
BRANCH  10  11
ATOM     11  C   UNL     1      -1.045  -6.391 -16.695  0.00  0.00    -0.028 A 
ATOM     12  C   UNL     1      -1.137  -5.513 -15.605  0.00  0.00    +0.005 A 
ATOM     13  C   UNL     1      -1.596  -5.998 -17.925  0.00  0.00    +0.005 A 
ATOM     14  C   UNL     1      -1.744  -4.263 -15.750  0.00  0.00    +0.000 A 
ATOM     15  C   UNL     1      -2.202  -4.749 -18.065  0.00  0.00    +0.000 A 
ATOM     16  C   UNL     1      -2.273  -3.881 -16.978  0.00  0.00    +0.000 A 
ENDBRANCH  10  11
ENDBRANCH   1  10
TORSDOF 2
ENDMDL
MODEL 5
REMARK VINA RESULT:    -4.473     13.795     15.473
REMARK INTER + INTRA:          -5.107
REMARK INTER:                  -4.978
REMARK INTRA:                  -0.129
REMARK UNBOUND:                -0.112
REMARK  Name = 1550473
REMARK  2 active torsions:
REMARK  status: ('A' for Active; 'I' for Inactive)
REMARK    1  A    between atoms: N_1  and  C_4
REMARK    2  A    between atoms: C_4  and  C_5
REMARK                            x       y       z     vdW  Elec       q    Type
REMARK                         _______ _______ _______ _____ _____    ______ ____
ROOT
ATOM      1  N   UNL     1     -10.926 -11.148 -19.498  0.00  0.00    -0.354 N 
ATOM      2  N   UNL     1      -9.283 -12.265 -18.307  0.00  0.00    -0.372 N 
ATOM      3  N   UNL     1      -8.877 -11.699 -20.493  0.00  0.00    -0.372 N 
ATOM      4  C   UNL     1      -9.705 -11.697 -19.443  0.00  0.00    +0.166 C 
ATOM      5  H   UNL     1     -11.517 -11.206 -18.676  0.00  0.00    +0.163 HD
ATOM      6  H   UNL     1      -8.366 -12.684 -18.234  0.00  0.00    +0.159 HD
ATOM      7  H   UNL     1      -9.859 -12.280 -17.473  0.00  0.00    +0.159 HD
ATOM      8  H   UNL     1      -9.137 -11.292 -21.381  0.00  0.00    +0.159 HD
ATOM      9  H   UNL     1      -7.959 -12.124 -20.443  0.00  0.00    +0.159 HD
ENDROOT
BRANCH   1  10
ATOM     10  C   UNL     1     -11.460 -10.458 -20.670  0.00  0.00    +0.151 C 
BRANCH  10  11
ATOM     11  C   UNL     1     -12.681 -11.188 -21.157  0.00  0.00    -0.028 A 
ATOM     12  C   UNL     1     -13.446 -10.672 -22.213  0.00  0.00    +0.005 A 
ATOM     13  C   UNL     1     -13.074 -12.401 -20.571  0.00  0.00    +0.005 A 
ATOM     14  C   UNL     1     -14.563 -11.365 -22.686  0.00  0.00    +0.000 A 
ATOM     15  C   UNL     1     -14.191 -13.090 -21.045  0.00  0.00    +0.000 A 
ATOM     16  C   UNL     1     -14.933 -12.573 -22.104  0.00  0.00    +0.000 A 
ENDBRANCH  10  11
ENDBRANCH   1  10
TORSDOF 2
ENDMDL
MODEL 6
REMARK VINA RESULT:    -4.379     51.355     52.560
REMARK INTER + INTRA:          -5.003
REMARK INTER:                  -4.882
REMARK INTRA:                  -0.121
REMARK UNBOUND:                -0.112
REMARK  Name = 1550473
REMARK  2 active torsions:
REMARK  status: ('A' for Active; 'I' for Inactive)
REMARK    1  A    between atoms: N_1  and  C_4
REMARK    2  A    between atoms: C_4  and  C_5
REMARK                            x       y       z     vdW  Elec       q    Type
REMARK                         _______ _______ _______ _____ _____    ______ ____
ROOT
ATOM      1  N   UNL     1      -9.252   2.272  22.487  0.00  0.00    -0.354 N 
ATOM      2  N   UNL     1     -11.132   3.609  22.284  0.00  0.00    -0.372 N 
ATOM      3  N   UNL     1      -9.763   3.337  20.463  0.00  0.00    -0.372 N 
ATOM      4  C   UNL     1     -10.036   3.064  21.744  0.00  0.00    +0.166 C 
ATOM      5  H   UNL     1      -9.497   2.129  23.460  0.00  0.00    +0.163 HD
ATOM      6  H   UNL     1     -11.745   4.208  21.747  0.00  0.00    +0.159 HD
ATOM      7  H   UNL     1     -11.400   3.427  23.244  0.00  0.00    +0.159 HD
ATOM      8  H   UNL     1      -8.947   2.962  19.998  0.00  0.00    +0.159 HD
ATOM      9  H   UNL     1     -10.358   3.943  19.912  0.00  0.00    +0.159 HD
ENDROOT
BRANCH   1  10
ATOM     10  C   UNL     1      -8.064   1.587  21.979  0.00  0.00    +0.151 C 
BRANCH  10  11
ATOM     11  C   UNL     1      -8.012   0.200  22.558  0.00  0.00    -0.028 A 
ATOM     12  C   UNL     1      -7.548  -0.876  21.787  0.00  0.00    +0.005 A 
ATOM     13  C   UNL     1      -8.421  -0.044  23.878  0.00  0.00    +0.005 A 
ATOM     14  C   UNL     1      -7.471  -2.159  22.333  0.00  0.00    +0.000 A 
ATOM     15  C   UNL     1      -8.343  -1.327  24.420  0.00  0.00    +0.000 A 
ATOM     16  C   UNL     1      -7.866  -2.384  23.648  0.00  0.00    +0.000 A 
ENDBRANCH  10  11
ENDBRANCH   1  10
TORSDOF 2
ENDMDL
MODEL 7
REMARK VINA RESULT:    -4.338     30.746     31.915
REMARK INTER + INTRA:          -4.957
REMARK INTER:                  -4.774
REMARK INTRA:                  -0.183
REMARK UNBOUND:                -0.112
REMARK  Name = 1550473
REMARK  2 active torsions:
REMARK  status: ('A' for Active; 'I' for Inactive)
REMARK    1  A    between atoms: N_1  and  C_4
REMARK    2  A    between atoms: C_4  and  C_5
REMARK                            x       y       z     vdW  Elec       q    Type
REMARK                         _______ _______ _______ _____ _____    ______ ____
ROOT
ATOM      1  N   UNL     1      12.719   2.850  -2.111  0.00  0.00    -0.354 N 
ATOM      2  N   UNL     1      12.098   1.481  -3.873  0.00  0.00    -0.372 N 
ATOM      3  N   UNL     1      10.931   1.350  -1.901  0.00  0.00    -0.372 N 
ATOM      4  C   UNL     1      11.918   1.901  -2.615  0.00  0.00    +0.166 C 
ATOM      5  H   UNL     1      13.469   3.206  -2.693  0.00  0.00    +0.163 HD
ATOM      6  H   UNL     1      11.507   0.769  -4.281  0.00  0.00    +0.159 HD
ATOM      7  H   UNL     1      12.818   1.871  -4.467  0.00  0.00    +0.159 HD
ATOM      8  H   UNL     1      10.746   1.619  -0.944  0.00  0.00    +0.159 HD
ATOM      9  H   UNL     1      10.336   0.628  -2.289  0.00  0.00    +0.159 HD
ENDROOT
BRANCH   1  10
ATOM     10  C   UNL     1      12.574   3.415  -0.771  0.00  0.00    +0.151 C 
BRANCH  10  11
ATOM     11  C   UNL     1      11.811   4.708  -0.864  0.00  0.00    -0.028 A 
ATOM     12  C   UNL     1      10.490   4.790  -0.400  0.00  0.00    +0.005 A 
ATOM     13  C   UNL     1      12.406   5.856  -1.409  0.00  0.00    +0.005 A 
ATOM     14  C   UNL     1       9.791   5.999  -0.458  0.00  0.00    +0.000 A 
ATOM     15  C   UNL     1      11.705   7.061  -1.466  0.00  0.00    +0.000 A 
ATOM     16  C   UNL     1      10.399   7.132  -0.989  0.00  0.00    +0.000 A 
ENDBRANCH  10  11
ENDBRANCH   1  10
TORSDOF 2
ENDMDL
MODEL 8
REMARK VINA RESULT:    -4.272     45.211     46.547
REMARK INTER + INTRA:          -4.883
REMARK INTER:                  -4.778
REMARK INTRA:                  -0.105
REMARK UNBOUND:                -0.112
REMARK  Name = 1550473
REMARK  2 active torsions:
REMARK  status: ('A' for Active; 'I' for Inactive)
REMARK    1  A    between atoms: N_1  and  C_4
REMARK    2  A    between atoms: C_4  and  C_5
REMARK                            x       y       z     vdW  Elec       q    Type
REMARK                         _______ _______ _______ _____ _____    ______ ____
ROOT
ATOM      1  N   UNL     1       6.967   0.024  15.203  0.00  0.00    -0.354 N 
ATOM      2  N   UNL     1       5.868  -1.443  13.787  0.00  0.00    -0.372 N 
ATOM      3  N   UNL     1       4.630  -0.156  15.228  0.00  0.00    -0.372 N 
ATOM      4  C   UNL     1       5.827  -0.514  14.750  0.00  0.00    +0.166 C 
ATOM      5  H   UNL     1       7.843  -0.312  14.820  0.00  0.00    +0.163 HD
ATOM      6  H   UNL     1       5.024  -1.865  13.423  0.00  0.00    +0.159 HD
ATOM      7  H   UNL     1       6.742  -1.744  13.374  0.00  0.00    +0.159 HD
ATOM      8  H   UNL     1       4.531   0.535  15.960  0.00  0.00    +0.159 HD
ATOM      9  H   UNL     1       3.775  -0.575  14.885  0.00  0.00    +0.159 HD
ENDROOT
BRANCH   1  10
ATOM     10  C   UNL     1       7.028   1.081  16.211  0.00  0.00    +0.151 C 
BRANCH  10  11
ATOM     11  C   UNL     1       8.267   0.895  17.042  0.00  0.00    -0.028 A 
ATOM     12  C   UNL     1       8.245   0.077  18.181  0.00  0.00    +0.005 A 
ATOM     13  C   UNL     1       9.469   1.531  16.693  0.00  0.00    +0.005 A 
ATOM     14  C   UNL     1       9.404  -0.120  18.936  0.00  0.00    +0.000 A 
ATOM     15  C   UNL     1      10.623   1.333  17.450  0.00  0.00    +0.000 A 
ATOM     16  C   UNL     1      10.591   0.505  18.570  0.00  0.00    +0.000 A 
ENDBRANCH  10  11
ENDBRANCH   1  10
TORSDOF 2
ENDMDL
MODEL 9
REMARK VINA RESULT:    -4.241     52.068     53.426
REMARK INTER + INTRA:          -4.848
REMARK INTER:                  -4.710
REMARK INTRA:                  -0.138
REMARK UNBOUND:                -0.112
REMARK  Name = 1550473
REMARK  2 active torsions:
REMARK  status: ('A' for Active; 'I' for Inactive)
REMARK    1  A    between atoms: N_1  and  C_4
REMARK    2  A    between atoms: C_4  and  C_5
REMARK                            x       y       z     vdW  Elec       q    Type
REMARK                         _______ _______ _______ _____ _____    ______ ____
ROOT
ATOM      1  N   UNL     1     -10.572   1.928  23.590  0.00  0.00    -0.354 N 
ATOM      2  N   UNL     1     -11.454   3.761  22.483  0.00  0.00    -0.372 N 
ATOM      3  N   UNL     1      -9.756   4.089  23.991  0.00  0.00    -0.372 N 
ATOM      4  C   UNL     1     -10.586   3.249  23.364  0.00  0.00    +0.166 C 
ATOM      5  H   UNL     1     -11.247   1.349  23.105  0.00  0.00    +0.163 HD
ATOM      6  H   UNL     1     -11.486   4.753  22.288  0.00  0.00    +0.159 HD
ATOM      7  H   UNL     1     -12.097   3.174  21.965  0.00  0.00    +0.159 HD
ATOM      8  H   UNL     1      -9.081   3.766  24.671  0.00  0.00    +0.159 HD
ATOM      9  H   UNL     1      -9.781   5.086  23.818  0.00  0.00    +0.159 HD
ENDROOT
BRANCH   1  10
ATOM     10  C   UNL     1      -9.630   1.264  24.489  0.00  0.00    +0.151 C 
BRANCH  10  11
ATOM     11  C   UNL     1      -8.853   0.235  23.714  0.00  0.00    -0.028 A 
ATOM     12  C   UNL     1      -8.710  -1.070  24.207  0.00  0.00    +0.005 A 
ATOM     13  C   UNL     1      -8.262   0.559  22.483  0.00  0.00    +0.005 A 
ATOM     14  C   UNL     1      -8.014  -2.033  23.474  0.00  0.00    +0.000 A 
ATOM     15  C   UNL     1      -7.567  -0.406  21.754  0.00  0.00    +0.000 A 
ATOM     16  C   UNL     1      -7.446  -1.702  22.248  0.00  0.00    +0.000 A 
ENDBRANCH  10  11
ENDBRANCH   1  10
TORSDOF 2
ENDMDL
