MODEL 1
REMARK VINA RESULT:    -4.980      0.000      0.000
REMARK INTER + INTRA:          -5.698
REMARK INTER:                  -5.562
REMARK INTRA:                  -0.136
REMARK UNBOUND:                -0.136
REMARK  Name = 1550473
REMARK  2 active torsions:
REMARK  status: ('A' for Active; 'I' for Inactive)
REMARK    1  A    between atoms: N_1  and  C_4
REMARK    2  A    between atoms: C_4  and  C_5
REMARK                            x       y       z     vdW  Elec       q    Type
REMARK                         _______ _______ _______ _____ _____    ______ ____
ROOT
ATOM      1  N   UNL     1       8.864  -0.923 -14.974  0.00  0.00    -0.354 N 
ATOM      2  N   UNL     1       8.143  -2.841 -13.893  0.00  0.00    -0.372 N 
ATOM      3  N   UNL     1       6.948  -2.066 -15.692  0.00  0.00    -0.372 N 
ATOM      4  C   UNL     1       7.988  -1.930 -14.862  0.00  0.00    +0.166 C 
ATOM      5  H   UNL     1       9.614  -0.860 -14.294  0.00  0.00    +0.163 HD
ATOM      6  H   UNL     1       7.500  -3.613 -13.786  0.00  0.00    +0.159 HD
ATOM      7  H   UNL     1       8.919  -2.801 -13.244  0.00  0.00    +0.159 HD
ATOM      8  H   UNL     1       6.772  -1.409 -16.441  0.00  0.00    +0.159 HD
ATOM      9  H   UNL     1       6.287  -2.826 -15.594  0.00  0.00    +0.159 HD
ENDROOT
BRANCH   1  10
ATOM     10  C   UNL     1       8.816   0.090 -16.027  0.00  0.00    +0.151 C 
BRANCH  10  11
ATOM     11  C   UNL     1       8.826   1.455 -15.396  0.00  0.00    -0.028 A 
ATOM     12  C   UNL     1       8.458   1.621 -14.052  0.00  0.00    +0.005 A 
ATOM     13  C   UNL     1       9.208   2.585 -16.134  0.00  0.00    +0.005 A 
ATOM     14  C   UNL     1       8.496   2.884 -13.457  0.00  0.00    +0.000 A 
ATOM     15  C   UNL     1       9.244   3.845 -15.536  0.00  0.00    +0.000 A 
ATOM     16  C   UNL     1       8.890   3.994 -14.198  0.00  0.00    +0.000 A 
ENDBRANCH  10  11
ENDBRANCH   1  10
TORSDOF 2
ENDMDL
MODEL 2
REMARK VINA RESULT:    -4.951     12.965     14.336
REMARK INTER + INTRA:          -5.666
REMARK INTER:                  -5.538
REMARK INTRA:                  -0.128
REMARK UNBOUND:                -0.136
REMARK  Name = 1550473
REMARK  2 active torsions:
REMARK  status: ('A' for Active; 'I' for Inactive)
REMARK    1  A    between atoms: N_1  and  C_4
REMARK    2  A    between atoms: C_4  and  C_5
REMARK                            x       y       z     vdW  Elec       q    Type
REMARK                         _______ _______ _______ _____ _____    ______ ____
ROOT
ATOM      1  N   UNL     1       1.957   8.310  -6.793  0.00  0.00    -0.354 N 
ATOM      2  N   UNL     1       1.108   6.975  -8.484  0.00  0.00    -0.372 N 
ATOM      3  N   UNL     1       3.358   6.904  -8.039  0.00  0.00    -0.372 N 
ATOM      4  C   UNL     1       2.149   7.405  -7.762  0.00  0.00    +0.166 C 
ATOM      5  H   UNL     1       1.021   8.673  -6.652  0.00  0.00    +0.163 HD
ATOM      6  H   UNL     1       1.222   6.289  -9.219  0.00  0.00    +0.159 HD
ATOM      7  H   UNL     1       0.166   7.305  -8.311  0.00  0.00    +0.159 HD
ATOM      8  H   UNL     1       4.185   7.192  -7.535  0.00  0.00    +0.159 HD
ATOM      9  H   UNL     1       3.494   6.226  -8.779  0.00  0.00    +0.159 HD
ENDROOT
BRANCH   1  10
ATOM     10  C   UNL     1       3.015   8.804  -5.914  0.00  0.00    +0.151 C 
BRANCH  10  11
ATOM     11  C   UNL     1       2.467   8.948  -4.520  0.00  0.00    -0.028 A 
ATOM     12  C   UNL     1       3.322   8.891  -3.410  0.00  0.00    +0.005 A 
ATOM     13  C   UNL     1       1.095   9.148  -4.304  0.00  0.00    +0.005 A 
ATOM     14  C   UNL     1       2.819   9.055  -2.117  0.00  0.00    +0.000 A 
ATOM     15  C   UNL     1       0.596   9.310  -3.012  0.00  0.00    +0.000 A 
ATOM     16  C   UNL     1       1.458   9.266  -1.919  0.00  0.00    +0.000 A 
ENDBRANCH  10  11
ENDBRANCH   1  10
TORSDOF 2
ENDMDL
MODEL 3
REMARK VINA RESULT:    -4.715     24.546     26.071
REMARK INTER + INTRA:          -5.402
REMARK INTER:                  -5.282
REMARK INTRA:                  -0.120
REMARK UNBOUND:                -0.136
REMARK  Name = 1550473
REMARK  2 active torsions:
REMARK  status: ('A' for Active; 'I' for Inactive)
REMARK    1  A    between atoms: N_1  and  C_4
REMARK    2  A    between atoms: C_4  and  C_5
REMARK                            x       y       z     vdW  Elec       q    Type
REMARK                         _______ _______ _______ _____ _____    ______ ____
ROOT
ATOM      1  N   UNL     1       5.576  13.321   8.641  0.00  0.00    -0.354 N 
ATOM      2  N   UNL     1       4.478  15.326   9.016  0.00  0.00    -0.372 N 
ATOM      3  N   UNL     1       6.221  14.742  10.389  0.00  0.00    -0.372 N 
ATOM      4  C   UNL     1       5.434  14.450   9.348  0.00  0.00    +0.166 C 
ATOM      5  H   UNL     1       4.928  13.144   7.882  0.00  0.00    +0.163 HD
ATOM      6  H   UNL     1       4.349  16.187   9.529  0.00  0.00    +0.159 HD
ATOM      7  H   UNL     1       3.861  15.168   8.228  0.00  0.00    +0.159 HD
ATOM      8  H   UNL     1       6.958  14.120  10.695  0.00  0.00    +0.159 HD
ATOM      9  H   UNL     1       6.101  15.594  10.922  0.00  0.00    +0.159 HD
ENDROOT
BRANCH   1  10
ATOM     10  C   UNL     1       6.619  12.327   8.887  0.00  0.00    +0.151 C 
BRANCH  10  11
ATOM     11  C   UNL     1       6.501  11.228   7.867  0.00  0.00    -0.028 A 
ATOM     12  C   UNL     1       5.842  11.454   6.650  0.00  0.00    +0.005 A 
ATOM     13  C   UNL     1       7.052   9.960   8.110  0.00  0.00    +0.005 A 
ATOM     14  C   UNL     1       5.758  10.442   5.690  0.00  0.00    +0.000 A 
ATOM     15  C   UNL     1       6.965   8.953   7.150  0.00  0.00    +0.000 A 
ATOM     16  C   UNL     1       6.321   9.195   5.939  0.00  0.00    +0.000 A 
ENDBRANCH  10  11
ENDBRANCH   1  10
TORSDOF 2
ENDMDL
MODEL 4
REMARK VINA RESULT:    -4.711     21.309     22.752
REMARK INTER + INTRA:          -5.398
REMARK INTER:                  -5.264
REMARK INTRA:                  -0.134
REMARK UNBOUND:                -0.136
REMARK  Name = 1550473
REMARK  2 active torsions:
REMARK  status: ('A' for Active; 'I' for Inactive)
REMARK    1  A    between atoms: N_1  and  C_4
REMARK    2  A    between atoms: C_4  and  C_5
REMARK                            x       y       z     vdW  Elec       q    Type
REMARK                         _______ _______ _______ _____ _____    ______ ____
ROOT
ATOM      1  N   UNL     1       6.711   9.252   4.105  0.00  0.00    -0.354 N 
ATOM      2  N   UNL     1       7.938   8.562   2.266  0.00  0.00    -0.372 N 
ATOM      3  N   UNL     1       6.183  10.006   1.950  0.00  0.00    -0.372 N 
ATOM      4  C   UNL     1       6.934   9.279   2.784  0.00  0.00    +0.166 C 
ATOM      5  H   UNL     1       7.297   8.658   4.680  0.00  0.00    +0.163 HD
ATOM      6  H   UNL     1       8.132   8.565   1.273  0.00  0.00    +0.159 HD
ATOM      7  H   UNL     1       8.551   8.004   2.848  0.00  0.00    +0.159 HD
ATOM      8  H   UNL     1       5.406  10.565   2.277  0.00  0.00    +0.159 HD
ATOM      9  H   UNL     1       6.354  10.013   0.952  0.00  0.00    +0.159 HD
ENDROOT
BRANCH   1  10
ATOM     10  C   UNL     1       5.678  10.039   4.776  0.00  0.00    +0.151 C 
BRANCH  10  11
ATOM     11  C   UNL     1       6.186  10.467   6.125  0.00  0.00    -0.028 A 
ATOM     12  C   UNL     1       5.361  11.191   7.000  0.00  0.00    +0.005 A 
ATOM     13  C   UNL     1       7.488  10.147   6.538  0.00  0.00    +0.005 A 
ATOM     14  C   UNL     1       5.822  11.563   8.265  0.00  0.00    +0.000 A 
ATOM     15  C   UNL     1       7.945  10.521   7.802  0.00  0.00    +0.000 A 
ATOM     16  C   UNL     1       7.111  11.226   8.666  0.00  0.00    +0.000 A 
ENDBRANCH  10  11
ENDBRANCH   1  10
TORSDOF 2
ENDMDL
MODEL 5
REMARK VINA RESULT:    -4.495     10.479     10.828
REMARK INTER + INTRA:          -5.156
REMARK INTER:                  -5.011
REMARK INTRA:                  -0.145
REMARK UNBOUND:                -0.136
REMARK  Name = 1550473
REMARK  2 active torsions:
REMARK  status: ('A' for Active; 'I' for Inactive)
REMARK    1  A    between atoms: N_1  and  C_4
REMARK    2  A    between atoms: C_4  and  C_5
REMARK                            x       y       z     vdW  Elec       q    Type
REMARK                         _______ _______ _______ _____ _____    ______ ____
ROOT
ATOM      1  N   UNL     1      -1.346  -0.323 -18.393  0.00  0.00    -0.354 N 
ATOM      2  N   UNL     1      -0.068  -2.007 -17.448  0.00  0.00    -0.372 N 
ATOM      3  N   UNL     1       0.886  -0.645 -19.029  0.00  0.00    -0.372 N 
ATOM      4  C   UNL     1      -0.182  -0.979 -18.298  0.00  0.00    +0.166 C 
ATOM      5  H   UNL     1      -2.128  -0.645 -17.833  0.00  0.00    +0.163 HD
ATOM      6  H   UNL     1       0.799  -2.519 -17.353  0.00  0.00    +0.159 HD
ATOM      7  H   UNL     1      -0.836  -2.298 -16.857  0.00  0.00    +0.159 HD
ATOM      8  H   UNL     1       0.863   0.118 -19.693  0.00  0.00    +0.159 HD
ATOM      9  H   UNL     1       1.759  -1.153 -18.956  0.00  0.00    +0.159 HD
ENDROOT
BRANCH   1  10
ATOM     10  C   UNL     1      -1.560   0.844 -19.248  0.00  0.00    +0.151 C 
BRANCH  10  11
ATOM     11  C   UNL     1      -2.094   1.974 -18.412  0.00  0.00    -0.028 A 
ATOM     12  C   UNL     1      -1.314   2.533 -17.389  0.00  0.00    +0.005 A 
ATOM     13  C   UNL     1      -3.377   2.494 -18.642  0.00  0.00    +0.005 A 
ATOM     14  C   UNL     1      -1.798   3.603 -16.632  0.00  0.00    +0.000 A 
ATOM     15  C   UNL     1      -3.857   3.562 -17.884  0.00  0.00    +0.000 A 
ATOM     16  C   UNL     1      -3.066   4.118 -16.881  0.00  0.00    +0.000 A 
ENDBRANCH  10  11
ENDBRANCH   1  10
TORSDOF 2
ENDMDL
MODEL 6
REMARK VINA RESULT:    -4.356     16.365     17.060
REMARK INTER + INTRA:          -5.001
REMARK INTER:                  -4.871
REMARK INTRA:                  -0.130
REMARK UNBOUND:                -0.136
REMARK  Name = 1550473
REMARK  2 active torsions:
REMARK  status: ('A' for Active; 'I' for Inactive)
REMARK    1  A    between atoms: N_1  and  C_4
REMARK    2  A    between atoms: C_4  and  C_5
REMARK                            x       y       z     vdW  Elec       q    Type
REMARK                         _______ _______ _______ _____ _____    ______ ____
ROOT
ATOM      1  N   UNL     1      -0.453 -12.315 -13.441  0.00  0.00    -0.354 N 
ATOM      2  N   UNL     1      -2.385 -11.040 -13.372  0.00  0.00    -0.372 N 
ATOM      3  N   UNL     1      -1.788 -12.249 -11.516  0.00  0.00    -0.372 N 
ATOM      4  C   UNL     1      -1.530 -11.877 -12.774  0.00  0.00    +0.166 C 
ATOM      5  H   UNL     1      -0.330 -12.020 -14.403  0.00  0.00    +0.163 HD
ATOM      6  H   UNL     1      -3.204 -10.690 -12.894  0.00  0.00    +0.159 HD
ATOM      7  H   UNL     1      -2.235 -10.711 -14.318  0.00  0.00    +0.159 HD
ATOM      8  H   UNL     1      -1.184 -12.883 -11.010  0.00  0.00    +0.159 HD
ATOM      9  H   UNL     1      -2.609 -11.919 -11.024  0.00  0.00    +0.159 HD
ENDROOT
BRANCH   1  10
ATOM     10  C   UNL     1       0.569 -13.186 -12.862  0.00  0.00    +0.151 C 
BRANCH  10  11
ATOM     11  C   UNL     1       1.217 -13.980 -13.963  0.00  0.00    -0.028 A 
ATOM     12  C   UNL     1       0.725 -13.913 -15.274  0.00  0.00    +0.005 A 
ATOM     13  C   UNL     1       2.329 -14.796 -13.701  0.00  0.00    +0.005 A 
ATOM     14  C   UNL     1       1.345 -14.627 -16.302  0.00  0.00    +0.000 A 
ATOM     15  C   UNL     1       2.945 -15.507 -14.730  0.00  0.00    +0.000 A 
ATOM     16  C   UNL     1       2.455 -15.421 -16.031  0.00  0.00    +0.000 A 
ENDBRANCH  10  11
ENDBRANCH   1  10
TORSDOF 2
ENDMDL
MODEL 7
REMARK VINA RESULT:    -4.272      1.300      2.171
REMARK INTER + INTRA:          -4.908
REMARK INTER:                  -4.774
REMARK INTRA:                  -0.134
REMARK UNBOUND:                -0.136
REMARK  Name = 1550473
REMARK  2 active torsions:
REMARK  status: ('A' for Active; 'I' for Inactive)
REMARK    1  A    between atoms: N_1  and  C_4
REMARK    2  A    between atoms: C_4  and  C_5
REMARK                            x       y       z     vdW  Elec       q    Type
REMARK                         _______ _______ _______ _____ _____    ______ ____
ROOT
ATOM      1  N   UNL     1       7.929  -0.980 -16.259  0.00  0.00    -0.354 N 
ATOM      2  N   UNL     1       7.969  -2.741 -17.762  0.00  0.00    -0.372 N 
ATOM      3  N   UNL     1       8.702  -3.097 -15.617  0.00  0.00    -0.372 N 
ATOM      4  C   UNL     1       8.201  -2.262 -16.534  0.00  0.00    +0.166 C 
ATOM      5  H   UNL     1       7.579  -0.391 -17.006  0.00  0.00    +0.163 HD
ATOM      6  H   UNL     1       8.161  -3.705 -17.998  0.00  0.00    +0.159 HD
ATOM      7  H   UNL     1       7.576  -2.162 -18.494  0.00  0.00    +0.159 HD
ATOM      8  H   UNL     1       8.905  -2.796 -14.673  0.00  0.00    +0.159 HD
ATOM      9  H   UNL     1       8.912  -4.062 -15.838  0.00  0.00    +0.159 HD
ENDROOT
BRANCH   1  10
ATOM     10  C   UNL     1       8.095  -0.374 -14.939  0.00  0.00    +0.151 C 
BRANCH  10  11
ATOM     11  C   UNL     1       8.510   1.062 -15.106  0.00  0.00    -0.028 A 
ATOM     12  C   UNL     1       8.974   1.529 -16.344  0.00  0.00    +0.005 A 
ATOM     13  C   UNL     1       8.435   1.962 -14.031  0.00  0.00    +0.005 A 
ATOM     14  C   UNL     1       9.331   2.870 -16.508  0.00  0.00    +0.000 A 
ATOM     15  C   UNL     1       8.794   3.299 -14.199  0.00  0.00    +0.000 A 
ATOM     16  C   UNL     1       9.239   3.753 -15.437  0.00  0.00    +0.000 A 
ENDBRANCH  10  11
ENDBRANCH   1  10
TORSDOF 2
ENDMDL
MODEL 8
REMARK VINA RESULT:    -4.243     16.315     16.941
REMARK INTER + INTRA:          -4.875
REMARK INTER:                  -4.750
REMARK INTRA:                  -0.125
REMARK UNBOUND:                -0.136
REMARK  Name = 1550473
REMARK  2 active torsions:
REMARK  status: ('A' for Active; 'I' for Inactive)
REMARK    1  A    between atoms: N_1  and  C_4
REMARK    2  A    between atoms: C_4  and  C_5
REMARK                            x       y       z     vdW  Elec       q    Type
REMARK                         _______ _______ _______ _____ _____    ______ ____
ROOT
ATOM      1  N   UNL     1       1.583 -12.802  -9.166  0.00  0.00    -0.354 N 
ATOM      2  N   UNL     1       3.547 -12.927  -7.945  0.00  0.00    -0.372 N 
ATOM      3  N   UNL     1       1.627 -13.814  -7.053  0.00  0.00    -0.372 N 
ATOM      4  C   UNL     1       2.238 -13.181  -8.061  0.00  0.00    +0.166 C 
ATOM      5  H   UNL     1       2.096 -12.299  -9.881  0.00  0.00    +0.163 HD
ATOM      6  H   UNL     1       4.068 -13.205  -7.124  0.00  0.00    +0.159 HD
ATOM      7  H   UNL     1       4.067 -12.465  -8.680  0.00  0.00    +0.159 HD
ATOM      8  H   UNL     1       0.640 -14.030  -7.077  0.00  0.00    +0.159 HD
ATOM      9  H   UNL     1       2.129 -14.090  -6.219  0.00  0.00    +0.159 HD
ENDROOT
BRANCH   1  10
ATOM     10  C   UNL     1       0.169 -13.078  -9.415  0.00  0.00    +0.151 C 
BRANCH  10  11
ATOM     11  C   UNL     1      -0.096 -12.989 -10.892  0.00  0.00    -0.028 A 
ATOM     12  C   UNL     1      -1.377 -12.671 -11.368  0.00  0.00    +0.005 A 
ATOM     13  C   UNL     1       0.930 -13.217 -11.822  0.00  0.00    +0.005 A 
ATOM     14  C   UNL     1      -1.617 -12.559 -12.739  0.00  0.00    +0.000 A 
ATOM     15  C   UNL     1       0.686 -13.106 -13.191  0.00  0.00    +0.000 A 
ATOM     16  C   UNL     1      -0.587 -12.774 -13.649  0.00  0.00    +0.000 A 
ENDBRANCH  10  11
ENDBRANCH   1  10
TORSDOF 2
ENDMDL
MODEL 9
REMARK VINA RESULT:    -4.221     20.686     21.903
REMARK INTER + INTRA:          -4.850
REMARK INTER:                  -4.719
REMARK INTRA:                  -0.132
REMARK UNBOUND:                -0.136
REMARK  Name = 1550473
REMARK  2 active torsions:
REMARK  status: ('A' for Active; 'I' for Inactive)
REMARK    1  A    between atoms: N_1  and  C_4
REMARK    2  A    between atoms: C_4  and  C_5
REMARK                            x       y       z     vdW  Elec       q    Type
REMARK                         _______ _______ _______ _____ _____    ______ ____
ROOT
ATOM      1  N   UNL     1       8.049  -3.653   4.529  0.00  0.00    -0.354 N 
ATOM      2  N   UNL     1       9.365  -3.408   2.639  0.00  0.00    -0.372 N 
ATOM      3  N   UNL     1       7.567  -2.012   2.927  0.00  0.00    -0.372 N 
ATOM      4  C   UNL     1       8.316  -3.024   3.377  0.00  0.00    +0.166 C 
ATOM      5  H   UNL     1       8.638  -4.432   4.800  0.00  0.00    +0.163 HD
ATOM      6  H   UNL     1       9.593  -2.950   1.767  0.00  0.00    +0.159 HD
ATOM      7  H   UNL     1       9.978  -4.158   2.935  0.00  0.00    +0.159 HD
ATOM      8  H   UNL     1       6.758  -1.678   3.434  0.00  0.00    +0.159 HD
ATOM      9  H   UNL     1       7.772  -1.549   2.051  0.00  0.00    +0.159 HD
ENDROOT
BRANCH   1  10
ATOM     10  C   UNL     1       6.964  -3.277   5.433  0.00  0.00    +0.151 C 
BRANCH  10  11
ATOM     11  C   UNL     1       7.383  -3.560   6.849  0.00  0.00    -0.028 A 
ATOM     12  C   UNL     1       8.742  -3.673   7.180  0.00  0.00    +0.005 A 
ATOM     13  C   UNL     1       6.428  -3.709   7.866  0.00  0.00    +0.005 A 
ATOM     14  C   UNL     1       9.133  -3.906   8.501  0.00  0.00    +0.000 A 
ATOM     15  C   UNL     1       6.823  -3.942   9.184  0.00  0.00    +0.000 A 
ATOM     16  C   UNL     1       8.176  -4.038   9.501  0.00  0.00    +0.000 A 
ENDBRANCH  10  11
ENDBRANCH   1  10
TORSDOF 2
ENDMDL
