MODEL 1
REMARK VINA RESULT:    -5.688      0.000      0.000
REMARK INTER + INTRA:          -6.458
REMARK INTER:                  -6.353
REMARK INTRA:                  -0.105
REMARK UNBOUND:                -0.105
REMARK  Name = 1550473
REMARK  2 active torsions:
REMARK  status: ('A' for Active; 'I' for Inactive)
REMARK    1  A    between atoms: N_1  and  C_4
REMARK    2  A    between atoms: C_4  and  C_5
REMARK                            x       y       z     vdW  Elec       q    Type
REMARK                         _______ _______ _______ _____ _____    ______ ____
ROOT
ATOM      1  N   UNL     1      -2.252  13.093  -6.875  0.00  0.00    -0.354 N 
ATOM      2  N   UNL     1      -1.759  10.949  -7.601  0.00  0.00    -0.372 N 
ATOM      3  N   UNL     1      -3.584  12.027  -8.482  0.00  0.00    -0.372 N 
ATOM      4  C   UNL     1      -2.537  12.037  -7.649  0.00  0.00    +0.166 C 
ATOM      5  H   UNL     1      -1.462  13.026  -6.243  0.00  0.00    +0.163 HD
ATOM      6  H   UNL     1      -1.947  10.139  -8.176  0.00  0.00    +0.159 HD
ATOM      7  H   UNL     1      -0.944  10.904  -7.002  0.00  0.00    +0.159 HD
ATOM      8  H   UNL     1      -4.213  12.814  -8.560  0.00  0.00    +0.159 HD
ATOM      9  H   UNL     1      -3.795  11.221  -9.057  0.00  0.00    +0.159 HD
ENDROOT
BRANCH   1  10
ATOM     10  C   UNL     1      -3.004  14.346  -6.891  0.00  0.00    +0.151 C 
BRANCH  10  11
ATOM     11  C   UNL     1      -2.134  15.448  -6.354  0.00  0.00    -0.028 A 
ATOM     12  C   UNL     1      -1.470  15.299  -5.128  0.00  0.00    +0.005 A 
ATOM     13  C   UNL     1      -1.964  16.643  -7.070  0.00  0.00    +0.005 A 
ATOM     14  C   UNL     1      -0.637  16.310  -4.643  0.00  0.00    +0.000 A 
ATOM     15  C   UNL     1      -1.132  17.651  -6.583  0.00  0.00    +0.000 A 
ATOM     16  C   UNL     1      -0.467  17.484  -5.371  0.00  0.00    +0.000 A 
ENDBRANCH  10  11
ENDBRANCH   1  10
TORSDOF 2
ENDMDL
MODEL 2
REMARK VINA RESULT:    -5.669     11.296     12.179
REMARK INTER + INTRA:          -6.437
REMARK INTER:                  -6.311
REMARK INTRA:                  -0.125
REMARK UNBOUND:                -0.105
REMARK  Name = 1550473
REMARK  2 active torsions:
REMARK  status: ('A' for Active; 'I' for Inactive)
REMARK    1  A    between atoms: N_1  and  C_4
REMARK    2  A    between atoms: C_4  and  C_5
REMARK                            x       y       z     vdW  Elec       q    Type
REMARK                         _______ _______ _______ _____ _____    ______ ____
ROOT
ATOM      1  N   UNL     1       6.437   9.373  -4.210  0.00  0.00    -0.354 N 
ATOM      2  N   UNL     1       4.128   9.404  -4.395  0.00  0.00    -0.372 N 
ATOM      3  N   UNL     1       5.341   8.108  -5.850  0.00  0.00    -0.372 N 
ATOM      4  C   UNL     1       5.318   8.960  -4.819  0.00  0.00    +0.166 C 
ATOM      5  H   UNL     1       6.354  10.043  -3.453  0.00  0.00    +0.163 HD
ATOM      6  H   UNL     1       3.267   9.107  -4.833  0.00  0.00    +0.159 HD
ATOM      7  H   UNL     1       4.045  10.038  -3.610  0.00  0.00    +0.159 HD
ATOM      8  H   UNL     1       6.207   7.741  -6.222  0.00  0.00    +0.159 HD
ATOM      9  H   UNL     1       4.490   7.809  -6.309  0.00  0.00    +0.159 HD
ENDROOT
BRANCH   1  10
ATOM     10  C   UNL     1       7.778   8.909  -4.559  0.00  0.00    +0.151 C 
BRANCH  10  11
ATOM     11  C   UNL     1       8.574   8.712  -3.299  0.00  0.00    -0.028 A 
ATOM     12  C   UNL     1       9.585   7.742  -3.239  0.00  0.00    +0.005 A 
ATOM     13  C   UNL     1       8.326   9.498  -2.162  0.00  0.00    +0.005 A 
ATOM     14  C   UNL     1      10.345   7.580  -2.078  0.00  0.00    +0.000 A 
ATOM     15  C   UNL     1       9.086   9.332  -1.005  0.00  0.00    +0.000 A 
ATOM     16  C   UNL     1      10.097   8.375  -0.964  0.00  0.00    +0.000 A 
ENDBRANCH  10  11
ENDBRANCH   1  10
TORSDOF 2
ENDMDL
MODEL 3
REMARK VINA RESULT:    -5.669     19.927     21.629
REMARK INTER + INTRA:          -6.436
REMARK INTER:                  -6.309
REMARK INTRA:                  -0.128
REMARK UNBOUND:                -0.105
REMARK  Name = 1550473
REMARK  2 active torsions:
REMARK  status: ('A' for Active; 'I' for Inactive)
REMARK    1  A    between atoms: N_1  and  C_4
REMARK    2  A    between atoms: C_4  and  C_5
REMARK                            x       y       z     vdW  Elec       q    Type
REMARK                         _______ _______ _______ _____ _____    ______ ____
ROOT
ATOM      1  N   UNL     1      10.738  24.297   9.605  0.00  0.00    -0.354 N 
ATOM      2  N   UNL     1      12.971  24.608  10.133  0.00  0.00    -0.372 N 
ATOM      3  N   UNL     1      11.939  26.117   8.746  0.00  0.00    -0.372 N 
ATOM      4  C   UNL     1      11.868  25.008   9.489  0.00  0.00    +0.166 C 
ATOM      5  H   UNL     1      10.757  23.449  10.159  0.00  0.00    +0.163 HD
ATOM      6  H   UNL     1      13.837  25.126  10.067  0.00  0.00    +0.159 HD
ATOM      7  H   UNL     1      12.975  23.785  10.723  0.00  0.00    +0.159 HD
ATOM      8  H   UNL     1      11.143  26.468   8.231  0.00  0.00    +0.159 HD
ATOM      9  H   UNL     1      12.800  26.642   8.659  0.00  0.00    +0.159 HD
ENDROOT
BRANCH   1  10
ATOM     10  C   UNL     1       9.467  24.676   8.989  0.00  0.00    +0.151 C 
BRANCH  10  11
ATOM     11  C   UNL     1       8.731  23.431   8.576  0.00  0.00    -0.028 A 
ATOM     12  C   UNL     1       7.352  23.312   8.800  0.00  0.00    +0.005 A 
ATOM     13  C   UNL     1       9.407  22.369   7.954  0.00  0.00    +0.005 A 
ATOM     14  C   UNL     1       6.663  22.168   8.390  0.00  0.00    +0.000 A 
ATOM     15  C   UNL     1       8.715  21.229   7.547  0.00  0.00    +0.000 A 
ATOM     16  C   UNL     1       7.343  21.130   7.762  0.00  0.00    +0.000 A 
ENDBRANCH  10  11
ENDBRANCH   1  10
TORSDOF 2
ENDMDL
MODEL 4
REMARK VINA RESULT:    -5.565     16.430     17.584
REMARK INTER + INTRA:          -6.321
REMARK INTER:                  -6.220
REMARK INTRA:                  -0.101
REMARK UNBOUND:                -0.105
REMARK  Name = 1550473
REMARK  2 active torsions:
REMARK  status: ('A' for Active; 'I' for Inactive)
REMARK    1  A    between atoms: N_1  and  C_4
REMARK    2  A    between atoms: C_4  and  C_5
REMARK                            x       y       z     vdW  Elec       q    Type
REMARK                         _______ _______ _______ _____ _____    ______ ____
ROOT
ATOM      1  N   UNL     1       4.147   6.944   7.614  0.00  0.00    -0.354 N 
ATOM      2  N   UNL     1       3.666   4.753   7.039  0.00  0.00    -0.372 N 
ATOM      3  N   UNL     1       3.203   6.421   5.534  0.00  0.00    -0.372 N 
ATOM      4  C   UNL     1       3.674   6.055   6.730  0.00  0.00    +0.166 C 
ATOM      5  H   UNL     1       4.461   6.605   8.516  0.00  0.00    +0.163 HD
ATOM      6  H   UNL     1       3.318   4.058   6.391  0.00  0.00    +0.159 HD
ATOM      7  H   UNL     1       4.023   4.412   7.923  0.00  0.00    +0.159 HD
ATOM      8  H   UNL     1       3.176   7.389   5.242  0.00  0.00    +0.159 HD
ATOM      9  H   UNL     1       2.840   5.742   4.876  0.00  0.00    +0.159 HD
ENDROOT
BRANCH   1  10
ATOM     10  C   UNL     1       4.249   8.379   7.355  0.00  0.00    +0.151 C 
BRANCH  10  11
ATOM     11  C   UNL     1       4.451   9.100   8.659  0.00  0.00    -0.028 A 
ATOM     12  C   UNL     1       3.407   9.190   9.591  0.00  0.00    +0.005 A 
ATOM     13  C   UNL     1       5.685   9.691   8.971  0.00  0.00    +0.005 A 
ATOM     14  C   UNL     1       3.602   9.834  10.816  0.00  0.00    +0.000 A 
ATOM     15  C   UNL     1       5.876  10.334  10.194  0.00  0.00    +0.000 A 
ATOM     16  C   UNL     1       4.835  10.403  11.117  0.00  0.00    +0.000 A 
ENDBRANCH  10  11
ENDBRANCH   1  10
TORSDOF 2
ENDMDL
MODEL 5
REMARK VINA RESULT:    -5.257     11.154     11.849
REMARK INTER + INTRA:          -5.976
REMARK INTER:                  -5.836
REMARK INTRA:                  -0.140
REMARK UNBOUND:                -0.105
REMARK  Name = 1550473
REMARK  2 active torsions:
REMARK  status: ('A' for Active; 'I' for Inactive)
REMARK    1  A    between atoms: N_1  and  C_4
REMARK    2  A    between atoms: C_4  and  C_5
REMARK                            x       y       z     vdW  Elec       q    Type
REMARK                         _______ _______ _______ _____ _____    ______ ____
ROOT
ATOM      1  N   UNL     1       7.116  19.847  -1.400  0.00  0.00    -0.354 N 
ATOM      2  N   UNL     1       7.185  18.810  -3.470  0.00  0.00    -0.372 N 
ATOM      3  N   UNL     1       7.602  17.562  -1.590  0.00  0.00    -0.372 N 
ATOM      4  C   UNL     1       7.301  18.744  -2.138  0.00  0.00    +0.166 C 
ATOM      5  H   UNL     1       6.920  20.719  -1.878  0.00  0.00    +0.163 HD
ATOM      6  H   UNL     1       7.316  17.994  -4.053  0.00  0.00    +0.159 HD
ATOM      7  H   UNL     1       6.943  19.673  -3.942  0.00  0.00    +0.159 HD
ATOM      8  H   UNL     1       7.710  17.447  -0.592  0.00  0.00    +0.159 HD
ATOM      9  H   UNL     1       7.748  16.737  -2.158  0.00  0.00    +0.159 HD
ENDROOT
BRANCH   1  10
ATOM     10  C   UNL     1       7.167  19.870   0.061  0.00  0.00    +0.151 C 
BRANCH  10  11
ATOM     11  C   UNL     1       5.953  20.588   0.583  0.00  0.00    -0.028 A 
ATOM     12  C   UNL     1       5.624  20.530   1.945  0.00  0.00    +0.005 A 
ATOM     13  C   UNL     1       5.132  21.331  -0.278  0.00  0.00    +0.005 A 
ATOM     14  C   UNL     1       4.513  21.221   2.436  0.00  0.00    +0.000 A 
ATOM     15  C   UNL     1       4.023  22.019   0.216  0.00  0.00    +0.000 A 
ATOM     16  C   UNL     1       3.716  21.966   1.574  0.00  0.00    +0.000 A 
ENDBRANCH  10  11
ENDBRANCH   1  10
TORSDOF 2
ENDMDL
MODEL 6
REMARK VINA RESULT:    -5.182     29.775     30.916
REMARK INTER + INTRA:          -5.892
REMARK INTER:                  -5.754
REMARK INTRA:                  -0.138
REMARK UNBOUND:                -0.105
REMARK  Name = 1550473
REMARK  2 active torsions:
REMARK  status: ('A' for Active; 'I' for Inactive)
REMARK    1  A    between atoms: N_1  and  C_4
REMARK    2  A    between atoms: C_4  and  C_5
REMARK                            x       y       z     vdW  Elec       q    Type
REMARK                         _______ _______ _______ _____ _____    ______ ____
ROOT
ATOM      1  N   UNL     1      -1.484  20.215  23.440  0.00  0.00    -0.354 N 
ATOM      2  N   UNL     1      -2.021  21.834  21.873  0.00  0.00    -0.372 N 
ATOM      3  N   UNL     1      -0.639  22.394  23.617  0.00  0.00    -0.372 N 
ATOM      4  C   UNL     1      -1.376  21.472  22.989  0.00  0.00    +0.166 C 
ATOM      5  H   UNL     1      -2.082  19.572  22.934  0.00  0.00    +0.163 HD
ATOM      6  H   UNL     1      -1.956  22.774  21.507  0.00  0.00    +0.159 HD
ATOM      7  H   UNL     1      -2.582  21.177  21.345  0.00  0.00    +0.159 HD
ATOM      8  H   UNL     1      -0.132  22.186  24.467  0.00  0.00    +0.159 HD
ATOM      9  H   UNL     1      -0.571  23.343  23.273  0.00  0.00    +0.159 HD
ENDROOT
BRANCH   1  10
ATOM     10  C   UNL     1      -0.779  19.705  24.615  0.00  0.00    +0.151 C 
BRANCH  10  11
ATOM     11  C   UNL     1       0.009  18.485  24.223  0.00  0.00    -0.028 A 
ATOM     12  C   UNL     1       1.220  18.184  24.864  0.00  0.00    +0.005 A 
ATOM     13  C   UNL     1      -0.453  17.623  23.217  0.00  0.00    +0.005 A 
ATOM     14  C   UNL     1       1.937  17.035  24.522  0.00  0.00    +0.000 A 
ATOM     15  C   UNL     1       0.267  16.478  22.877  0.00  0.00    +0.000 A 
ATOM     16  C   UNL     1       1.460  16.183  23.532  0.00  0.00    +0.000 A 
ENDBRANCH  10  11
ENDBRANCH   1  10
TORSDOF 2
ENDMDL
MODEL 7
REMARK VINA RESULT:    -5.114     19.190     20.411
REMARK INTER + INTRA:          -5.817
REMARK INTER:                  -5.697
REMARK INTRA:                  -0.119
REMARK UNBOUND:                -0.105
REMARK  Name = 1550473
REMARK  2 active torsions:
REMARK  status: ('A' for Active; 'I' for Inactive)
REMARK    1  A    between atoms: N_1  and  C_4
REMARK    2  A    between atoms: C_4  and  C_5
REMARK                            x       y       z     vdW  Elec       q    Type
REMARK                         _______ _______ _______ _____ _____    ______ ____
ROOT
ATOM      1  N   UNL     1      14.659  16.130   4.963  0.00  0.00    -0.354 N 
ATOM      2  N   UNL     1      14.301  17.542   6.764  0.00  0.00    -0.372 N 
ATOM      3  N   UNL     1      16.443  16.871   6.289  0.00  0.00    -0.372 N 
ATOM      4  C   UNL     1      15.140  16.838   5.994  0.00  0.00    +0.166 C 
ATOM      5  H   UNL     1      13.657  16.122   4.810  0.00  0.00    +0.163 HD
ATOM      6  H   UNL     1      14.635  18.089   7.546  0.00  0.00    +0.159 HD
ATOM      7  H   UNL     1      13.306  17.570   6.581  0.00  0.00    +0.159 HD
ATOM      8  H   UNL     1      17.128  16.356   5.751  0.00  0.00    +0.159 HD
ATOM      9  H   UNL     1      16.796  17.402   7.076  0.00  0.00    +0.159 HD
ENDROOT
BRANCH   1  10
ATOM     10  C   UNL     1      15.493  15.373   4.032  0.00  0.00    +0.151 C 
BRANCH  10  11
ATOM     11  C   UNL     1      15.454  16.039   2.684  0.00  0.00    -0.028 A 
ATOM     12  C   UNL     1      16.211  15.533   1.617  0.00  0.00    +0.005 A 
ATOM     13  C   UNL     1      14.657  17.173   2.466  0.00  0.00    +0.005 A 
ATOM     14  C   UNL     1      16.151  16.133   0.357  0.00  0.00    +0.000 A 
ATOM     15  C   UNL     1      14.601  17.770   1.206  0.00  0.00    +0.000 A 
ATOM     16  C   UNL     1      15.346  17.249   0.152  0.00  0.00    +0.000 A 
ENDBRANCH  10  11
ENDBRANCH   1  10
TORSDOF 2
ENDMDL
MODEL 8
REMARK VINA RESULT:    -5.108     19.140     19.774
REMARK INTER + INTRA:          -5.810
REMARK INTER:                  -5.692
REMARK INTRA:                  -0.118
REMARK UNBOUND:                -0.105
REMARK  Name = 1550473
REMARK  2 active torsions:
REMARK  status: ('A' for Active; 'I' for Inactive)
REMARK    1  A    between atoms: N_1  and  C_4
REMARK    2  A    between atoms: C_4  and  C_5
REMARK                            x       y       z     vdW  Elec       q    Type
REMARK                         _______ _______ _______ _____ _____    ______ ____
ROOT
ATOM      1  N   UNL     1      16.163  13.028   2.288  0.00  0.00    -0.354 N 
ATOM      2  N   UNL     1      16.593  10.850   1.627  0.00  0.00    -0.372 N 
ATOM      3  N   UNL     1      16.089  11.263   3.827  0.00  0.00    -0.372 N 
ATOM      4  C   UNL     1      16.279  11.727   2.588  0.00  0.00    +0.166 C 
ATOM      5  H   UNL     1      16.349  13.321   1.335  0.00  0.00    +0.163 HD
ATOM      6  H   UNL     1      16.684   9.862   1.823  0.00  0.00    +0.159 HD
ATOM      7  H   UNL     1      16.734  11.139   0.667  0.00  0.00    +0.159 HD
ATOM      8  H   UNL     1      15.855  11.874   4.598  0.00  0.00    +0.159 HD
ATOM      9  H   UNL     1      16.187  10.279   4.045  0.00  0.00    +0.159 HD
ENDROOT
BRANCH   1  10
ATOM     10  C   UNL     1      15.771  14.057   3.249  0.00  0.00    +0.151 C 
BRANCH  10  11
ATOM     11  C   UNL     1      15.466  15.330   2.509  0.00  0.00    -0.028 A 
ATOM     12  C   UNL     1      16.054  15.587   1.262  0.00  0.00    +0.005 A 
ATOM     13  C   UNL     1      14.585  16.281   3.047  0.00  0.00    +0.005 A 
ATOM     14  C   UNL     1      15.748  16.756   0.560  0.00  0.00    +0.000 A 
ATOM     15  C   UNL     1      14.283  17.447   2.343  0.00  0.00    +0.000 A 
ATOM     16  C   UNL     1      14.862  17.683   1.099  0.00  0.00    +0.000 A 
ENDBRANCH  10  11
ENDBRANCH   1  10
TORSDOF 2
ENDMDL
MODEL 9
REMARK VINA RESULT:    -5.026     19.641     20.695
REMARK INTER + INTRA:          -5.719
REMARK INTER:                  -5.565
REMARK INTRA:                  -0.153
REMARK UNBOUND:                -0.105
REMARK  Name = 1550473
REMARK  2 active torsions:
REMARK  status: ('A' for Active; 'I' for Inactive)
REMARK    1  A    between atoms: N_1  and  C_4
REMARK    2  A    between atoms: C_4  and  C_5
REMARK                            x       y       z     vdW  Elec       q    Type
REMARK                         _______ _______ _______ _____ _____    ______ ____
ROOT
ATOM      1  N   UNL     1      16.120  11.164   3.811  0.00  0.00    -0.354 N 
ATOM      2  N   UNL     1      14.926   9.284   3.177  0.00  0.00    -0.372 N 
ATOM      3  N   UNL     1      16.105  10.438   1.583  0.00  0.00    -0.372 N 
ATOM      4  C   UNL     1      15.726  10.308   2.859  0.00  0.00    +0.166 C 
ATOM      5  H   UNL     1      15.774  11.028   4.754  0.00  0.00    +0.163 HD
ATOM      6  H   UNL     1      14.615   8.620   2.481  0.00  0.00    +0.159 HD
ATOM      7  H   UNL     1      14.618   9.124   4.129  0.00  0.00    +0.159 HD
ATOM      8  H   UNL     1      16.703  11.194   1.276  0.00  0.00    +0.159 HD
ATOM      9  H   UNL     1      15.794   9.791   0.869  0.00  0.00    +0.159 HD
ENDROOT
BRANCH   1  10
ATOM     10  C   UNL     1      17.034  12.282   3.579  0.00  0.00    +0.151 C 
BRANCH  10  11
ATOM     11  C   UNL     1      16.353  13.563   3.974  0.00  0.00    -0.028 A 
ATOM     12  C   UNL     1      15.400  14.152   3.131  0.00  0.00    +0.005 A 
ATOM     13  C   UNL     1      16.652  14.190   5.193  0.00  0.00    +0.005 A 
ATOM     14  C   UNL     1      14.745  15.326   3.511  0.00  0.00    +0.000 A 
ATOM     15  C   UNL     1      15.997  15.362   5.569  0.00  0.00    +0.000 A 
ATOM     16  C   UNL     1      15.042  15.929   4.728  0.00  0.00    +0.000 A 
ENDBRANCH  10  11
ENDBRANCH   1  10
TORSDOF 2
ENDMDL
