MODEL 1
REMARK VINA RESULT:    -5.407      0.000      0.000
REMARK INTER + INTRA:          -6.147
REMARK INTER:                  -6.039
REMARK INTRA:                  -0.108
REMARK UNBOUND:                -0.108
REMARK  Name = 1550473
REMARK  2 active torsions:
REMARK  status: ('A' for Active; 'I' for Inactive)
REMARK    1  A    between atoms: N_1  and  C_4
REMARK    2  A    between atoms: C_4  and  C_5
REMARK                            x       y       z     vdW  Elec       q    Type
REMARK                         _______ _______ _______ _____ _____    ______ ____
ROOT
ATOM      1  N   UNL     1      -2.020  -3.039   4.736  0.00  0.00    -0.354 N 
ATOM      2  N   UNL     1      -3.005  -1.497   3.316  0.00  0.00    -0.372 N 
ATOM      3  N   UNL     1      -1.379  -0.785   4.770  0.00  0.00    -0.372 N 
ATOM      4  C   UNL     1      -2.126  -1.782   4.285  0.00  0.00    +0.166 C 
ATOM      5  H   UNL     1      -2.636  -3.744   4.348  0.00  0.00    +0.163 HD
ATOM      6  H   UNL     1      -3.105  -0.559   2.953  0.00  0.00    +0.159 HD
ATOM      7  H   UNL     1      -3.588  -2.212   2.898  0.00  0.00    +0.159 HD
ATOM      8  H   UNL     1      -0.701  -0.933   5.506  0.00  0.00    +0.159 HD
ATOM      9  H   UNL     1      -1.473   0.163   4.428  0.00  0.00    +0.159 HD
ENDROOT
BRANCH   1  10
ATOM     10  C   UNL     1      -1.057  -3.465   5.750  0.00  0.00    +0.151 C 
BRANCH  10  11
ATOM     11  C   UNL     1      -0.660  -4.891   5.484  0.00  0.00    -0.028 A 
ATOM     12  C   UNL     1      -1.190  -5.933   6.258  0.00  0.00    +0.005 A 
ATOM     13  C   UNL     1       0.240  -5.206   4.454  0.00  0.00    +0.005 A 
ATOM     14  C   UNL     1      -0.845  -7.261   5.991  0.00  0.00    +0.000 A 
ATOM     15  C   UNL     1       0.582  -6.532   4.192  0.00  0.00    +0.000 A 
ATOM     16  C   UNL     1       0.038  -7.559   4.959  0.00  0.00    +0.000 A 
ENDBRANCH  10  11
ENDBRANCH   1  10
TORSDOF 2
ENDMDL
MODEL 2
REMARK VINA RESULT:    -4.891     22.835     23.459
REMARK INTER + INTRA:          -5.571
REMARK INTER:                  -5.468
REMARK INTRA:                  -0.103
REMARK UNBOUND:                -0.108
REMARK  Name = 1550473
REMARK  2 active torsions:
REMARK  status: ('A' for Active; 'I' for Inactive)
REMARK    1  A    between atoms: N_1  and  C_4
REMARK    2  A    between atoms: C_4  and  C_5
REMARK                            x       y       z     vdW  Elec       q    Type
REMARK                         _______ _______ _______ _____ _____    ______ ____
ROOT
ATOM      1  N   UNL     1       1.289   8.793 -14.355  0.00  0.00    -0.354 N 
ATOM      2  N   UNL     1      -0.242  10.425 -14.952  0.00  0.00    -0.372 N 
ATOM      3  N   UNL     1      -0.932   8.239 -14.857  0.00  0.00    -0.372 N 
ATOM      4  C   UNL     1       0.047   9.140 -14.718  0.00  0.00    +0.166 C 
ATOM      5  H   UNL     1       1.993   9.520 -14.296  0.00  0.00    +0.163 HD
ATOM      6  H   UNL     1      -1.171  10.717 -15.224  0.00  0.00    +0.159 HD
ATOM      7  H   UNL     1       0.452  11.155 -14.849  0.00  0.00    +0.159 HD
ATOM      8  H   UNL     1      -0.778   7.252 -14.700  0.00  0.00    +0.159 HD
ATOM      9  H   UNL     1      -1.866   8.510 -15.139  0.00  0.00    +0.159 HD
ENDROOT
BRANCH   1  10
ATOM     10  C   UNL     1       1.694   7.428 -14.024  0.00  0.00    +0.151 C 
BRANCH  10  11
ATOM     11  C   UNL     1       3.153   7.258 -14.343  0.00  0.00    -0.028 A 
ATOM     12  C   UNL     1       4.115   8.084 -13.743  0.00  0.00    +0.005 A 
ATOM     13  C   UNL     1       3.582   6.268 -15.241  0.00  0.00    +0.005 A 
ATOM     14  C   UNL     1       5.473   7.907 -14.016  0.00  0.00    +0.000 A 
ATOM     15  C   UNL     1       4.939   6.094 -15.511  0.00  0.00    +0.000 A 
ATOM     16  C   UNL     1       5.885   6.912 -14.897  0.00  0.00    +0.000 A 
ENDBRANCH  10  11
ENDBRANCH   1  10
TORSDOF 2
ENDMDL
MODEL 3
REMARK VINA RESULT:    -4.796      1.374      2.139
REMARK INTER + INTRA:          -5.465
REMARK INTER:                  -5.334
REMARK INTRA:                  -0.131
REMARK UNBOUND:                -0.108
REMARK  Name = 1550473
REMARK  2 active torsions:
REMARK  status: ('A' for Active; 'I' for Inactive)
REMARK    1  A    between atoms: N_1  and  C_4
REMARK    2  A    between atoms: C_4  and  C_5
REMARK                            x       y       z     vdW  Elec       q    Type
REMARK                         _______ _______ _______ _____ _____    ______ ____
ROOT
ATOM      1  N   UNL     1      -1.527  -3.039   5.766  0.00  0.00    -0.354 N 
ATOM      2  N   UNL     1      -2.374  -0.884   5.798  0.00  0.00    -0.372 N 
ATOM      3  N   UNL     1      -1.730  -1.792   3.792  0.00  0.00    -0.372 N 
ATOM      4  C   UNL     1      -1.871  -1.919   5.116  0.00  0.00    +0.166 C 
ATOM      5  H   UNL     1      -1.630  -3.061   6.774  0.00  0.00    +0.163 HD
ATOM      6  H   UNL     1      -2.646  -0.027   5.335  0.00  0.00    +0.159 HD
ATOM      7  H   UNL     1      -2.520  -0.926   6.800  0.00  0.00    +0.159 HD
ATOM      8  H   UNL     1      -1.350  -2.535   3.220  0.00  0.00    +0.159 HD
ATOM      9  H   UNL     1      -1.985  -0.938   3.311  0.00  0.00    +0.159 HD
ENDROOT
BRANCH   1  10
ATOM     10  C   UNL     1      -1.019  -4.243   5.109  0.00  0.00    +0.151 C 
BRANCH  10  11
ATOM     11  C   UNL     1      -1.511  -5.453   5.855  0.00  0.00    -0.028 A 
ATOM     12  C   UNL     1      -2.740  -5.424   6.528  0.00  0.00    +0.005 A 
ATOM     13  C   UNL     1      -0.753  -6.634   5.886  0.00  0.00    +0.005 A 
ATOM     14  C   UNL     1      -3.211  -6.557   7.196  0.00  0.00    +0.000 A 
ATOM     15  C   UNL     1      -1.226  -7.763   6.554  0.00  0.00    +0.000 A 
ATOM     16  C   UNL     1      -2.456  -7.725   7.207  0.00  0.00    +0.000 A 
ENDBRANCH  10  11
ENDBRANCH   1  10
TORSDOF 2
ENDMDL
MODEL 4
REMARK VINA RESULT:    -4.778      2.829      5.058
REMARK INTER + INTRA:          -5.444
REMARK INTER:                  -5.312
REMARK INTRA:                  -0.132
REMARK UNBOUND:                -0.108
REMARK  Name = 1550473
REMARK  2 active torsions:
REMARK  status: ('A' for Active; 'I' for Inactive)
REMARK    1  A    between atoms: N_1  and  C_4
REMARK    2  A    between atoms: C_4  and  C_5
REMARK                            x       y       z     vdW  Elec       q    Type
REMARK                         _______ _______ _______ _____ _____    ______ ____
ROOT
ATOM      1  N   UNL     1      -1.234  -5.928   6.176  0.00  0.00    -0.354 N 
ATOM      2  N   UNL     1      -0.076  -7.682   5.202  0.00  0.00    -0.372 N 
ATOM      3  N   UNL     1       1.016  -6.325   6.696  0.00  0.00    -0.372 N 
ATOM      4  C   UNL     1      -0.104  -6.632   6.033  0.00  0.00    +0.166 C 
ATOM      5  H   UNL     1      -2.040  -6.194   5.622  0.00  0.00    +0.163 HD
ATOM      6  H   UNL     1       0.762  -8.234   5.076  0.00  0.00    +0.159 HD
ATOM      7  H   UNL     1      -0.896  -7.973   4.684  0.00  0.00    +0.159 HD
ATOM      8  H   UNL     1       1.063  -5.541   7.334  0.00  0.00    +0.159 HD
ATOM      9  H   UNL     1       1.868  -6.859   6.575  0.00  0.00    +0.159 HD
ENDROOT
BRANCH   1  10
ATOM     10  C   UNL     1      -1.385  -4.801   7.095  0.00  0.00    +0.151 C 
BRANCH  10  11
ATOM     11  C   UNL     1      -1.743  -3.571   6.308  0.00  0.00    -0.028 A 
ATOM     12  C   UNL     1      -1.756  -3.601   4.906  0.00  0.00    +0.005 A 
ATOM     13  C   UNL     1      -2.075  -2.373   6.959  0.00  0.00    +0.005 A 
ATOM     14  C   UNL     1      -2.117  -2.466   4.175  0.00  0.00    +0.000 A 
ATOM     15  C   UNL     1      -2.434  -1.242   6.226  0.00  0.00    +0.000 A 
ATOM     16  C   UNL     1      -2.458  -1.290   4.834  0.00  0.00    +0.000 A 
ENDBRANCH  10  11
ENDBRANCH   1  10
TORSDOF 2
ENDMDL
MODEL 5
REMARK VINA RESULT:    -4.596     14.785     17.961
REMARK INTER + INTRA:          -5.241
REMARK INTER:                  -5.115
REMARK INTRA:                  -0.125
REMARK UNBOUND:                -0.108
REMARK  Name = 1550473
REMARK  2 active torsions:
REMARK  status: ('A' for Active; 'I' for Inactive)
REMARK    1  A    between atoms: N_1  and  C_4
REMARK    2  A    between atoms: C_4  and  C_5
REMARK                            x       y       z     vdW  Elec       q    Type
REMARK                         _______ _______ _______ _____ _____    ______ ____
ROOT
ATOM      1  N   UNL     1      -6.638   6.653  -4.901  0.00  0.00    -0.354 N 
ATOM      2  N   UNL     1      -5.775   4.718  -3.966  0.00  0.00    -0.372 N 
ATOM      3  N   UNL     1      -7.382   4.542  -5.595  0.00  0.00    -0.372 N 
ATOM      4  C   UNL     1      -6.606   5.316  -4.829  0.00  0.00    +0.166 C 
ATOM      5  H   UNL     1      -6.047   7.184  -4.272  0.00  0.00    +0.163 HD
ATOM      6  H   UNL     1      -5.727   3.711  -3.891  0.00  0.00    +0.159 HD
ATOM      7  H   UNL     1      -5.153   5.250  -3.370  0.00  0.00    +0.159 HD
ATOM      8  H   UNL     1      -8.035   4.931  -6.262  0.00  0.00    +0.159 HD
ATOM      9  H   UNL     1      -7.356   3.532  -5.526  0.00  0.00    +0.159 HD
ENDROOT
BRANCH   1  10
ATOM     10  C   UNL     1      -7.468   7.401  -5.844  0.00  0.00    +0.151 C 
BRANCH  10  11
ATOM     11  C   UNL     1      -6.893   8.780  -6.019  0.00  0.00    -0.028 A 
ATOM     12  C   UNL     1      -5.879   9.241  -5.166  0.00  0.00    +0.005 A 
ATOM     13  C   UNL     1      -7.352   9.627  -7.039  0.00  0.00    +0.005 A 
ATOM     14  C   UNL     1      -5.324  10.510  -5.347  0.00  0.00    +0.000 A 
ATOM     15  C   UNL     1      -6.796  10.893  -7.215  0.00  0.00    +0.000 A 
ATOM     16  C   UNL     1      -5.780  11.334  -6.370  0.00  0.00    +0.000 A 
ENDBRANCH  10  11
ENDBRANCH   1  10
TORSDOF 2
ENDMDL
MODEL 6
REMARK VINA RESULT:    -4.584     11.528     12.179
REMARK INTER + INTRA:          -5.228
REMARK INTER:                  -5.098
REMARK INTRA:                  -0.130
REMARK UNBOUND:                -0.108
REMARK  Name = 1550473
REMARK  2 active torsions:
REMARK  status: ('A' for Active; 'I' for Inactive)
REMARK    1  A    between atoms: N_1  and  C_4
REMARK    2  A    between atoms: C_4  and  C_5
REMARK                            x       y       z     vdW  Elec       q    Type
REMARK                         _______ _______ _______ _____ _____    ______ ____
ROOT
ATOM      1  N   UNL     1       8.397   0.174  10.991  0.00  0.00    -0.354 N 
ATOM      2  N   UNL     1       9.166   0.511   8.833  0.00  0.00    -0.372 N 
ATOM      3  N   UNL     1       9.948  -1.290  10.020  0.00  0.00    -0.372 N 
ATOM      4  C   UNL     1       9.167  -0.206   9.963  0.00  0.00    +0.166 C 
ATOM      5  H   UNL     1       7.851   1.022  10.896  0.00  0.00    +0.163 HD
ATOM      6  H   UNL     1       9.734   0.247   8.039  0.00  0.00    +0.159 HD
ATOM      7  H   UNL     1       8.584   1.333   8.724  0.00  0.00    +0.159 HD
ATOM      8  H   UNL     1       9.999  -1.871  10.846  0.00  0.00    +0.159 HD
ATOM      9  H   UNL     1      10.533  -1.564   9.240  0.00  0.00    +0.159 HD
ENDROOT
BRANCH   1  10
ATOM     10  C   UNL     1       8.285  -0.568  12.246  0.00  0.00    +0.151 C 
BRANCH  10  11
ATOM     11  C   UNL     1       6.880  -0.442  12.767  0.00  0.00    -0.028 A 
ATOM     12  C   UNL     1       6.012   0.529  12.247  0.00  0.00    +0.005 A 
ATOM     13  C   UNL     1       6.408  -1.296  13.776  0.00  0.00    +0.005 A 
ATOM     14  C   UNL     1       4.697   0.626  12.709  0.00  0.00    +0.000 A 
ATOM     15  C   UNL     1       5.095  -1.195  14.235  0.00  0.00    +0.000 A 
ATOM     16  C   UNL     1       4.239  -0.235  13.700  0.00  0.00    +0.000 A 
ENDBRANCH  10  11
ENDBRANCH   1  10
TORSDOF 2
ENDMDL
MODEL 7
REMARK VINA RESULT:    -4.575     10.606     11.469
REMARK INTER + INTRA:          -5.217
REMARK INTER:                  -5.117
REMARK INTRA:                  -0.100
REMARK UNBOUND:                -0.108
REMARK  Name = 1550473
REMARK  2 active torsions:
REMARK  status: ('A' for Active; 'I' for Inactive)
REMARK    1  A    between atoms: N_1  and  C_4
REMARK    2  A    between atoms: C_4  and  C_5
REMARK                            x       y       z     vdW  Elec       q    Type
REMARK                         _______ _______ _______ _____ _____    ______ ____
ROOT
ATOM      1  N   UNL     1       3.527   1.725  13.518  0.00  0.00    -0.354 N 
ATOM      2  N   UNL     1       2.545   3.812  13.727  0.00  0.00    -0.372 N 
ATOM      3  N   UNL     1       1.655   2.312  12.237  0.00  0.00    -0.372 N 
ATOM      4  C   UNL     1       2.581   2.601  13.157  0.00  0.00    +0.166 C 
ATOM      5  H   UNL     1       4.218   2.016  14.200  0.00  0.00    +0.163 HD
ATOM      6  H   UNL     1       1.841   4.493  13.477  0.00  0.00    +0.159 HD
ATOM      7  H   UNL     1       3.210   4.084  14.441  0.00  0.00    +0.159 HD
ATOM      8  H   UNL     1       1.630   1.417  11.765  0.00  0.00    +0.159 HD
ATOM      9  H   UNL     1       0.949   2.984  11.965  0.00  0.00    +0.159 HD
ENDROOT
BRANCH   1  10
ATOM     10  C   UNL     1       3.621   0.362  12.998  0.00  0.00    +0.151 C 
BRANCH  10  11
ATOM     11  C   UNL     1       4.991  -0.184  13.293  0.00  0.00    -0.028 A 
ATOM     12  C   UNL     1       5.165  -1.186  14.259  0.00  0.00    +0.005 A 
ATOM     13  C   UNL     1       6.118   0.293  12.606  0.00  0.00    +0.005 A 
ATOM     14  C   UNL     1       6.433  -1.714  14.512  0.00  0.00    +0.000 A 
ATOM     15  C   UNL     1       7.382  -0.236  12.863  0.00  0.00    +0.000 A 
ATOM     16  C   UNL     1       7.539  -1.241  13.814  0.00  0.00    +0.000 A 
ENDBRANCH  10  11
ENDBRANCH   1  10
TORSDOF 2
ENDMDL
MODEL 8
REMARK VINA RESULT:    -4.505     22.942     23.761
REMARK INTER + INTRA:          -5.139
REMARK INTER:                  -4.997
REMARK INTRA:                  -0.142
REMARK UNBOUND:                -0.108
REMARK  Name = 1550473
REMARK  2 active torsions:
REMARK  status: ('A' for Active; 'I' for Inactive)
REMARK    1  A    between atoms: N_1  and  C_4
REMARK    2  A    between atoms: C_4  and  C_5
REMARK                            x       y       z     vdW  Elec       q    Type
REMARK                         _______ _______ _______ _____ _____    ______ ____
ROOT
ATOM      1  N   UNL     1       1.207   7.160 -16.676  0.00  0.00    -0.354 N 
ATOM      2  N   UNL     1      -0.680   8.344 -17.310  0.00  0.00    -0.372 N 
ATOM      3  N   UNL     1      -0.924   6.522 -15.938  0.00  0.00    -0.372 N 
ATOM      4  C   UNL     1      -0.121   7.332 -16.636  0.00  0.00    +0.166 C 
ATOM      5  H   UNL     1       1.757   7.791 -17.248  0.00  0.00    +0.163 HD
ATOM      6  H   UNL     1      -1.679   8.501 -17.296  0.00  0.00    +0.159 HD
ATOM      7  H   UNL     1      -0.123   9.001 -17.844  0.00  0.00    +0.159 HD
ATOM      8  H   UNL     1      -0.565   5.736 -15.412  0.00  0.00    +0.159 HD
ATOM      9  H   UNL     1      -1.927   6.656 -15.920  0.00  0.00    +0.159 HD
ENDROOT
BRANCH   1  10
ATOM     10  C   UNL     1       1.920   6.122 -15.934  0.00  0.00    +0.151 C 
BRANCH  10  11
ATOM     11  C   UNL     1       3.006   6.762 -15.115  0.00  0.00    -0.028 A 
ATOM     12  C   UNL     1       2.686   7.570 -14.014  0.00  0.00    +0.005 A 
ATOM     13  C   UNL     1       4.359   6.559 -15.431  0.00  0.00    +0.005 A 
ATOM     14  C   UNL     1       3.696   8.140 -13.235  0.00  0.00    +0.000 A 
ATOM     15  C   UNL     1       5.364   7.130 -14.650  0.00  0.00    +0.000 A 
ATOM     16  C   UNL     1       5.032   7.919 -13.552  0.00  0.00    +0.000 A 
ENDBRANCH  10  11
ENDBRANCH   1  10
TORSDOF 2
ENDMDL
MODEL 9
REMARK VINA RESULT:    -4.336     23.752     25.102
REMARK INTER + INTRA:          -4.951
REMARK INTER:                  -4.841
REMARK INTRA:                  -0.110
REMARK UNBOUND:                -0.108
REMARK  Name = 1550473
REMARK  2 active torsions:
REMARK  status: ('A' for Active; 'I' for Inactive)
REMARK    1  A    between atoms: N_1  and  C_4
REMARK    2  A    between atoms: C_4  and  C_5
REMARK                            x       y       z     vdW  Elec       q    Type
REMARK                         _______ _______ _______ _____ _____    ______ ____
ROOT
ATOM      1  N   UNL     1      14.794  11.618  15.027  0.00  0.00    -0.354 N 
ATOM      2  N   UNL     1      15.514  10.259  13.296  0.00  0.00    -0.372 N 
ATOM      3  N   UNL     1      13.582  11.467  13.026  0.00  0.00    -0.372 N 
ATOM      4  C   UNL     1      14.623  11.125  13.793  0.00  0.00    +0.166 C 
ATOM      5  H   UNL     1      15.587  11.296  15.569  0.00  0.00    +0.163 HD
ATOM      6  H   UNL     1      15.414   9.872  12.367  0.00  0.00    +0.159 HD
ATOM      7  H   UNL     1      16.331   9.973  13.822  0.00  0.00    +0.159 HD
ATOM      8  H   UNL     1      12.871  12.112  13.345  0.00  0.00    +0.159 HD
ATOM      9  H   UNL     1      13.458  11.082  12.098  0.00  0.00    +0.159 HD
ENDROOT
BRANCH   1  10
ATOM     10  C   UNL     1      13.910  12.608  15.641  0.00  0.00    +0.151 C 
BRANCH  10  11
ATOM     11  C   UNL     1      13.680  12.235  17.079  0.00  0.00    -0.028 A 
ATOM     12  C   UNL     1      14.742  12.245  17.996  0.00  0.00    +0.005 A 
ATOM     13  C   UNL     1      12.402  11.877  17.534  0.00  0.00    +0.005 A 
ATOM     14  C   UNL     1      14.524  11.928  19.339  0.00  0.00    +0.000 A 
ATOM     15  C   UNL     1      12.188  11.560  18.875  0.00  0.00    +0.000 A 
ATOM     16  C   UNL     1      13.248  11.589  19.778  0.00  0.00    +0.000 A 
ENDBRANCH  10  11
ENDBRANCH   1  10
TORSDOF 2
ENDMDL
