MODEL 1
REMARK VINA RESULT:    -5.744      0.000      0.000
REMARK INTER + INTRA:          -6.559
REMARK INTER:                  -6.416
REMARK INTRA:                  -0.143
REMARK UNBOUND:                -0.143
REMARK  Name = 1550473
REMARK  2 active torsions:
REMARK  status: ('A' for Active; 'I' for Inactive)
REMARK    1  A    between atoms: N_1  and  C_4
REMARK    2  A    between atoms: C_4  and  C_5
REMARK                            x       y       z     vdW  Elec       q    Type
REMARK                         _______ _______ _______ _____ _____    ______ ____
ROOT
ATOM      1  N   UNL     1      -3.647  -5.504 -11.571  0.00  0.00    -0.354 N 
ATOM      2  N   UNL     1      -3.513  -6.318 -13.735  0.00  0.00    -0.372 N 
ATOM      3  N   UNL     1      -2.262  -7.320 -12.093  0.00  0.00    -0.372 N 
ATOM      4  C   UNL     1      -3.140  -6.377 -12.451  0.00  0.00    +0.166 C 
ATOM      5  H   UNL     1      -4.286  -4.793 -11.911  0.00  0.00    +0.163 HD
ATOM      6  H   UNL     1      -3.150  -6.965 -14.421  0.00  0.00    +0.159 HD
ATOM      7  H   UNL     1      -4.187  -5.636 -14.063  0.00  0.00    +0.159 HD
ATOM      8  H   UNL     1      -1.935  -7.414 -11.141  0.00  0.00    +0.159 HD
ATOM      9  H   UNL     1      -1.878  -7.970 -12.768  0.00  0.00    +0.159 HD
ENDROOT
BRANCH   1  10
ATOM     10  C   UNL     1      -3.347  -5.517 -10.140  0.00  0.00    +0.151 C 
BRANCH  10  11
ATOM     11  C   UNL     1      -2.926  -4.137  -9.714  0.00  0.00    -0.028 A 
ATOM     12  C   UNL     1      -2.336  -3.929  -8.458  0.00  0.00    +0.005 A 
ATOM     13  C   UNL     1      -3.108  -3.035 -10.564  0.00  0.00    +0.005 A 
ATOM     14  C   UNL     1      -1.917  -2.653  -8.074  0.00  0.00    +0.000 A 
ATOM     15  C   UNL     1      -2.689  -1.763 -10.176  0.00  0.00    +0.000 A 
ATOM     16  C   UNL     1      -2.091  -1.572  -8.933  0.00  0.00    +0.000 A 
ENDBRANCH  10  11
ENDBRANCH   1  10
TORSDOF 2
ENDMDL
MODEL 2
REMARK VINA RESULT:    -5.646      0.660      1.582
REMARK INTER + INTRA:          -6.449
REMARK INTER:                  -6.319
REMARK INTRA:                  -0.130
REMARK UNBOUND:                -0.143
REMARK  Name = 1550473
REMARK  2 active torsions:
REMARK  status: ('A' for Active; 'I' for Inactive)
REMARK    1  A    between atoms: N_1  and  C_4
REMARK    2  A    between atoms: C_4  and  C_5
REMARK                            x       y       z     vdW  Elec       q    Type
REMARK                         _______ _______ _______ _____ _____    ______ ____
ROOT
ATOM      1  N   UNL     1      -4.162  -5.893 -10.837  0.00  0.00    -0.354 N 
ATOM      2  N   UNL     1      -4.534  -6.797 -12.936  0.00  0.00    -0.372 N 
ATOM      3  N   UNL     1      -2.574  -7.288 -11.849  0.00  0.00    -0.372 N 
ATOM      4  C   UNL     1      -3.751  -6.654 -11.860  0.00  0.00    +0.166 C 
ATOM      5  H   UNL     1      -5.052  -5.415 -10.919  0.00  0.00    +0.163 HD
ATOM      6  H   UNL     1      -4.253  -7.367 -13.722  0.00  0.00    +0.159 HD
ATOM      7  H   UNL     1      -5.443  -6.354 -12.997  0.00  0.00    +0.159 HD
ATOM      8  H   UNL     1      -1.934  -7.216 -11.069  0.00  0.00    +0.159 HD
ATOM      9  H   UNL     1      -2.269  -7.854 -12.632  0.00  0.00    +0.159 HD
ENDROOT
BRANCH   1  10
ATOM     10  C   UNL     1      -3.409  -5.716  -9.596  0.00  0.00    +0.151 C 
BRANCH  10  11
ATOM     11  C   UNL     1      -3.003  -4.274  -9.469  0.00  0.00    -0.028 A 
ATOM     12  C   UNL     1      -3.357  -3.345 -10.459  0.00  0.00    +0.005 A 
ATOM     13  C   UNL     1      -2.270  -3.828  -8.359  0.00  0.00    +0.005 A 
ATOM     14  C   UNL     1      -3.007  -1.999 -10.327  0.00  0.00    +0.000 A 
ATOM     15  C   UNL     1      -1.921  -2.484  -8.231  0.00  0.00    +0.000 A 
ATOM     16  C   UNL     1      -2.292  -1.569  -9.214  0.00  0.00    +0.000 A 
ENDBRANCH  10  11
ENDBRANCH   1  10
TORSDOF 2
ENDMDL
MODEL 3
REMARK VINA RESULT:    -5.431      2.623      4.943
REMARK INTER + INTRA:          -6.209
REMARK INTER:                  -6.067
REMARK INTRA:                  -0.142
REMARK UNBOUND:                -0.143
REMARK  Name = 1550473
REMARK  2 active torsions:
REMARK  status: ('A' for Active; 'I' for Inactive)
REMARK    1  A    between atoms: N_1  and  C_4
REMARK    2  A    between atoms: C_4  and  C_5
REMARK                            x       y       z     vdW  Elec       q    Type
REMARK                         _______ _______ _______ _____ _____    ______ ____
ROOT
ATOM      1  N   UNL     1      -3.143  -3.165  -9.549  0.00  0.00    -0.354 N 
ATOM      2  N   UNL     1      -1.651  -1.994  -8.220  0.00  0.00    -0.372 N 
ATOM      3  N   UNL     1      -2.524  -0.967 -10.076  0.00  0.00    -0.372 N 
ATOM      4  C   UNL     1      -2.449  -2.048  -9.292  0.00  0.00    +0.166 C 
ATOM      5  H   UNL     1      -3.019  -3.960  -8.933  0.00  0.00    +0.163 HD
ATOM      6  H   UNL     1      -1.118  -1.164  -7.999  0.00  0.00    +0.159 HD
ATOM      7  H   UNL     1      -1.564  -2.775  -7.580  0.00  0.00    +0.159 HD
ATOM      8  H   UNL     1      -3.104  -0.946 -10.905  0.00  0.00    +0.159 HD
ATOM      9  H   UNL     1      -1.989  -0.131  -9.878  0.00  0.00    +0.159 HD
ENDROOT
BRANCH   1  10
ATOM     10  C   UNL     1      -4.081  -3.308 -10.660  0.00  0.00    +0.151 C 
BRANCH  10  11
ATOM     11  C   UNL     1      -3.747  -4.558 -11.427  0.00  0.00    -0.028 A 
ATOM     12  C   UNL     1      -2.588  -5.288 -11.129  0.00  0.00    +0.005 A 
ATOM     13  C   UNL     1      -4.590  -5.020 -12.450  0.00  0.00    +0.005 A 
ATOM     14  C   UNL     1      -2.293  -6.465 -11.821  0.00  0.00    +0.000 A 
ATOM     15  C   UNL     1      -4.291  -6.195 -13.139  0.00  0.00    +0.000 A 
ATOM     16  C   UNL     1      -3.144  -6.919 -12.823  0.00  0.00    +0.000 A 
ENDBRANCH  10  11
ENDBRANCH   1  10
TORSDOF 2
ENDMDL
MODEL 4
REMARK VINA RESULT:    -5.410      3.555      4.994
REMARK INTER + INTRA:          -6.186
REMARK INTER:                  -6.067
REMARK INTRA:                  -0.118
REMARK UNBOUND:                -0.143
REMARK  Name = 1550473
REMARK  2 active torsions:
REMARK  status: ('A' for Active; 'I' for Inactive)
REMARK    1  A    between atoms: N_1  and  C_4
REMARK    2  A    between atoms: C_4  and  C_5
REMARK                            x       y       z     vdW  Elec       q    Type
REMARK                         _______ _______ _______ _____ _____    ______ ____
ROOT
ATOM      1  N   UNL     1      -6.487  -6.924  -8.843  0.00  0.00    -0.354 N 
ATOM      2  N   UNL     1      -8.605  -7.821  -8.570  0.00  0.00    -0.372 N 
ATOM      3  N   UNL     1      -7.494  -7.021  -6.729  0.00  0.00    -0.372 N 
ATOM      4  C   UNL     1      -7.514  -7.249  -8.046  0.00  0.00    +0.166 C 
ATOM      5  H   UNL     1      -6.552  -7.151  -9.828  0.00  0.00    +0.163 HD
ATOM      6  H   UNL     1      -9.397  -8.074  -7.995  0.00  0.00    +0.159 HD
ATOM      7  H   UNL     1      -8.685  -8.005  -9.563  0.00  0.00    +0.159 HD
ATOM      8  H   UNL     1      -6.698  -6.598  -6.271  0.00  0.00    +0.159 HD
ATOM      9  H   UNL     1      -8.272  -7.278  -6.134  0.00  0.00    +0.159 HD
ENDROOT
BRANCH   1  10
ATOM     10  C   UNL     1      -5.276  -6.249  -8.380  0.00  0.00    +0.151 C 
BRANCH  10  11
ATOM     11  C   UNL     1      -4.287  -6.184  -9.512  0.00  0.00    -0.028 A 
ATOM     12  C   UNL     1      -3.320  -5.169  -9.555  0.00  0.00    +0.005 A 
ATOM     13  C   UNL     1      -4.308  -7.138 -10.540  0.00  0.00    +0.005 A 
ATOM     14  C   UNL     1      -2.383  -5.126 -10.590  0.00  0.00    +0.000 A 
ATOM     15  C   UNL     1      -3.371  -7.091 -11.572  0.00  0.00    +0.000 A 
ATOM     16  C   UNL     1      -2.407  -6.086 -11.595  0.00  0.00    +0.000 A 
ENDBRANCH  10  11
ENDBRANCH   1  10
TORSDOF 2
ENDMDL
MODEL 5
REMARK VINA RESULT:    -5.303      2.625      5.347
REMARK INTER + INTRA:          -6.066
REMARK INTER:                  -5.885
REMARK INTRA:                  -0.181
REMARK UNBOUND:                -0.143
REMARK  Name = 1550473
REMARK  2 active torsions:
REMARK  status: ('A' for Active; 'I' for Inactive)
REMARK    1  A    between atoms: N_1  and  C_4
REMARK    2  A    between atoms: C_4  and  C_5
REMARK                            x       y       z     vdW  Elec       q    Type
REMARK                         _______ _______ _______ _____ _____    ______ ____
ROOT
ATOM      1  N   UNL     1      -2.905  -5.070 -11.505  0.00  0.00    -0.354 N 
ATOM      2  N   UNL     1      -2.724  -2.936 -10.622  0.00  0.00    -0.372 N 
ATOM      3  N   UNL     1      -2.940  -4.715  -9.189  0.00  0.00    -0.372 N 
ATOM      4  C   UNL     1      -2.858  -4.256 -10.442  0.00  0.00    +0.166 C 
ATOM      5  H   UNL     1      -2.868  -4.656 -12.430  0.00  0.00    +0.163 HD
ATOM      6  H   UNL     1      -2.682  -2.298  -9.839  0.00  0.00    +0.159 HD
ATOM      7  H   UNL     1      -2.640  -2.530 -11.546  0.00  0.00    +0.159 HD
ATOM      8  H   UNL     1      -3.049  -5.700  -8.986  0.00  0.00    +0.159 HD
ATOM      9  H   UNL     1      -2.912  -4.091  -8.393  0.00  0.00    +0.159 HD
ENDROOT
BRANCH   1  10
ATOM     10  C   UNL     1      -2.995  -6.526 -11.417  0.00  0.00    +0.151 C 
BRANCH  10  11
ATOM     11  C   UNL     1      -4.420  -6.945 -11.652  0.00  0.00    -0.028 A 
ATOM     12  C   UNL     1      -4.967  -6.914 -12.944  0.00  0.00    +0.005 A 
ATOM     13  C   UNL     1      -5.227  -7.379 -10.589  0.00  0.00    +0.005 A 
ATOM     14  C   UNL     1      -6.282  -7.332 -13.167  0.00  0.00    +0.000 A 
ATOM     15  C   UNL     1      -6.539  -7.794 -10.817  0.00  0.00    +0.000 A 
ATOM     16  C   UNL     1      -7.065  -7.773 -12.106  0.00  0.00    +0.000 A 
ENDBRANCH  10  11
ENDBRANCH   1  10
TORSDOF 2
ENDMDL
MODEL 6
REMARK VINA RESULT:    -5.079      3.876      5.036
REMARK INTER + INTRA:          -5.816
REMARK INTER:                  -5.687
REMARK INTRA:                  -0.129
REMARK UNBOUND:                -0.143
REMARK  Name = 1550473
REMARK  2 active torsions:
REMARK  status: ('A' for Active; 'I' for Inactive)
REMARK    1  A    between atoms: N_1  and  C_4
REMARK    2  A    between atoms: C_4  and  C_5
REMARK                            x       y       z     vdW  Elec       q    Type
REMARK                         _______ _______ _______ _____ _____    ______ ____
ROOT
ATOM      1  N   UNL     1      -6.169  -5.576  -7.430  0.00  0.00    -0.354 N 
ATOM      2  N   UNL     1      -7.090  -7.310  -6.201  0.00  0.00    -0.372 N 
ATOM      3  N   UNL     1      -6.576  -5.345  -5.133  0.00  0.00    -0.372 N 
ATOM      4  C   UNL     1      -6.605  -6.064  -6.261  0.00  0.00    +0.166 C 
ATOM      5  H   UNL     1      -6.190  -6.182  -8.242  0.00  0.00    +0.163 HD
ATOM      6  H   UNL     1      -7.429  -7.705  -5.334  0.00  0.00    +0.159 HD
ATOM      7  H   UNL     1      -7.152  -7.898  -7.024  0.00  0.00    +0.159 HD
ATOM      8  H   UNL     1      -6.217  -4.400  -5.110  0.00  0.00    +0.159 HD
ATOM      9  H   UNL     1      -6.900  -5.726  -4.253  0.00  0.00    +0.159 HD
ENDROOT
BRANCH   1  10
ATOM     10  C   UNL     1      -5.673  -4.213  -7.613  0.00  0.00    +0.151 C 
BRANCH  10  11
ATOM     11  C   UNL     1      -4.667  -4.203  -8.730  0.00  0.00    -0.028 A 
ATOM     12  C   UNL     1      -4.387  -3.018  -9.426  0.00  0.00    +0.005 A 
ATOM     13  C   UNL     1      -3.985  -5.374  -9.094  0.00  0.00    +0.005 A 
ATOM     14  C   UNL     1      -3.430  -3.001 -10.443  0.00  0.00    +0.000 A 
ATOM     15  C   UNL     1      -3.031  -5.354 -10.111  0.00  0.00    +0.000 A 
ATOM     16  C   UNL     1      -2.752  -4.166 -10.784  0.00  0.00    +0.000 A 
ENDBRANCH  10  11
ENDBRANCH   1  10
TORSDOF 2
ENDMDL
MODEL 7
REMARK VINA RESULT:    -5.038      1.416      2.577
REMARK INTER + INTRA:          -5.770
REMARK INTER:                  -5.651
REMARK INTRA:                  -0.120
REMARK UNBOUND:                -0.143
REMARK  Name = 1550473
REMARK  2 active torsions:
REMARK  status: ('A' for Active; 'I' for Inactive)
REMARK    1  A    between atoms: N_1  and  C_4
REMARK    2  A    between atoms: C_4  and  C_5
REMARK                            x       y       z     vdW  Elec       q    Type
REMARK                         _______ _______ _______ _____ _____    ______ ____
ROOT
ATOM      1  N   UNL     1      -2.809  -6.441 -13.300  0.00  0.00    -0.354 N 
ATOM      2  N   UNL     1      -3.362  -6.326 -15.546  0.00  0.00    -0.372 N 
ATOM      3  N   UNL     1      -4.824  -7.336 -14.095  0.00  0.00    -0.372 N 
ATOM      4  C   UNL     1      -3.663  -6.703 -14.298  0.00  0.00    +0.166 C 
ATOM      5  H   UNL     1      -1.933  -5.985 -13.524  0.00  0.00    +0.163 HD
ATOM      6  H   UNL     1      -3.988  -6.507 -16.319  0.00  0.00    +0.159 HD
ATOM      7  H   UNL     1      -2.505  -5.829 -15.760  0.00  0.00    +0.159 HD
ATOM      8  H   UNL     1      -5.108  -7.653 -13.177  0.00  0.00    +0.159 HD
ATOM      9  H   UNL     1      -5.458  -7.537 -14.858  0.00  0.00    +0.159 HD
ENDROOT
BRANCH   1  10
ATOM     10  C   UNL     1      -3.068  -6.762 -11.897  0.00  0.00    +0.151 C 
BRANCH  10  11
ATOM     11  C   UNL     1      -3.154  -5.484 -11.109  0.00  0.00    -0.028 A 
ATOM     12  C   UNL     1      -3.944  -4.418 -11.564  0.00  0.00    +0.005 A 
ATOM     13  C   UNL     1      -2.452  -5.335  -9.903  0.00  0.00    +0.005 A 
ATOM     14  C   UNL     1      -4.048  -3.242 -10.817  0.00  0.00    +0.000 A 
ATOM     15  C   UNL     1      -2.558  -4.159  -9.160  0.00  0.00    +0.000 A 
ATOM     16  C   UNL     1      -3.358  -3.114  -9.616  0.00  0.00    +0.000 A 
ENDBRANCH  10  11
ENDBRANCH   1  10
TORSDOF 2
ENDMDL
MODEL 8
REMARK VINA RESULT:    -4.977      2.054      3.238
REMARK INTER + INTRA:          -5.702
REMARK INTER:                  -5.518
REMARK INTRA:                  -0.184
REMARK UNBOUND:                -0.143
REMARK  Name = 1550473
REMARK  2 active torsions:
REMARK  status: ('A' for Active; 'I' for Inactive)
REMARK    1  A    between atoms: N_1  and  C_4
REMARK    2  A    between atoms: C_4  and  C_5
REMARK                            x       y       z     vdW  Elec       q    Type
REMARK                         _______ _______ _______ _____ _____    ______ ____
ROOT
ATOM      1  N   UNL     1      -3.080  -6.244 -14.026  0.00  0.00    -0.354 N 
ATOM      2  N   UNL     1      -4.573  -5.594 -15.672  0.00  0.00    -0.372 N 
ATOM      3  N   UNL     1      -5.064  -7.435 -14.394  0.00  0.00    -0.372 N 
ATOM      4  C   UNL     1      -4.230  -6.431 -14.686  0.00  0.00    +0.166 C 
ATOM      5  H   UNL     1      -2.477  -5.482 -14.315  0.00  0.00    +0.163 HD
ATOM      6  H   UNL     1      -5.437  -5.708 -16.186  0.00  0.00    +0.159 HD
ATOM      7  H   UNL     1      -3.991  -4.806 -15.929  0.00  0.00    +0.159 HD
ATOM      8  H   UNL     1      -4.861  -8.105 -13.664  0.00  0.00    +0.159 HD
ATOM      9  H   UNL     1      -5.927  -7.572 -14.904  0.00  0.00    +0.159 HD
ENDROOT
BRANCH   1  10
ATOM     10  C   UNL     1      -2.639  -7.066 -12.900  0.00  0.00    +0.151 C 
BRANCH  10  11
ATOM     11  C   UNL     1      -2.979  -6.362 -11.615  0.00  0.00    -0.028 A 
ATOM     12  C   UNL     1      -3.911  -6.915 -10.725  0.00  0.00    +0.005 A 
ATOM     13  C   UNL     1      -2.366  -5.145 -11.280  0.00  0.00    +0.005 A 
ATOM     14  C   UNL     1      -4.204  -6.276  -9.518  0.00  0.00    +0.000 A 
ATOM     15  C   UNL     1      -2.662  -4.510 -10.073  0.00  0.00    +0.000 A 
ATOM     16  C   UNL     1      -3.579  -5.077  -9.192  0.00  0.00    +0.000 A 
ENDBRANCH  10  11
ENDBRANCH   1  10
TORSDOF 2
ENDMDL
MODEL 9
REMARK VINA RESULT:    -4.843     17.538     18.785
REMARK INTER + INTRA:          -5.552
REMARK INTER:                  -5.373
REMARK INTRA:                  -0.179
REMARK UNBOUND:                -0.143
REMARK  Name = 1550473
REMARK  2 active torsions:
REMARK  status: ('A' for Active; 'I' for Inactive)
REMARK    1  A    between atoms: N_1  and  C_4
REMARK    2  A    between atoms: C_4  and  C_5
REMARK                            x       y       z     vdW  Elec       q    Type
REMARK                         _______ _______ _______ _____ _____    ______ ____
ROOT
ATOM      1  N   UNL     1      -2.841 -11.550   6.888  0.00  0.00    -0.354 N 
ATOM      2  N   UNL     1      -4.921 -11.951   7.826  0.00  0.00    -0.372 N 
ATOM      3  N   UNL     1      -3.141 -13.244   8.479  0.00  0.00    -0.372 N 
ATOM      4  C   UNL     1      -3.619 -12.248   7.726  0.00  0.00    +0.166 C 
ATOM      5  H   UNL     1      -3.271 -10.826   6.322  0.00  0.00    +0.163 HD
ATOM      6  H   UNL     1      -5.532 -12.458   8.452  0.00  0.00    +0.159 HD
ATOM      7  H   UNL     1      -5.338 -11.197   7.294  0.00  0.00    +0.159 HD
ATOM      8  H   UNL     1      -2.169 -13.522   8.445  0.00  0.00    +0.159 HD
ATOM      9  H   UNL     1      -3.739 -13.771   9.103  0.00  0.00    +0.159 HD
ENDROOT
BRANCH   1  10
ATOM     10  C   UNL     1      -1.402 -11.758   6.744  0.00  0.00    +0.151 C 
BRANCH  10  11
ATOM     11  C   UNL     1      -1.136 -12.474   5.449  0.00  0.00    -0.028 A 
ATOM     12  C   UNL     1      -0.939 -13.863   5.431  0.00  0.00    +0.005 A 
ATOM     13  C   UNL     1      -1.085 -11.771   4.235  0.00  0.00    +0.005 A 
ATOM     14  C   UNL     1      -0.723 -14.533   4.224  0.00  0.00    +0.000 A 
ATOM     15  C   UNL     1      -0.868 -12.444   3.033  0.00  0.00    +0.000 A 
ATOM     16  C   UNL     1      -0.689 -13.825   3.028  0.00  0.00    +0.000 A 
ENDBRANCH  10  11
ENDBRANCH   1  10
TORSDOF 2
ENDMDL
