MODEL 1
REMARK VINA RESULT:    -5.794      0.000      0.000
REMARK INTER + INTRA:          -6.582
REMARK INTER:                  -6.472
REMARK INTRA:                  -0.111
REMARK UNBOUND:                -0.111
REMARK  Name = 1550473
REMARK  2 active torsions:
REMARK  status: ('A' for Active; 'I' for Inactive)
REMARK    1  A    between atoms: N_1  and  C_4
REMARK    2  A    between atoms: C_4  and  C_5
REMARK                            x       y       z     vdW  Elec       q    Type
REMARK                         _______ _______ _______ _____ _____    ______ ____
ROOT
ATOM      1  N   UNL     1       2.483   7.977  -7.933  0.00  0.00    -0.354 N 
ATOM      2  N   UNL     1       2.771   9.667  -6.376  0.00  0.00    -0.372 N 
ATOM      3  N   UNL     1       4.010   7.747  -6.170  0.00  0.00    -0.372 N 
ATOM      4  C   UNL     1       3.088   8.451  -6.835  0.00  0.00    +0.166 C 
ATOM      5  H   UNL     1       1.770   8.547  -8.374  0.00  0.00    +0.163 HD
ATOM      6  H   UNL     1       3.213  10.053  -5.552  0.00  0.00    +0.159 HD
ATOM      7  H   UNL     1       2.091  10.254  -6.845  0.00  0.00    +0.159 HD
ATOM      8  H   UNL     1       4.290   6.821  -6.462  0.00  0.00    +0.159 HD
ATOM      9  H   UNL     1       4.455   8.111  -5.337  0.00  0.00    +0.159 HD
ENDROOT
BRANCH   1  10
ATOM     10  C   UNL     1       2.795   6.687  -8.546  0.00  0.00    +0.151 C 
BRANCH  10  11
ATOM     11  C   UNL     1       1.520   6.052  -9.028  0.00  0.00    -0.028 A 
ATOM     12  C   UNL     1       1.084   6.243 -10.348  0.00  0.00    +0.005 A 
ATOM     13  C   UNL     1       0.747   5.252  -8.173  0.00  0.00    +0.005 A 
ATOM     14  C   UNL     1      -0.084   5.629 -10.805  0.00  0.00    +0.000 A 
ATOM     15  C   UNL     1      -0.419   4.641  -8.633  0.00  0.00    +0.000 A 
ATOM     16  C   UNL     1      -0.833   4.827  -9.950  0.00  0.00    +0.000 A 
ENDBRANCH  10  11
ENDBRANCH   1  10
TORSDOF 2
ENDMDL
MODEL 2
REMARK VINA RESULT:    -5.758      2.791      6.110
REMARK INTER + INTRA:          -6.542
REMARK INTER:                  -6.369
REMARK INTRA:                  -0.172
REMARK UNBOUND:                -0.111
REMARK  Name = 1550473
REMARK  2 active torsions:
REMARK  status: ('A' for Active; 'I' for Inactive)
REMARK    1  A    between atoms: N_1  and  C_4
REMARK    2  A    between atoms: C_4  and  C_5
REMARK                            x       y       z     vdW  Elec       q    Type
REMARK                         _______ _______ _______ _____ _____    ______ ____
ROOT
ATOM      1  N   UNL     1       2.767   8.415  -7.398  0.00  0.00    -0.354 N 
ATOM      2  N   UNL     1       0.594   7.640  -7.605  0.00  0.00    -0.372 N 
ATOM      3  N   UNL     1       2.282   6.127  -7.248  0.00  0.00    -0.372 N 
ATOM      4  C   UNL     1       1.897   7.396  -7.415  0.00  0.00    +0.166 C 
ATOM      5  H   UNL     1       2.416   9.351  -7.561  0.00  0.00    +0.163 HD
ATOM      6  H   UNL     1      -0.086   6.892  -7.620  0.00  0.00    +0.159 HD
ATOM      7  H   UNL     1       0.240   8.581  -7.721  0.00  0.00    +0.159 HD
ATOM      8  H   UNL     1       3.251   5.876  -7.107  0.00  0.00    +0.159 HD
ATOM      9  H   UNL     1       1.617   5.364  -7.272  0.00  0.00    +0.159 HD
ENDROOT
BRANCH   1  10
ATOM     10  C   UNL     1       4.199   8.262  -7.145  0.00  0.00    +0.151 C 
BRANCH  10  11
ATOM     11  C   UNL     1       4.486   8.616  -5.712  0.00  0.00    -0.028 A 
ATOM     12  C   UNL     1       5.297   7.788  -4.923  0.00  0.00    +0.005 A 
ATOM     13  C   UNL     1       3.953   9.782  -5.139  0.00  0.00    +0.005 A 
ATOM     14  C   UNL     1       5.588   8.133  -3.601  0.00  0.00    +0.000 A 
ATOM     15  C   UNL     1       4.246  10.121  -3.819  0.00  0.00    +0.000 A 
ATOM     16  C   UNL     1       5.065   9.298  -3.050  0.00  0.00    +0.000 A 
ENDBRANCH  10  11
ENDBRANCH   1  10
TORSDOF 2
ENDMDL
MODEL 3
REMARK VINA RESULT:    -5.333      4.277      6.495
REMARK INTER + INTRA:          -6.067
REMARK INTER:                  -5.931
REMARK INTRA:                  -0.136
REMARK UNBOUND:                -0.111
REMARK  Name = 1550473
REMARK  2 active torsions:
REMARK  status: ('A' for Active; 'I' for Inactive)
REMARK    1  A    between atoms: N_1  and  C_4
REMARK    2  A    between atoms: C_4  and  C_5
REMARK                            x       y       z     vdW  Elec       q    Type
REMARK                         _______ _______ _______ _____ _____    ______ ____
ROOT
ATOM      1  N   UNL     1       4.769   6.335  -6.826  0.00  0.00    -0.354 N 
ATOM      2  N   UNL     1       4.216   5.527  -8.925  0.00  0.00    -0.372 N 
ATOM      3  N   UNL     1       6.431   5.770  -8.379  0.00  0.00    -0.372 N 
ATOM      4  C   UNL     1       5.145   5.883  -8.030  0.00  0.00    +0.166 C 
ATOM      5  H   UNL     1       3.778   6.425  -6.634  0.00  0.00    +0.163 HD
ATOM      6  H   UNL     1       4.469   5.179  -9.840  0.00  0.00    +0.159 HD
ATOM      7  H   UNL     1       3.226   5.575  -8.714  0.00  0.00    +0.159 HD
ATOM      8  H   UNL     1       7.181   6.028  -7.751  0.00  0.00    +0.159 HD
ATOM      9  H   UNL     1       6.704   5.435  -9.294  0.00  0.00    +0.159 HD
ENDROOT
BRANCH   1  10
ATOM     10  C   UNL     1       5.702   6.698  -5.761  0.00  0.00    +0.151 C 
BRANCH  10  11
ATOM     11  C   UNL     1       5.192   7.926  -5.060  0.00  0.00    -0.028 A 
ATOM     12  C   UNL     1       5.581   8.206  -3.741  0.00  0.00    +0.005 A 
ATOM     13  C   UNL     1       4.325   8.818  -5.710  0.00  0.00    +0.005 A 
ATOM     14  C   UNL     1       5.132   9.363  -3.099  0.00  0.00    +0.000 A 
ATOM     15  C   UNL     1       3.878   9.971  -5.065  0.00  0.00    +0.000 A 
ATOM     16  C   UNL     1       4.284  10.245  -3.761  0.00  0.00    +0.000 A 
ENDBRANCH  10  11
ENDBRANCH   1  10
TORSDOF 2
ENDMDL
MODEL 4
REMARK VINA RESULT:    -5.292     24.345     25.947
REMARK INTER + INTRA:          -6.021
REMARK INTER:                  -5.863
REMARK INTRA:                  -0.158
REMARK UNBOUND:                -0.111
REMARK  Name = 1550473
REMARK  2 active torsions:
REMARK  status: ('A' for Active; 'I' for Inactive)
REMARK    1  A    between atoms: N_1  and  C_4
REMARK    2  A    between atoms: C_4  and  C_5
REMARK                            x       y       z     vdW  Elec       q    Type
REMARK                         _______ _______ _______ _____ _____    ______ ____
ROOT
ATOM      1  N   UNL     1     -21.144  -7.479 -14.514  0.00  0.00    -0.354 N 
ATOM      2  N   UNL     1     -23.148  -6.436 -15.023  0.00  0.00    -0.372 N 
ATOM      3  N   UNL     1     -22.354  -6.323 -12.873  0.00  0.00    -0.372 N 
ATOM      4  C   UNL     1     -22.202  -6.752 -14.131  0.00  0.00    +0.166 C 
ATOM      5  H   UNL     1     -21.103  -7.800 -15.474  0.00  0.00    +0.163 HD
ATOM      6  H   UNL     1     -23.957  -5.886 -14.764  0.00  0.00    +0.159 HD
ATOM      7  H   UNL     1     -23.082  -6.719 -15.993  0.00  0.00    +0.159 HD
ATOM      8  H   UNL     1     -21.678  -6.533 -12.151  0.00  0.00    +0.159 HD
ATOM      9  H   UNL     1     -23.162  -5.781 -12.592  0.00  0.00    +0.159 HD
ENDROOT
BRANCH   1  10
ATOM     10  C   UNL     1     -20.032  -7.832 -13.633  0.00  0.00    +0.151 C 
BRANCH  10  11
ATOM     11  C   UNL     1     -18.823  -7.025 -14.021  0.00  0.00    -0.028 A 
ATOM     12  C   UNL     1     -18.632  -6.624 -15.351  0.00  0.00    +0.005 A 
ATOM     13  C   UNL     1     -17.869  -6.653 -13.061  0.00  0.00    +0.005 A 
ATOM     14  C   UNL     1     -17.525  -5.849 -15.706  0.00  0.00    +0.000 A 
ATOM     15  C   UNL     1     -16.765  -5.880 -13.420  0.00  0.00    +0.000 A 
ATOM     16  C   UNL     1     -16.595  -5.476 -14.742  0.00  0.00    +0.000 A 
ENDBRANCH  10  11
ENDBRANCH   1  10
TORSDOF 2
ENDMDL
MODEL 5
REMARK VINA RESULT:    -5.243      1.481      2.212
REMARK INTER + INTRA:          -5.967
REMARK INTER:                  -5.797
REMARK INTRA:                  -0.170
REMARK UNBOUND:                -0.111
REMARK  Name = 1550473
REMARK  2 active torsions:
REMARK  status: ('A' for Active; 'I' for Inactive)
REMARK    1  A    between atoms: N_1  and  C_4
REMARK    2  A    between atoms: C_4  and  C_5
REMARK                            x       y       z     vdW  Elec       q    Type
REMARK                         _______ _______ _______ _____ _____    ______ ____
ROOT
ATOM      1  N   UNL     1       1.613   8.255  -7.052  0.00  0.00    -0.354 N 
ATOM      2  N   UNL     1       2.974  10.007  -6.390  0.00  0.00    -0.372 N 
ATOM      3  N   UNL     1       3.682   7.855  -6.026  0.00  0.00    -0.372 N 
ATOM      4  C   UNL     1       2.749   8.692  -6.493  0.00  0.00    +0.166 C 
ATOM      5  H   UNL     1       0.932   8.940  -7.359  0.00  0.00    +0.163 HD
ATOM      6  H   UNL     1       3.824  10.367  -5.976  0.00  0.00    +0.159 HD
ATOM      7  H   UNL     1       2.313  10.690  -6.739  0.00  0.00    +0.159 HD
ATOM      8  H   UNL     1       3.569   6.851  -6.069  0.00  0.00    +0.159 HD
ATOM      9  H   UNL     1       4.533   8.196  -5.598  0.00  0.00    +0.159 HD
ENDROOT
BRANCH   1  10
ATOM     10  C   UNL     1       1.295   6.843  -7.261  0.00  0.00    +0.151 C 
BRANCH  10  11
ATOM     11  C   UNL     1       1.706   6.447  -8.652  0.00  0.00    -0.028 A 
ATOM     12  C   UNL     1       2.879   5.706  -8.864  0.00  0.00    +0.005 A 
ATOM     13  C   UNL     1       0.926   6.804  -9.762  0.00  0.00    +0.005 A 
ATOM     14  C   UNL     1       3.246   5.312 -10.153  0.00  0.00    +0.000 A 
ATOM     15  C   UNL     1       1.296   6.410 -11.047  0.00  0.00    +0.000 A 
ATOM     16  C   UNL     1       2.455   5.662 -11.242  0.00  0.00    +0.000 A 
ENDBRANCH  10  11
ENDBRANCH   1  10
TORSDOF 2
ENDMDL
MODEL 6
REMARK VINA RESULT:    -5.219     20.087     21.160
REMARK INTER + INTRA:          -5.940
REMARK INTER:                  -5.795
REMARK INTRA:                  -0.145
REMARK UNBOUND:                -0.111
REMARK  Name = 1550473
REMARK  2 active torsions:
REMARK  status: ('A' for Active; 'I' for Inactive)
REMARK    1  A    between atoms: N_1  and  C_4
REMARK    2  A    between atoms: C_4  and  C_5
REMARK                            x       y       z     vdW  Elec       q    Type
REMARK                         _______ _______ _______ _____ _____    ______ ____
ROOT
ATOM      1  N   UNL     1      -4.149 -13.764  -5.311  0.00  0.00    -0.354 N 
ATOM      2  N   UNL     1      -4.891 -15.697  -4.274  0.00  0.00    -0.372 N 
ATOM      3  N   UNL     1      -6.420 -14.342  -5.319  0.00  0.00    -0.372 N 
ATOM      4  C   UNL     1      -5.151 -14.587  -4.976  0.00  0.00    +0.166 C 
ATOM      5  H   UNL     1      -3.213 -13.990  -4.995  0.00  0.00    +0.163 HD
ATOM      6  H   UNL     1      -5.626 -16.339  -4.010  0.00  0.00    +0.159 HD
ATOM      7  H   UNL     1      -3.948 -15.945  -3.999  0.00  0.00    +0.159 HD
ATOM      8  H   UNL     1      -6.683 -13.518  -5.843  0.00  0.00    +0.159 HD
ATOM      9  H   UNL     1      -7.171 -14.966  -5.053  0.00  0.00    +0.159 HD
ENDROOT
BRANCH   1  10
ATOM     10  C   UNL     1      -4.318 -12.557  -6.119  0.00  0.00    +0.151 C 
BRANCH  10  11
ATOM     11  C   UNL     1      -3.478 -12.676  -7.362  0.00  0.00    -0.028 A 
ATOM     12  C   UNL     1      -3.858 -12.022  -8.543  0.00  0.00    +0.005 A 
ATOM     13  C   UNL     1      -2.299 -13.437  -7.362  0.00  0.00    +0.005 A 
ATOM     14  C   UNL     1      -3.063 -12.108  -9.688  0.00  0.00    +0.000 A 
ATOM     15  C   UNL     1      -1.509 -13.521  -8.508  0.00  0.00    +0.000 A 
ATOM     16  C   UNL     1      -1.889 -12.855  -9.670  0.00  0.00    +0.000 A 
ENDBRANCH  10  11
ENDBRANCH   1  10
TORSDOF 2
ENDMDL
MODEL 7
REMARK VINA RESULT:    -5.098      3.405      4.048
REMARK INTER + INTRA:          -5.805
REMARK INTER:                  -5.727
REMARK INTRA:                  -0.077
REMARK UNBOUND:                -0.111
REMARK  Name = 1550473
REMARK  2 active torsions:
REMARK  status: ('A' for Active; 'I' for Inactive)
REMARK    1  A    between atoms: N_1  and  C_4
REMARK    2  A    between atoms: C_4  and  C_5
REMARK                            x       y       z     vdW  Elec       q    Type
REMARK                         _______ _______ _______ _____ _____    ______ ____
ROOT
ATOM      1  N   UNL     1      -2.703   8.308  -7.164  0.00  0.00    -0.354 N 
ATOM      2  N   UNL     1      -1.937   9.350  -5.243  0.00  0.00    -0.372 N 
ATOM      3  N   UNL     1      -1.205  10.106  -7.282  0.00  0.00    -0.372 N 
ATOM      4  C   UNL     1      -1.952   9.249  -6.577  0.00  0.00    +0.166 C 
ATOM      5  H   UNL     1      -3.222   7.669  -6.573  0.00  0.00    +0.163 HD
ATOM      6  H   UNL     1      -1.383  10.052  -4.772  0.00  0.00    +0.159 HD
ATOM      7  H   UNL     1      -2.493   8.740  -4.656  0.00  0.00    +0.159 HD
ATOM      8  H   UNL     1      -1.168  10.079  -8.292  0.00  0.00    +0.159 HD
ATOM      9  H   UNL     1      -0.635  10.809  -6.828  0.00  0.00    +0.159 HD
ENDROOT
BRANCH   1  10
ATOM     10  C   UNL     1      -2.831   8.148  -8.612  0.00  0.00    +0.151 C 
BRANCH  10  11
ATOM     11  C   UNL     1      -2.136   6.882  -9.030  0.00  0.00    -0.028 A 
ATOM     12  C   UNL     1      -2.488   6.238 -10.225  0.00  0.00    +0.005 A 
ATOM     13  C   UNL     1      -1.121   6.324  -8.238  0.00  0.00    +0.005 A 
ATOM     14  C   UNL     1      -1.823   5.078 -10.629  0.00  0.00    +0.000 A 
ATOM     15  C   UNL     1      -0.459   5.166  -8.645  0.00  0.00    +0.000 A 
ATOM     16  C   UNL     1      -0.808   4.544  -9.841  0.00  0.00    +0.000 A 
ENDBRANCH  10  11
ENDBRANCH   1  10
TORSDOF 2
ENDMDL
MODEL 8
REMARK VINA RESULT:    -5.052      7.188      8.975
REMARK INTER + INTRA:          -5.753
REMARK INTER:                  -5.630
REMARK INTRA:                  -0.123
REMARK UNBOUND:                -0.111
REMARK  Name = 1550473
REMARK  2 active torsions:
REMARK  status: ('A' for Active; 'I' for Inactive)
REMARK    1  A    between atoms: N_1  and  C_4
REMARK    2  A    between atoms: C_4  and  C_5
REMARK                            x       y       z     vdW  Elec       q    Type
REMARK                         _______ _______ _______ _____ _____    ______ ____
ROOT
ATOM      1  N   UNL     1       8.901   6.458  -7.219  0.00  0.00    -0.354 N 
ATOM      2  N   UNL     1       6.772   6.469  -6.305  0.00  0.00    -0.372 N 
ATOM      3  N   UNL     1       8.137   8.281  -5.960  0.00  0.00    -0.372 N 
ATOM      4  C   UNL     1       7.952   7.072  -6.500  0.00  0.00    +0.166 C 
ATOM      5  H   UNL     1       8.709   5.529  -7.575  0.00  0.00    +0.163 HD
ATOM      6  H   UNL     1       6.036   6.909  -5.770  0.00  0.00    +0.159 HD
ATOM      7  H   UNL     1       6.567   5.560  -6.701  0.00  0.00    +0.159 HD
ATOM      8  H   UNL     1       9.006   8.787  -6.065  0.00  0.00    +0.159 HD
ATOM      9  H   UNL     1       7.416   8.733  -5.411  0.00  0.00    +0.159 HD
ENDROOT
BRANCH   1  10
ATOM     10  C   UNL     1      10.199   7.051  -7.535  0.00  0.00    +0.151 C 
BRANCH  10  11
ATOM     11  C   UNL     1      10.630   6.591  -8.900  0.00  0.00    -0.028 A 
ATOM     12  C   UNL     1      11.900   6.028  -9.093  0.00  0.00    +0.005 A 
ATOM     13  C   UNL     1       9.771   6.710 -10.003  0.00  0.00    +0.005 A 
ATOM     14  C   UNL     1      12.290   5.573 -10.355  0.00  0.00    +0.000 A 
ATOM     15  C   UNL     1      10.164   6.255 -11.262  0.00  0.00    +0.000 A 
ATOM     16  C   UNL     1      11.423   5.684 -11.437  0.00  0.00    +0.000 A 
ENDBRANCH  10  11
ENDBRANCH   1  10
TORSDOF 2
ENDMDL
MODEL 9
REMARK VINA RESULT:    -5.021     19.430     20.907
REMARK INTER + INTRA:          -5.719
REMARK INTER:                  -5.575
REMARK INTRA:                  -0.144
REMARK UNBOUND:                -0.111
REMARK  Name = 1550473
REMARK  2 active torsions:
REMARK  status: ('A' for Active; 'I' for Inactive)
REMARK    1  A    between atoms: N_1  and  C_4
REMARK    2  A    between atoms: C_4  and  C_5
REMARK                            x       y       z     vdW  Elec       q    Type
REMARK                         _______ _______ _______ _____ _____    ______ ____
ROOT
ATOM      1  N   UNL     1      -3.978 -14.466 -11.341  0.00  0.00    -0.354 N 
ATOM      2  N   UNL     1      -5.283 -16.231 -10.600  0.00  0.00    -0.372 N 
ATOM      3  N   UNL     1      -5.658 -15.377 -12.697  0.00  0.00    -0.372 N 
ATOM      4  C   UNL     1      -4.966 -15.346 -11.553  0.00  0.00    +0.166 C 
ATOM      5  H   UNL     1      -3.511 -14.475 -10.441  0.00  0.00    +0.163 HD
ATOM      6  H   UNL     1      -6.021 -16.909 -10.733  0.00  0.00    +0.159 HD
ATOM      7  H   UNL     1      -4.784 -16.267  -9.720  0.00  0.00    +0.159 HD
ATOM      8  H   UNL     1      -5.472 -14.732 -13.453  0.00  0.00    +0.159 HD
ATOM      9  H   UNL     1      -6.409 -16.040 -12.844  0.00  0.00    +0.159 HD
ENDROOT
BRANCH   1  10
ATOM     10  C   UNL     1      -3.518 -13.497 -12.334  0.00  0.00    +0.151 C 
BRANCH  10  11
ATOM     11  C   UNL     1      -3.455 -12.135 -11.698  0.00  0.00    -0.028 A 
ATOM     12  C   UNL     1      -3.052 -11.019 -12.445  0.00  0.00    +0.005 A 
ATOM     13  C   UNL     1      -3.803 -11.954 -10.351  0.00  0.00    +0.005 A 
ATOM     14  C   UNL     1      -3.022  -9.749 -11.863  0.00  0.00    +0.000 A 
ATOM     15  C   UNL     1      -3.771 -10.685  -9.773  0.00  0.00    +0.000 A 
ATOM     16  C   UNL     1      -3.382  -9.582 -10.531  0.00  0.00    +0.000 A 
ENDBRANCH  10  11
ENDBRANCH   1  10
TORSDOF 2
ENDMDL
