MODEL 1
REMARK VINA RESULT:    -5.502      0.000      0.000
REMARK INTER + INTRA:          -6.319
REMARK INTER:                  -6.145
REMARK INTRA:                  -0.174
REMARK UNBOUND:                -0.174
REMARK  Name = 1550473
REMARK  2 active torsions:
REMARK  status: ('A' for Active; 'I' for Inactive)
REMARK    1  A    between atoms: N_1  and  C_4
REMARK    2  A    between atoms: C_4  and  C_5
REMARK                            x       y       z     vdW  Elec       q    Type
REMARK                         _______ _______ _______ _____ _____    ______ ____
ROOT
ATOM      1  N   UNL     1      -1.497  11.950  19.281  0.00  0.00    -0.354 N 
ATOM      2  N   UNL     1      -0.495  12.316  17.225  0.00  0.00    -0.372 N 
ATOM      3  N   UNL     1       0.824  11.760  19.018  0.00  0.00    -0.372 N 
ATOM      4  C   UNL     1      -0.394  12.006  18.523  0.00  0.00    +0.166 C 
ATOM      5  H   UNL     1      -2.387  12.177  18.853  0.00  0.00    +0.163 HD
ATOM      6  H   UNL     1       0.319  12.363  16.628  0.00  0.00    +0.159 HD
ATOM      7  H   UNL     1      -1.391  12.498  16.789  0.00  0.00    +0.159 HD
ATOM      8  H   UNL     1       0.969  11.526  19.991  0.00  0.00    +0.159 HD
ATOM      9  H   UNL     1       1.652  11.813  18.439  0.00  0.00    +0.159 HD
ENDROOT
BRANCH   1  10
ATOM     10  C   UNL     1      -1.501  11.569  20.692  0.00  0.00    +0.151 C 
BRANCH  10  11
ATOM     11  C   UNL     1      -1.984  10.150  20.817  0.00  0.00    -0.028 A 
ATOM     12  C   UNL     1      -1.193   9.183  21.454  0.00  0.00    +0.005 A 
ATOM     13  C   UNL     1      -3.233   9.769  20.305  0.00  0.00    +0.005 A 
ATOM     14  C   UNL     1      -1.654   7.872  21.596  0.00  0.00    +0.000 A 
ATOM     15  C   UNL     1      -3.690   8.458  20.448  0.00  0.00    +0.000 A 
ATOM     16  C   UNL     1      -2.901   7.511  21.096  0.00  0.00    +0.000 A 
ENDBRANCH  10  11
ENDBRANCH   1  10
TORSDOF 2
ENDMDL
MODEL 2
REMARK VINA RESULT:    -4.811     54.486     55.426
REMARK INTER + INTRA:          -5.547
REMARK INTER:                  -5.417
REMARK INTRA:                  -0.130
REMARK UNBOUND:                -0.174
REMARK  Name = 1550473
REMARK  2 active torsions:
REMARK  status: ('A' for Active; 'I' for Inactive)
REMARK    1  A    between atoms: N_1  and  C_4
REMARK    2  A    between atoms: C_4  and  C_5
REMARK                            x       y       z     vdW  Elec       q    Type
REMARK                         _______ _______ _______ _____ _____    ______ ____
ROOT
ATOM      1  N   UNL     1      -9.496 -18.938 -27.406  0.00  0.00    -0.354 N 
ATOM      2  N   UNL     1      -8.259 -18.355 -29.275  0.00  0.00    -0.372 N 
ATOM      3  N   UNL     1      -7.384 -17.944 -27.194  0.00  0.00    -0.372 N 
ATOM      4  C   UNL     1      -8.386 -18.415 -27.944  0.00  0.00    +0.166 C 
ATOM      5  H   UNL     1     -10.232 -19.250 -28.029  0.00  0.00    +0.163 HD
ATOM      6  H   UNL     1      -7.431 -17.969 -29.710  0.00  0.00    +0.159 HD
ATOM      7  H   UNL     1      -8.976 -18.710 -29.896  0.00  0.00    +0.159 HD
ATOM      8  H   UNL     1      -7.421 -17.955 -26.183  0.00  0.00    +0.159 HD
ATOM      9  H   UNL     1      -6.553 -17.543 -27.611  0.00  0.00    +0.159 HD
ENDROOT
BRANCH   1  10
ATOM     10  C   UNL     1      -9.710 -19.099 -25.969  0.00  0.00    +0.151 C 
BRANCH  10  11
ATOM     11  C   UNL     1     -11.162 -18.857 -25.659  0.00  0.00    -0.028 A 
ATOM     12  C   UNL     1     -11.575 -18.599 -24.344  0.00  0.00    +0.005 A 
ATOM     13  C   UNL     1     -12.128 -18.879 -26.676  0.00  0.00    +0.005 A 
ATOM     14  C   UNL     1     -12.919 -18.344 -24.059  0.00  0.00    +0.000 A 
ATOM     15  C   UNL     1     -13.469 -18.625 -26.388  0.00  0.00    +0.000 A 
ATOM     16  C   UNL     1     -13.863 -18.355 -25.080  0.00  0.00    +0.000 A 
ENDBRANCH  10  11
ENDBRANCH   1  10
TORSDOF 2
ENDMDL
MODEL 3
REMARK VINA RESULT:    -4.772      2.900      4.911
REMARK INTER + INTRA:          -5.504
REMARK INTER:                  -5.396
REMARK INTRA:                  -0.108
REMARK UNBOUND:                -0.174
REMARK  Name = 1550473
REMARK  2 active torsions:
REMARK  status: ('A' for Active; 'I' for Inactive)
REMARK    1  A    between atoms: N_1  and  C_4
REMARK    2  A    between atoms: C_4  and  C_5
REMARK                            x       y       z     vdW  Elec       q    Type
REMARK                         _______ _______ _______ _____ _____    ______ ____
ROOT
ATOM      1  N   UNL     1      -2.371   9.030  20.935  0.00  0.00    -0.354 N 
ATOM      2  N   UNL     1      -2.409   6.724  21.140  0.00  0.00    -0.372 N 
ATOM      3  N   UNL     1      -4.363   7.895  21.419  0.00  0.00    -0.372 N 
ATOM      4  C   UNL     1      -3.050   7.899  21.164  0.00  0.00    +0.166 C 
ATOM      5  H   UNL     1      -1.371   8.968  20.777  0.00  0.00    +0.163 HD
ATOM      6  H   UNL     1      -2.896   5.853  21.306  0.00  0.00    +0.159 HD
ATOM      7  H   UNL     1      -1.419   6.661  20.937  0.00  0.00    +0.159 HD
ATOM      8  H   UNL     1      -4.903   8.749  21.457  0.00  0.00    +0.159 HD
ATOM      9  H   UNL     1      -4.865   7.035  21.599  0.00  0.00    +0.159 HD
ENDROOT
BRANCH   1  10
ATOM     10  C   UNL     1      -2.984  10.356  20.885  0.00  0.00    +0.151 C 
BRANCH  10  11
ATOM     11  C   UNL     1      -1.907  11.400  20.993  0.00  0.00    -0.028 A 
ATOM     12  C   UNL     1      -0.710  11.265  20.273  0.00  0.00    +0.005 A 
ATOM     13  C   UNL     1      -2.078  12.529  21.808  0.00  0.00    +0.005 A 
ATOM     14  C   UNL     1       0.278  12.250  20.349  0.00  0.00    +0.000 A 
ATOM     15  C   UNL     1      -1.089  13.509  21.882  0.00  0.00    +0.000 A 
ATOM     16  C   UNL     1       0.088  13.370  21.151  0.00  0.00    +0.000 A 
ENDBRANCH  10  11
ENDBRANCH   1  10
TORSDOF 2
ENDMDL
MODEL 4
REMARK VINA RESULT:    -4.737     37.584     38.464
REMARK INTER + INTRA:          -5.466
REMARK INTER:                  -5.375
REMARK INTRA:                  -0.091
REMARK UNBOUND:                -0.174
REMARK  Name = 1550473
REMARK  2 active torsions:
REMARK  status: ('A' for Active; 'I' for Inactive)
REMARK    1  A    between atoms: N_1  and  C_4
REMARK    2  A    between atoms: C_4  and  C_5
REMARK                            x       y       z     vdW  Elec       q    Type
REMARK                         _______ _______ _______ _____ _____    ______ ____
ROOT
ATOM      1  N   UNL     1       4.623  -5.570 -13.568  0.00  0.00    -0.354 N 
ATOM      2  N   UNL     1       5.752  -3.556 -13.751  0.00  0.00    -0.372 N 
ATOM      3  N   UNL     1       5.436  -4.464 -11.668  0.00  0.00    -0.372 N 
ATOM      4  C   UNL     1       5.263  -4.543 -12.991  0.00  0.00    +0.166 C 
ATOM      5  H   UNL     1       4.498  -5.556 -14.573  0.00  0.00    +0.163 HD
ATOM      6  H   UNL     1       6.243  -2.770 -13.345  0.00  0.00    +0.159 HD
ATOM      7  H   UNL     1       5.667  -3.568 -14.760  0.00  0.00    +0.159 HD
ATOM      8  H   UNL     1       5.085  -5.174 -11.039  0.00  0.00    +0.159 HD
ATOM      9  H   UNL     1       5.914  -3.680 -11.242  0.00  0.00    +0.159 HD
ENDROOT
BRANCH   1  10
ATOM     10  C   UNL     1       4.099  -6.721 -12.835  0.00  0.00    +0.151 C 
BRANCH  10  11
ATOM     11  C   UNL     1       3.339  -7.604 -13.786  0.00  0.00    -0.028 A 
ATOM     12  C   UNL     1       1.958  -7.434 -13.966  0.00  0.00    +0.005 A 
ATOM     13  C   UNL     1       3.994  -8.608 -14.516  0.00  0.00    +0.005 A 
ATOM     14  C   UNL     1       1.256  -8.233 -14.871  0.00  0.00    +0.000 A 
ATOM     15  C   UNL     1       3.290  -9.404 -15.418  0.00  0.00    +0.000 A 
ATOM     16  C   UNL     1       1.921  -9.215 -15.598  0.00  0.00    +0.000 A 
ENDBRANCH  10  11
ENDBRANCH   1  10
TORSDOF 2
ENDMDL
MODEL 5
REMARK VINA RESULT:    -4.722     26.272     27.596
REMARK INTER + INTRA:          -5.449
REMARK INTER:                  -5.296
REMARK INTRA:                  -0.152
REMARK UNBOUND:                -0.174
REMARK  Name = 1550473
REMARK  2 active torsions:
REMARK  status: ('A' for Active; 'I' for Inactive)
REMARK    1  A    between atoms: N_1  and  C_4
REMARK    2  A    between atoms: C_4  and  C_5
REMARK                            x       y       z     vdW  Elec       q    Type
REMARK                         _______ _______ _______ _____ _____    ______ ____
ROOT
ATOM      1  N   UNL     1     -15.591  -3.752   1.007  0.00  0.00    -0.354 N 
ATOM      2  N   UNL     1     -14.688  -1.639   0.715  0.00  0.00    -0.372 N 
ATOM      3  N   UNL     1     -13.839  -2.989   2.365  0.00  0.00    -0.372 N 
ATOM      4  C   UNL     1     -14.711  -2.808   1.366  0.00  0.00    +0.166 C 
ATOM      5  H   UNL     1     -16.245  -3.542   0.262  0.00  0.00    +0.163 HD
ATOM      6  H   UNL     1     -14.033  -0.909   0.961  0.00  0.00    +0.159 HD
ATOM      7  H   UNL     1     -15.312  -1.449  -0.060  0.00  0.00    +0.159 HD
ATOM      8  H   UNL     1     -13.809  -3.847   2.900  0.00  0.00    +0.159 HD
ATOM      9  H   UNL     1     -13.184  -2.267   2.634  0.00  0.00    +0.159 HD
ENDROOT
BRANCH   1  10
ATOM     10  C   UNL     1     -15.661  -5.079   1.616  0.00  0.00    +0.151 C 
BRANCH  10  11
ATOM     11  C   UNL     1     -16.973  -5.219   2.338  0.00  0.00    -0.028 A 
ATOM     12  C   UNL     1     -18.178  -5.267   1.622  0.00  0.00    +0.005 A 
ATOM     13  C   UNL     1     -17.017  -5.310   3.738  0.00  0.00    +0.005 A 
ATOM     14  C   UNL     1     -19.394  -5.427   2.290  0.00  0.00    +0.000 A 
ATOM     15  C   UNL     1     -18.234  -5.469   4.401  0.00  0.00    +0.000 A 
ATOM     16  C   UNL     1     -19.422  -5.530   3.676  0.00  0.00    +0.000 A 
ENDBRANCH  10  11
ENDBRANCH   1  10
TORSDOF 2
ENDMDL
MODEL 6
REMARK VINA RESULT:    -4.686     57.564     58.405
REMARK INTER + INTRA:          -5.408
REMARK INTER:                  -5.271
REMARK INTRA:                  -0.137
REMARK UNBOUND:                -0.174
REMARK  Name = 1550473
REMARK  2 active torsions:
REMARK  status: ('A' for Active; 'I' for Inactive)
REMARK    1  A    between atoms: N_1  and  C_4
REMARK    2  A    between atoms: C_4  and  C_5
REMARK                            x       y       z     vdW  Elec       q    Type
REMARK                         _______ _______ _______ _____ _____    ______ ____
ROOT
ATOM      1  N   UNL     1      -6.372 -16.149 -32.236  0.00  0.00    -0.354 N 
ATOM      2  N   UNL     1      -6.407 -15.391 -34.425  0.00  0.00    -0.372 N 
ATOM      3  N   UNL     1      -7.553 -14.212 -32.824  0.00  0.00    -0.372 N 
ATOM      4  C   UNL     1      -6.779 -15.254 -33.146  0.00  0.00    +0.166 C 
ATOM      5  H   UNL     1      -5.811 -16.933 -32.550  0.00  0.00    +0.163 HD
ATOM      6  H   UNL     1      -6.696 -14.729 -35.133  0.00  0.00    +0.159 HD
ATOM      7  H   UNL     1      -5.809 -16.149 -34.727  0.00  0.00    +0.159 HD
ATOM      8  H   UNL     1      -7.874 -14.055 -31.878  0.00  0.00    +0.159 HD
ATOM      9  H   UNL     1      -7.863 -13.546 -33.521  0.00  0.00    +0.159 HD
ENDROOT
BRANCH   1  10
ATOM     10  C   UNL     1      -6.676 -16.061 -30.809  0.00  0.00    +0.151 C 
BRANCH  10  11
ATOM     11  C   UNL     1      -7.540 -17.229 -30.419  0.00  0.00    -0.028 A 
ATOM     12  C   UNL     1      -7.817 -18.249 -31.340  0.00  0.00    +0.005 A 
ATOM     13  C   UNL     1      -8.078 -17.324 -29.126  0.00  0.00    +0.005 A 
ATOM     14  C   UNL     1      -8.594 -19.349 -30.968  0.00  0.00    +0.000 A 
ATOM     15  C   UNL     1      -8.854 -18.423 -28.759  0.00  0.00    +0.000 A 
ATOM     16  C   UNL     1      -9.110 -19.437 -29.680  0.00  0.00    +0.000 A 
ENDBRANCH  10  11
ENDBRANCH   1  10
TORSDOF 2
ENDMDL
MODEL 7
REMARK VINA RESULT:    -4.573     18.574     20.124
REMARK INTER + INTRA:          -5.282
REMARK INTER:                  -5.167
REMARK INTRA:                  -0.115
REMARK UNBOUND:                -0.174
REMARK  Name = 1550473
REMARK  2 active torsions:
REMARK  status: ('A' for Active; 'I' for Inactive)
REMARK    1  A    between atoms: N_1  and  C_4
REMARK    2  A    between atoms: C_4  and  C_5
REMARK                            x       y       z     vdW  Elec       q    Type
REMARK                         _______ _______ _______ _____ _____    ______ ____
ROOT
ATOM      1  N   UNL     1      17.793  10.201  12.684  0.00  0.00    -0.354 N 
ATOM      2  N   UNL     1      17.759  11.769  10.980  0.00  0.00    -0.372 N 
ATOM      3  N   UNL     1      19.770  10.865  11.615  0.00  0.00    -0.372 N 
ATOM      4  C   UNL     1      18.444  10.934  11.771  0.00  0.00    +0.166 C 
ATOM      5  H   UNL     1      16.791  10.322  12.773  0.00  0.00    +0.163 HD
ATOM      6  H   UNL     1      18.222  12.333  10.280  0.00  0.00    +0.159 HD
ATOM      7  H   UNL     1      16.752  11.854  11.040  0.00  0.00    +0.159 HD
ATOM      8  H   UNL     1      20.345  10.259  12.184  0.00  0.00    +0.159 HD
ATOM      9  H   UNL     1      20.253  11.430  10.927  0.00  0.00    +0.159 HD
ENDROOT
BRANCH   1  10
ATOM     10  C   UNL     1      18.438   9.223  13.558  0.00  0.00    +0.151 C 
BRANCH  10  11
ATOM     11  C   UNL     1      17.386   8.339  14.168  0.00  0.00    -0.028 A 
ATOM     12  C   UNL     1      16.112   8.848  14.462  0.00  0.00    +0.005 A 
ATOM     13  C   UNL     1      17.653   6.991  14.449  0.00  0.00    +0.005 A 
ATOM     14  C   UNL     1      15.124   8.020  15.001  0.00  0.00    +0.000 A 
ATOM     15  C   UNL     1      16.665   6.168  14.988  0.00  0.00    +0.000 A 
ATOM     16  C   UNL     1      15.400   6.682  15.262  0.00  0.00    +0.000 A 
ENDBRANCH  10  11
ENDBRANCH   1  10
TORSDOF 2
ENDMDL
MODEL 8
REMARK VINA RESULT:    -4.544     57.327     58.199
REMARK INTER + INTRA:          -5.249
REMARK INTER:                  -5.095
REMARK INTRA:                  -0.154
REMARK UNBOUND:                -0.174
REMARK  Name = 1550473
REMARK  2 active torsions:
REMARK  status: ('A' for Active; 'I' for Inactive)
REMARK    1  A    between atoms: N_1  and  C_4
REMARK    2  A    between atoms: C_4  and  C_5
REMARK                            x       y       z     vdW  Elec       q    Type
REMARK                         _______ _______ _______ _____ _____    ______ ____
ROOT
ATOM      1  N   UNL     1      -7.495 -16.300 -29.799  0.00  0.00    -0.354 N 
ATOM      2  N   UNL     1      -6.108 -15.161 -31.263  0.00  0.00    -0.372 N 
ATOM      3  N   UNL     1      -5.578 -17.317 -30.683  0.00  0.00    -0.372 N 
ATOM      4  C   UNL     1      -6.401 -16.269 -30.572  0.00  0.00    +0.166 C 
ATOM      5  H   UNL     1      -8.062 -15.462 -29.734  0.00  0.00    +0.163 HD
ATOM      6  H   UNL     1      -5.292 -15.109 -31.858  0.00  0.00    +0.159 HD
ATOM      7  H   UNL     1      -6.702 -14.341 -31.232  0.00  0.00    +0.159 HD
ATOM      8  H   UNL     1      -5.739 -18.180 -30.183  0.00  0.00    +0.159 HD
ATOM      9  H   UNL     1      -4.749 -17.280 -31.264  0.00  0.00    +0.159 HD
ENDROOT
BRANCH   1  10
ATOM     10  C   UNL     1      -7.932 -17.475 -29.048  0.00  0.00    +0.151 C 
BRANCH  10  11
ATOM     11  C   UNL     1      -8.976 -18.208 -29.845  0.00  0.00    -0.028 A 
ATOM     12  C   UNL     1     -10.332 -17.870 -29.724  0.00  0.00    +0.005 A 
ATOM     13  C   UNL     1      -8.614 -19.237 -30.729  0.00  0.00    +0.005 A 
ATOM     14  C   UNL     1     -11.298 -18.530 -30.487  0.00  0.00    +0.000 A 
ATOM     15  C   UNL     1      -9.582 -19.894 -31.488  0.00  0.00    +0.000 A 
ATOM     16  C   UNL     1     -10.923 -19.539 -31.369  0.00  0.00    +0.000 A 
ENDBRANCH  10  11
ENDBRANCH   1  10
TORSDOF 2
ENDMDL
MODEL 9
REMARK VINA RESULT:    -4.499     43.388     44.156
REMARK INTER + INTRA:          -5.199
REMARK INTER:                  -5.060
REMARK INTRA:                  -0.139
REMARK UNBOUND:                -0.174
REMARK  Name = 1550473
REMARK  2 active torsions:
REMARK  status: ('A' for Active; 'I' for Inactive)
REMARK    1  A    between atoms: N_1  and  C_4
REMARK    2  A    between atoms: C_4  and  C_5
REMARK                            x       y       z     vdW  Elec       q    Type
REMARK                         _______ _______ _______ _____ _____    ______ ____
ROOT
ATOM      1  N   UNL     1      -1.528 -12.817 -17.326  0.00  0.00    -0.354 N 
ATOM      2  N   UNL     1       0.321 -11.846 -16.326  0.00  0.00    -0.372 N 
ATOM      3  N   UNL     1      -1.683 -10.730 -16.271  0.00  0.00    -0.372 N 
ATOM      4  C   UNL     1      -0.977 -11.802 -16.647  0.00  0.00    +0.166 C 
ATOM      5  H   UNL     1      -0.932 -13.587 -17.609  0.00  0.00    +0.163 HD
ATOM      6  H   UNL     1       0.764 -11.097 -15.811  0.00  0.00    +0.159 HD
ATOM      7  H   UNL     1       0.904 -12.638 -16.569  0.00  0.00    +0.159 HD
ATOM      8  H   UNL     1      -2.666 -10.633 -16.487  0.00  0.00    +0.159 HD
ATOM      9  H   UNL     1      -1.255  -9.965 -15.765  0.00  0.00    +0.159 HD
ENDROOT
BRANCH   1  10
ATOM     10  C   UNL     1      -2.945 -12.891 -17.679  0.00  0.00    +0.151 C 
BRANCH  10  11
ATOM     11  C   UNL     1      -3.482 -14.237 -17.274  0.00  0.00    -0.028 A 
ATOM     12  C   UNL     1      -2.612 -15.317 -17.065  0.00  0.00    +0.005 A 
ATOM     13  C   UNL     1      -4.859 -14.436 -17.093  0.00  0.00    +0.005 A 
ATOM     14  C   UNL     1      -3.107 -16.559 -16.660  0.00  0.00    +0.000 A 
ATOM     15  C   UNL     1      -5.350 -15.678 -16.690  0.00  0.00    +0.000 A 
ATOM     16  C   UNL     1      -4.473 -16.738 -16.471  0.00  0.00    +0.000 A 
ENDBRANCH  10  11
ENDBRANCH   1  10
TORSDOF 2
ENDMDL
