MODEL 1
REMARK VINA RESULT:    -6.040      0.000      0.000
REMARK INTER + INTRA:          -6.853
REMARK INTER:                  -6.746
REMARK INTRA:                  -0.107
REMARK UNBOUND:                -0.107
REMARK  Name = 1550473
REMARK  2 active torsions:
REMARK  status: ('A' for Active; 'I' for Inactive)
REMARK    1  A    between atoms: N_1  and  C_4
REMARK    2  A    between atoms: C_4  and  C_5
REMARK                            x       y       z     vdW  Elec       q    Type
REMARK                         _______ _______ _______ _____ _____    ______ ____
ROOT
ATOM      1  N   UNL     1      -2.804   7.807   1.930  0.00  0.00    -0.354 N 
ATOM      2  N   UNL     1      -3.472   7.539   4.131  0.00  0.00    -0.372 N 
ATOM      3  N   UNL     1      -4.626   6.440   2.480  0.00  0.00    -0.372 N 
ATOM      4  C   UNL     1      -3.632   7.262   2.831  0.00  0.00    +0.166 C 
ATOM      5  H   UNL     1      -2.089   8.446   2.257  0.00  0.00    +0.163 HD
ATOM      6  H   UNL     1      -4.079   7.141   4.834  0.00  0.00    +0.159 HD
ATOM      7  H   UNL     1      -2.728   8.142   4.460  0.00  0.00    +0.159 HD
ATOM      8  H   UNL     1      -4.803   6.196   1.515  0.00  0.00    +0.159 HD
ATOM      9  H   UNL     1      -5.251   6.040   3.169  0.00  0.00    +0.159 HD
ENDROOT
BRANCH   1  10
ATOM     10  C   UNL     1      -2.858   7.527   0.496  0.00  0.00    +0.151 C 
BRANCH  10  11
ATOM     11  C   UNL     1      -1.460   7.529  -0.059  0.00  0.00    -0.028 A 
ATOM     12  C   UNL     1      -0.982   6.431  -0.788  0.00  0.00    +0.005 A 
ATOM     13  C   UNL     1      -0.611   8.629   0.137  0.00  0.00    +0.005 A 
ATOM     14  C   UNL     1       0.306   6.444  -1.329  0.00  0.00    +0.000 A 
ATOM     15  C   UNL     1       0.675   8.638  -0.404  0.00  0.00    +0.000 A 
ATOM     16  C   UNL     1       1.132   7.547  -1.139  0.00  0.00    +0.000 A 
ENDBRANCH  10  11
ENDBRANCH   1  10
TORSDOF 2
ENDMDL
MODEL 2
REMARK VINA RESULT:    -5.840      1.755      2.267
REMARK INTER + INTRA:          -6.631
REMARK INTER:                  -6.524
REMARK INTRA:                  -0.107
REMARK UNBOUND:                -0.107
REMARK  Name = 1550473
REMARK  2 active torsions:
REMARK  status: ('A' for Active; 'I' for Inactive)
REMARK    1  A    between atoms: N_1  and  C_4
REMARK    2  A    between atoms: C_4  and  C_5
REMARK                            x       y       z     vdW  Elec       q    Type
REMARK                         _______ _______ _______ _____ _____    ______ ____
ROOT
ATOM      1  N   UNL     1      -4.206   7.175  -0.100  0.00  0.00    -0.354 N 
ATOM      2  N   UNL     1      -6.394   6.882  -0.801  0.00  0.00    -0.372 N 
ATOM      3  N   UNL     1      -6.002   7.562   1.355  0.00  0.00    -0.372 N 
ATOM      4  C   UNL     1      -5.520   7.209   0.159  0.00  0.00    +0.166 C 
ATOM      5  H   UNL     1      -3.904   6.870  -1.018  0.00  0.00    +0.163 HD
ATOM      6  H   UNL     1      -7.392   6.902  -0.637  0.00  0.00    +0.159 HD
ATOM      7  H   UNL     1      -6.091   6.622  -1.732  0.00  0.00    +0.159 HD
ATOM      8  H   UNL     1      -5.395   7.815   2.123  0.00  0.00    +0.159 HD
ATOM      9  H   UNL     1      -6.997   7.577   1.543  0.00  0.00    +0.159 HD
ENDROOT
BRANCH   1  10
ATOM     10  C   UNL     1      -3.174   7.564   0.859  0.00  0.00    +0.151 C 
BRANCH  10  11
ATOM     11  C   UNL     1      -1.829   7.487   0.191  0.00  0.00    -0.028 A 
ATOM     12  C   UNL     1      -1.469   6.355  -0.556  0.00  0.00    +0.005 A 
ATOM     13  C   UNL     1      -0.912   8.543   0.297  0.00  0.00    +0.005 A 
ATOM     14  C   UNL     1      -0.232   6.295  -1.201  0.00  0.00    +0.000 A 
ATOM     15  C   UNL     1       0.323   8.479  -0.348  0.00  0.00    +0.000 A 
ATOM     16  C   UNL     1       0.662   7.356  -1.099  0.00  0.00    +0.000 A 
ENDBRANCH  10  11
ENDBRANCH   1  10
TORSDOF 2
ENDMDL
MODEL 3
REMARK VINA RESULT:    -5.821     13.005     14.494
REMARK INTER + INTRA:          -6.609
REMARK INTER:                  -6.469
REMARK INTRA:                  -0.140
REMARK UNBOUND:                -0.107
REMARK  Name = 1550473
REMARK  2 active torsions:
REMARK  status: ('A' for Active; 'I' for Inactive)
REMARK    1  A    between atoms: N_1  and  C_4
REMARK    2  A    between atoms: C_4  and  C_5
REMARK                            x       y       z     vdW  Elec       q    Type
REMARK                         _______ _______ _______ _____ _____    ______ ____
ROOT
ATOM      1  N   UNL     1       1.305  -2.613  -9.324  0.00  0.00    -0.354 N 
ATOM      2  N   UNL     1       1.818  -1.337 -11.188  0.00  0.00    -0.372 N 
ATOM      3  N   UNL     1       0.818  -3.381 -11.484  0.00  0.00    -0.372 N 
ATOM      4  C   UNL     1       1.309  -2.455 -10.654  0.00  0.00    +0.166 C 
ATOM      5  H   UNL     1       1.719  -1.886  -8.751  0.00  0.00    +0.163 HD
ATOM      6  H   UNL     1       1.832  -1.189 -12.188  0.00  0.00    +0.159 HD
ATOM      7  H   UNL     1       2.190  -0.593 -10.611  0.00  0.00    +0.159 HD
ATOM      8  H   UNL     1       0.425  -4.249 -11.145  0.00  0.00    +0.159 HD
ATOM      9  H   UNL     1       0.834  -3.256 -12.488  0.00  0.00    +0.159 HD
ENDROOT
BRANCH   1  10
ATOM     10  C   UNL     1       0.726  -3.768  -8.640  0.00  0.00    +0.151 C 
BRANCH  10  11
ATOM     11  C   UNL     1      -0.083  -3.289  -7.466  0.00  0.00    -0.028 A 
ATOM     12  C   UNL     1      -0.490  -4.186  -6.468  0.00  0.00    +0.005 A 
ATOM     13  C   UNL     1      -0.441  -1.937  -7.343  0.00  0.00    +0.005 A 
ATOM     14  C   UNL     1      -1.215  -3.736  -5.362  0.00  0.00    +0.000 A 
ATOM     15  C   UNL     1      -1.166  -1.492  -6.238  0.00  0.00    +0.000 A 
ATOM     16  C   UNL     1      -1.551  -2.391  -5.247  0.00  0.00    +0.000 A 
ENDBRANCH  10  11
ENDBRANCH   1  10
TORSDOF 2
ENDMDL
MODEL 4
REMARK VINA RESULT:    -5.529     13.985     15.416
REMARK INTER + INTRA:          -6.283
REMARK INTER:                  -6.143
REMARK INTRA:                  -0.140
REMARK UNBOUND:                -0.107
REMARK  Name = 1550473
REMARK  2 active torsions:
REMARK  status: ('A' for Active; 'I' for Inactive)
REMARK    1  A    between atoms: N_1  and  C_4
REMARK    2  A    between atoms: C_4  and  C_5
REMARK                            x       y       z     vdW  Elec       q    Type
REMARK                         _______ _______ _______ _____ _____    ______ ____
ROOT
ATOM      1  N   UNL     1       1.521  -3.743  -9.806  0.00  0.00    -0.354 N 
ATOM      2  N   UNL     1       3.328  -4.452 -11.070  0.00  0.00    -0.372 N 
ATOM      3  N   UNL     1       3.261  -2.273 -10.355  0.00  0.00    -0.372 N 
ATOM      4  C   UNL     1       2.692  -3.482 -10.402  0.00  0.00    +0.166 C 
ATOM      5  H   UNL     1       1.128  -4.673  -9.904  0.00  0.00    +0.163 HD
ATOM      6  H   UNL     1       4.215  -4.285 -11.527  0.00  0.00    +0.159 HD
ATOM      7  H   UNL     1       2.955  -5.392 -11.127  0.00  0.00    +0.159 HD
ATOM      8  H   UNL     1       2.829  -1.496  -9.873  0.00  0.00    +0.159 HD
ATOM      9  H   UNL     1       4.142  -2.083 -10.816  0.00  0.00    +0.159 HD
ENDROOT
BRANCH   1  10
ATOM     10  C   UNL     1       0.775  -2.772  -9.009  0.00  0.00    +0.151 C 
BRANCH  10  11
ATOM     11  C   UNL     1       0.305  -3.433  -7.742  0.00  0.00    -0.028 A 
ATOM     12  C   UNL     1      -0.462  -2.720  -6.809  0.00  0.00    +0.005 A 
ATOM     13  C   UNL     1       0.620  -4.774  -7.472  0.00  0.00    +0.005 A 
ATOM     14  C   UNL     1      -0.924  -3.343  -5.647  0.00  0.00    +0.000 A 
ATOM     15  C   UNL     1       0.158  -5.391  -6.310  0.00  0.00    +0.000 A 
ATOM     16  C   UNL     1      -0.616  -4.676  -5.399  0.00  0.00    +0.000 A 
ENDBRANCH  10  11
ENDBRANCH   1  10
TORSDOF 2
ENDMDL
MODEL 5
REMARK VINA RESULT:    -5.478     19.919     20.672
REMARK INTER + INTRA:          -6.226
REMARK INTER:                  -6.083
REMARK INTRA:                  -0.144
REMARK UNBOUND:                -0.107
REMARK  Name = 1550473
REMARK  2 active torsions:
REMARK  status: ('A' for Active; 'I' for Inactive)
REMARK    1  A    between atoms: N_1  and  C_4
REMARK    2  A    between atoms: C_4  and  C_5
REMARK                            x       y       z     vdW  Elec       q    Type
REMARK                         _______ _______ _______ _____ _____    ______ ____
ROOT
ATOM      1  N   UNL     1     -11.862 -10.425  -4.284  0.00  0.00    -0.354 N 
ATOM      2  N   UNL     1     -10.136 -11.028  -5.706  0.00  0.00    -0.372 N 
ATOM      3  N   UNL     1      -9.654 -10.568  -3.511  0.00  0.00    -0.372 N 
ATOM      4  C   UNL     1     -10.560 -10.669  -4.489  0.00  0.00    +0.166 C 
ATOM      5  H   UNL     1     -12.494 -10.490  -5.074  0.00  0.00    +0.163 HD
ATOM      6  H   UNL     1      -9.161 -11.222  -5.890  0.00  0.00    +0.159 HD
ATOM      7  H   UNL     1     -10.777 -11.137  -6.483  0.00  0.00    +0.159 HD
ATOM      8  H   UNL     1      -9.909 -10.295  -2.571  0.00  0.00    +0.159 HD
ATOM      9  H   UNL     1      -8.672 -10.746  -3.678  0.00  0.00    +0.159 HD
ENDROOT
BRANCH   1  10
ATOM     10  C   UNL     1     -12.434 -10.080  -2.984  0.00  0.00    +0.151 C 
BRANCH  10  11
ATOM     11  C   UNL     1     -13.191  -8.787  -3.108  0.00  0.00    -0.028 A 
ATOM     12  C   UNL     1     -13.280  -8.130  -4.345  0.00  0.00    +0.005 A 
ATOM     13  C   UNL     1     -13.826  -8.215  -1.995  0.00  0.00    +0.005 A 
ATOM     14  C   UNL     1     -14.008  -6.944  -4.467  0.00  0.00    +0.000 A 
ATOM     15  C   UNL     1     -14.551  -7.031  -2.121  0.00  0.00    +0.000 A 
ATOM     16  C   UNL     1     -14.644  -6.397  -3.358  0.00  0.00    +0.000 A 
ENDBRANCH  10  11
ENDBRANCH   1  10
TORSDOF 2
ENDMDL
MODEL 6
REMARK VINA RESULT:    -5.467     20.183     20.933
REMARK INTER + INTRA:          -6.214
REMARK INTER:                  -6.103
REMARK INTRA:                  -0.111
REMARK UNBOUND:                -0.107
REMARK  Name = 1550473
REMARK  2 active torsions:
REMARK  status: ('A' for Active; 'I' for Inactive)
REMARK    1  A    between atoms: N_1  and  C_4
REMARK    2  A    between atoms: C_4  and  C_5
REMARK                            x       y       z     vdW  Elec       q    Type
REMARK                         _______ _______ _______ _____ _____    ______ ____
ROOT
ATOM      1  N   UNL     1     -10.904 -10.729  -3.548  0.00  0.00    -0.354 N 
ATOM      2  N   UNL     1      -8.644 -10.948  -4.009  0.00  0.00    -0.372 N 
ATOM      3  N   UNL     1     -10.148 -11.092  -5.736  0.00  0.00    -0.372 N 
ATOM      4  C   UNL     1      -9.915 -10.922  -4.431  0.00  0.00    +0.166 C 
ATOM      5  H   UNL     1     -10.663 -10.636  -2.568  0.00  0.00    +0.163 HD
ATOM      6  H   UNL     1      -7.877 -11.088  -4.652  0.00  0.00    +0.159 HD
ATOM      7  H   UNL     1      -8.403 -10.809  -3.035  0.00  0.00    +0.159 HD
ATOM      8  H   UNL     1     -11.085 -11.089  -6.118  0.00  0.00    +0.159 HD
ATOM      9  H   UNL     1      -9.394 -11.246  -6.394  0.00  0.00    +0.159 HD
ENDROOT
BRANCH   1  10
ATOM     10  C   UNL     1     -12.316 -10.630  -3.911  0.00  0.00    +0.151 C 
BRANCH  10  11
ATOM     11  C   UNL     1     -12.967  -9.568  -3.069  0.00  0.00    -0.028 A 
ATOM     12  C   UNL     1     -12.885  -9.619  -1.670  0.00  0.00    +0.005 A 
ATOM     13  C   UNL     1     -13.663  -8.504  -3.665  0.00  0.00    +0.005 A 
ATOM     14  C   UNL     1     -13.463  -8.616  -0.888  0.00  0.00    +0.000 A 
ATOM     15  C   UNL     1     -14.240  -7.506  -2.881  0.00  0.00    +0.000 A 
ATOM     16  C   UNL     1     -14.138  -7.560  -1.493  0.00  0.00    +0.000 A 
ENDBRANCH  10  11
ENDBRANCH   1  10
TORSDOF 2
ENDMDL
MODEL 7
REMARK VINA RESULT:    -5.342      2.390      2.776
REMARK INTER + INTRA:          -6.074
REMARK INTER:                  -5.947
REMARK INTRA:                  -0.128
REMARK UNBOUND:                -0.107
REMARK  Name = 1550473
REMARK  2 active torsions:
REMARK  status: ('A' for Active; 'I' for Inactive)
REMARK    1  A    between atoms: N_1  and  C_4
REMARK    2  A    between atoms: C_4  and  C_5
REMARK                            x       y       z     vdW  Elec       q    Type
REMARK                         _______ _______ _______ _____ _____    ______ ____
ROOT
ATOM      1  N   UNL     1      -1.418   9.871   2.352  0.00  0.00    -0.354 N 
ATOM      2  N   UNL     1      -1.066  11.662   3.777  0.00  0.00    -0.372 N 
ATOM      3  N   UNL     1      -2.999  11.590   2.543  0.00  0.00    -0.372 N 
ATOM      4  C   UNL     1      -1.832  11.030   2.880  0.00  0.00    +0.166 C 
ATOM      5  H   UNL     1      -0.509   9.514   2.627  0.00  0.00    +0.163 HD
ATOM      6  H   UNL     1      -1.354  12.537   4.195  0.00  0.00    +0.159 HD
ATOM      7  H   UNL     1      -0.180  11.281   4.084  0.00  0.00    +0.159 HD
ATOM      8  H   UNL     1      -3.620  11.167   1.867  0.00  0.00    +0.159 HD
ATOM      9  H   UNL     1      -3.299  12.471   2.942  0.00  0.00    +0.159 HD
ENDROOT
BRANCH   1  10
ATOM     10  C   UNL     1      -2.201   9.076   1.408  0.00  0.00    +0.151 C 
BRANCH  10  11
ATOM     11  C   UNL     1      -1.264   8.345   0.486  0.00  0.00    -0.028 A 
ATOM     12  C   UNL     1      -1.590   7.068   0.007  0.00  0.00    +0.005 A 
ATOM     13  C   UNL     1      -0.053   8.927   0.083  0.00  0.00    +0.005 A 
ATOM     14  C   UNL     1      -0.734   6.401  -0.874  0.00  0.00    +0.000 A 
ATOM     15  C   UNL     1       0.799   8.258  -0.796  0.00  0.00    +0.000 A 
ATOM     16  C   UNL     1       0.457   6.996  -1.276  0.00  0.00    +0.000 A 
ENDBRANCH  10  11
ENDBRANCH   1  10
TORSDOF 2
ENDMDL
MODEL 8
REMARK VINA RESULT:    -5.322      1.350      2.290
REMARK INTER + INTRA:          -6.052
REMARK INTER:                  -5.929
REMARK INTRA:                  -0.123
REMARK UNBOUND:                -0.107
REMARK  Name = 1550473
REMARK  2 active torsions:
REMARK  status: ('A' for Active; 'I' for Inactive)
REMARK    1  A    between atoms: N_1  and  C_4
REMARK    2  A    between atoms: C_4  and  C_5
REMARK                            x       y       z     vdW  Elec       q    Type
REMARK                         _______ _______ _______ _____ _____    ______ ____
ROOT
ATOM      1  N   UNL     1      -2.546   8.659   1.809  0.00  0.00    -0.354 N 
ATOM      2  N   UNL     1      -4.413   8.727   3.178  0.00  0.00    -0.372 N 
ATOM      3  N   UNL     1      -3.010  10.541   3.127  0.00  0.00    -0.372 N 
ATOM      4  C   UNL     1      -3.309   9.311   2.697  0.00  0.00    +0.166 C 
ATOM      5  H   UNL     1      -2.811   7.717   1.546  0.00  0.00    +0.163 HD
ATOM      6  H   UNL     1      -5.011   9.195   3.846  0.00  0.00    +0.159 HD
ATOM      7  H   UNL     1      -4.701   7.803   2.878  0.00  0.00    +0.159 HD
ATOM      8  H   UNL     1      -2.187  11.035   2.807  0.00  0.00    +0.159 HD
ATOM      9  H   UNL     1      -3.589  11.022   3.804  0.00  0.00    +0.159 HD
ENDROOT
BRANCH   1  10
ATOM     10  C   UNL     1      -1.353   9.228   1.184  0.00  0.00    +0.151 C 
BRANCH  10  11
ATOM     11  C   UNL     1      -0.771   8.221   0.230  0.00  0.00    -0.028 A 
ATOM     12  C   UNL     1       0.459   8.463  -0.398  0.00  0.00    +0.005 A 
ATOM     13  C   UNL     1      -1.443   7.020  -0.045  0.00  0.00    +0.005 A 
ATOM     14  C   UNL     1       1.014   7.515  -1.260  0.00  0.00    +0.000 A 
ATOM     15  C   UNL     1      -0.886   6.076  -0.907  0.00  0.00    +0.000 A 
ATOM     16  C   UNL     1       0.344   6.323  -1.513  0.00  0.00    +0.000 A 
ENDBRANCH  10  11
ENDBRANCH   1  10
TORSDOF 2
ENDMDL
MODEL 9
REMARK VINA RESULT:    -5.266      4.349      5.525
REMARK INTER + INTRA:          -5.989
REMARK INTER:                  -5.850
REMARK INTRA:                  -0.139
REMARK UNBOUND:                -0.107
REMARK  Name = 1550473
REMARK  2 active torsions:
REMARK  status: ('A' for Active; 'I' for Inactive)
REMARK    1  A    between atoms: N_1  and  C_4
REMARK    2  A    between atoms: C_4  and  C_5
REMARK                            x       y       z     vdW  Elec       q    Type
REMARK                         _______ _______ _______ _____ _____    ______ ____
ROOT
ATOM      1  N   UNL     1      -6.768   7.345  -0.395  0.00  0.00    -0.354 N 
ATOM      2  N   UNL     1      -8.679   7.969  -1.545  0.00  0.00    -0.372 N 
ATOM      3  N   UNL     1      -6.634   8.285  -2.538  0.00  0.00    -0.372 N 
ATOM      4  C   UNL     1      -7.346   7.863  -1.487  0.00  0.00    +0.166 C 
ATOM      5  H   UNL     1      -7.361   7.072   0.380  0.00  0.00    +0.163 HD
ATOM      6  H   UNL     1      -9.144   8.352  -2.357  0.00  0.00    +0.159 HD
ATOM      7  H   UNL     1      -9.272   7.653  -0.787  0.00  0.00    +0.159 HD
ATOM      8  H   UNL     1      -5.624   8.238  -2.554  0.00  0.00    +0.159 HD
ATOM      9  H   UNL     1      -7.081   8.682  -3.355  0.00  0.00    +0.159 HD
ENDROOT
BRANCH   1  10
ATOM     10  C   UNL     1      -5.328   7.137  -0.253  0.00  0.00    +0.151 C 
BRANCH  10  11
ATOM     11  C   UNL     1      -4.891   7.626   1.100  0.00  0.00    -0.028 A 
ATOM     12  C   UNL     1      -3.975   6.887   1.863  0.00  0.00    +0.005 A 
ATOM     13  C   UNL     1      -5.385   8.831   1.622  0.00  0.00    +0.005 A 
ATOM     14  C   UNL     1      -3.547   7.356   3.107  0.00  0.00    +0.000 A 
ATOM     15  C   UNL     1      -4.956   9.296   2.865  0.00  0.00    +0.000 A 
ATOM     16  C   UNL     1      -4.035   8.559   3.606  0.00  0.00    +0.000 A 
ENDBRANCH  10  11
ENDBRANCH   1  10
TORSDOF 2
ENDMDL
