MODEL 1
REMARK VINA RESULT:    -4.891      0.000      0.000
REMARK INTER + INTRA:          -5.609
REMARK INTER:                  -5.462
REMARK INTRA:                  -0.147
REMARK UNBOUND:                -0.147
REMARK  Name = 1550473
REMARK  2 active torsions:
REMARK  status: ('A' for Active; 'I' for Inactive)
REMARK    1  A    between atoms: N_1  and  C_4
REMARK    2  A    between atoms: C_4  and  C_5
REMARK                            x       y       z     vdW  Elec       q    Type
REMARK                         _______ _______ _______ _____ _____    ______ ____
ROOT
ATOM      1  N   UNL     1       0.117  11.793  -0.045  0.00  0.00    -0.354 N 
ATOM      2  N   UNL     1       0.235  11.620   2.262  0.00  0.00    -0.372 N 
ATOM      3  N   UNL     1       1.525  10.223   0.977  0.00  0.00    -0.372 N 
ATOM      4  C   UNL     1       0.627  11.211   1.049  0.00  0.00    +0.166 C 
ATOM      5  H   UNL     1      -0.583  12.516   0.077  0.00  0.00    +0.163 HD
ATOM      6  H   UNL     1       0.605  11.201   3.105  0.00  0.00    +0.159 HD
ATOM      7  H   UNL     1      -0.430  12.374   2.381  0.00  0.00    +0.159 HD
ATOM      8  H   UNL     1       1.857   9.864   0.092  0.00  0.00    +0.159 HD
ATOM      9  H   UNL     1       1.898   9.784   1.810  0.00  0.00    +0.159 HD
ENDROOT
BRANCH   1  10
ATOM     10  C   UNL     1       0.517  11.459  -1.411  0.00  0.00    +0.151 C 
BRANCH  10  11
ATOM     11  C   UNL     1      -0.706  11.086  -2.203  0.00  0.00    -0.028 A 
ATOM     12  C   UNL     1      -1.987  11.257  -1.658  0.00  0.00    +0.005 A 
ATOM     13  C   UNL     1      -0.590  10.568  -3.502  0.00  0.00    +0.005 A 
ATOM     14  C   UNL     1      -3.124  10.939  -2.405  0.00  0.00    +0.000 A 
ATOM     15  C   UNL     1      -1.728  10.251  -4.244  0.00  0.00    +0.000 A 
ATOM     16  C   UNL     1      -2.994  10.439  -3.696  0.00  0.00    +0.000 A 
ENDBRANCH  10  11
ENDBRANCH   1  10
TORSDOF 2
ENDMDL
MODEL 2
REMARK VINA RESULT:    -4.594     30.211     31.016
REMARK INTER + INTRA:          -5.278
REMARK INTER:                  -5.177
REMARK INTRA:                  -0.101
REMARK UNBOUND:                -0.147
REMARK  Name = 1550473
REMARK  2 active torsions:
REMARK  status: ('A' for Active; 'I' for Inactive)
REMARK    1  A    between atoms: N_1  and  C_4
REMARK    2  A    between atoms: C_4  and  C_5
REMARK                            x       y       z     vdW  Elec       q    Type
REMARK                         _______ _______ _______ _____ _____    ______ ____
ROOT
ATOM      1  N   UNL     1       6.699   6.953  28.136  0.00  0.00    -0.354 N 
ATOM      2  N   UNL     1       7.945   8.743  28.914  0.00  0.00    -0.372 N 
ATOM      3  N   UNL     1       8.891   7.312  27.391  0.00  0.00    -0.372 N 
ATOM      4  C   UNL     1       7.839   7.656  28.140  0.00  0.00    +0.166 C 
ATOM      5  H   UNL     1       5.948   7.249  28.749  0.00  0.00    +0.163 HD
ATOM      6  H   UNL     1       8.791   9.296  28.936  0.00  0.00    +0.159 HD
ATOM      7  H   UNL     1       7.177   9.063  29.492  0.00  0.00    +0.159 HD
ATOM      8  H   UNL     1       8.878   6.499  26.790  0.00  0.00    +0.159 HD
ATOM      9  H   UNL     1       9.751   7.846  27.408  0.00  0.00    +0.159 HD
ENDROOT
BRANCH   1  10
ATOM     10  C   UNL     1       6.462   5.785  27.289  0.00  0.00    +0.151 C 
BRANCH  10  11
ATOM     11  C   UNL     1       5.467   4.882  27.964  0.00  0.00    -0.028 A 
ATOM     12  C   UNL     1       4.163   5.328  28.226  0.00  0.00    +0.005 A 
ATOM     13  C   UNL     1       5.821   3.577  28.340  0.00  0.00    +0.005 A 
ATOM     14  C   UNL     1       3.230   4.479  28.827  0.00  0.00    +0.000 A 
ATOM     15  C   UNL     1       4.886   2.733  28.940  0.00  0.00    +0.000 A 
ATOM     16  C   UNL     1       3.591   3.183  29.181  0.00  0.00    +0.000 A 
ENDBRANCH  10  11
ENDBRANCH   1  10
TORSDOF 2
ENDMDL
MODEL 3
REMARK VINA RESULT:    -4.519     24.165     26.316
REMARK INTER + INTRA:          -5.194
REMARK INTER:                  -5.054
REMARK INTRA:                  -0.140
REMARK UNBOUND:                -0.147
REMARK  Name = 1550473
REMARK  2 active torsions:
REMARK  status: ('A' for Active; 'I' for Inactive)
REMARK    1  A    between atoms: N_1  and  C_4
REMARK    2  A    between atoms: C_4  and  C_5
REMARK                            x       y       z     vdW  Elec       q    Type
REMARK                         _______ _______ _______ _____ _____    ______ ____
ROOT
ATOM      1  N   UNL     1       7.778  -8.008  12.977  0.00  0.00    -0.354 N 
ATOM      2  N   UNL     1       5.589  -7.504  13.544  0.00  0.00    -0.372 N 
ATOM      3  N   UNL     1       6.684  -6.160  12.040  0.00  0.00    -0.372 N 
ATOM      4  C   UNL     1       6.699  -7.225  12.848  0.00  0.00    +0.166 C 
ATOM      5  H   UNL     1       7.735  -8.783  13.629  0.00  0.00    +0.163 HD
ATOM      6  H   UNL     1       4.758  -6.933  13.465  0.00  0.00    +0.159 HD
ATOM      7  H   UNL     1       5.534  -8.306  14.160  0.00  0.00    +0.159 HD
ATOM      8  H   UNL     1       7.490  -5.892  11.493  0.00  0.00    +0.159 HD
ATOM      9  H   UNL     1       5.865  -5.570  11.956  0.00  0.00    +0.159 HD
ENDROOT
BRANCH   1  10
ATOM     10  C   UNL     1       9.017  -7.823  12.225  0.00  0.00    +0.151 C 
BRANCH  10  11
ATOM     11  C   UNL     1      10.184  -7.921  13.168  0.00  0.00    -0.028 A 
ATOM     12  C   UNL     1      10.003  -8.384  14.479  0.00  0.00    +0.005 A 
ATOM     13  C   UNL     1      11.475  -7.557  12.755  0.00  0.00    +0.005 A 
ATOM     14  C   UNL     1      11.091  -8.504  15.347  0.00  0.00    +0.000 A 
ATOM     15  C   UNL     1      12.559  -7.677  13.624  0.00  0.00    +0.000 A 
ATOM     16  C   UNL     1      12.367  -8.153  14.919  0.00  0.00    +0.000 A 
ENDBRANCH  10  11
ENDBRANCH   1  10
TORSDOF 2
ENDMDL
MODEL 4
REMARK VINA RESULT:    -4.486      1.766      2.541
REMARK INTER + INTRA:          -5.158
REMARK INTER:                  -5.029
REMARK INTRA:                  -0.128
REMARK UNBOUND:                -0.147
REMARK  Name = 1550473
REMARK  2 active torsions:
REMARK  status: ('A' for Active; 'I' for Inactive)
REMARK    1  A    between atoms: N_1  and  C_4
REMARK    2  A    between atoms: C_4  and  C_5
REMARK                            x       y       z     vdW  Elec       q    Type
REMARK                         _______ _______ _______ _____ _____    ______ ____
ROOT
ATOM      1  N   UNL     1       1.521  12.950  -0.169  0.00  0.00    -0.354 N 
ATOM      2  N   UNL     1       2.414  14.095   1.635  0.00  0.00    -0.372 N 
ATOM      3  N   UNL     1       2.666  11.817   1.533  0.00  0.00    -0.372 N 
ATOM      4  C   UNL     1       2.195  12.944   0.989  0.00  0.00    +0.166 C 
ATOM      5  H   UNL     1       1.164  13.834  -0.514  0.00  0.00    +0.163 HD
ATOM      6  H   UNL     1       2.923  14.123   2.508  0.00  0.00    +0.159 HD
ATOM      7  H   UNL     1       2.096  14.983   1.265  0.00  0.00    +0.159 HD
ATOM      8  H   UNL     1       2.529  10.914   1.098  0.00  0.00    +0.159 HD
ATOM      9  H   UNL     1       3.167  11.822   2.413  0.00  0.00    +0.159 HD
ENDROOT
BRANCH   1  10
ATOM     10  C   UNL     1       1.275  11.758  -0.978  0.00  0.00    +0.151 C 
BRANCH  10  11
ATOM     11  C   UNL     1      -0.203  11.485  -1.016  0.00  0.00    -0.028 A 
ATOM     12  C   UNL     1      -0.856  11.269  -2.239  0.00  0.00    +0.005 A 
ATOM     13  C   UNL     1      -0.956  11.437   0.167  0.00  0.00    +0.005 A 
ATOM     14  C   UNL     1      -2.224  10.987  -2.272  0.00  0.00    +0.000 A 
ATOM     15  C   UNL     1      -2.321  11.155   0.129  0.00  0.00    +0.000 A 
ATOM     16  C   UNL     1      -2.954  10.928  -1.090  0.00  0.00    +0.000 A 
ENDBRANCH  10  11
ENDBRANCH   1  10
TORSDOF 2
ENDMDL
MODEL 5
REMARK VINA RESULT:    -4.386      1.927      2.837
REMARK INTER + INTRA:          -5.046
REMARK INTER:                  -4.898
REMARK INTRA:                  -0.147
REMARK UNBOUND:                -0.147
REMARK  Name = 1550473
REMARK  2 active torsions:
REMARK  status: ('A' for Active; 'I' for Inactive)
REMARK    1  A    between atoms: N_1  and  C_4
REMARK    2  A    between atoms: C_4  and  C_5
REMARK                            x       y       z     vdW  Elec       q    Type
REMARK                         _______ _______ _______ _____ _____    ______ ____
ROOT
ATOM      1  N   UNL     1       0.387  12.713   1.659  0.00  0.00    -0.354 N 
ATOM      2  N   UNL     1       1.082  14.835   2.275  0.00  0.00    -0.372 N 
ATOM      3  N   UNL     1      -0.934  14.059   3.051  0.00  0.00    -0.372 N 
ATOM      4  C   UNL     1       0.171  13.855   2.325  0.00  0.00    +0.166 C 
ATOM      5  H   UNL     1       1.230  12.633   1.102  0.00  0.00    +0.163 HD
ATOM      6  H   UNL     1       0.948  15.707   2.770  0.00  0.00    +0.159 HD
ATOM      7  H   UNL     1       1.945  14.734   1.755  0.00  0.00    +0.159 HD
ATOM      8  H   UNL     1      -1.662  13.361   3.125  0.00  0.00    +0.159 HD
ATOM      9  H   UNL     1      -1.091  14.929   3.544  0.00  0.00    +0.159 HD
ENDROOT
BRANCH   1  10
ATOM     10  C   UNL     1      -0.516  11.564   1.692  0.00  0.00    +0.151 C 
BRANCH  10  11
ATOM     11  C   UNL     1      -1.068  11.334   0.312  0.00  0.00    -0.028 A 
ATOM     12  C   UNL     1      -2.435  11.077   0.126  0.00  0.00    +0.005 A 
ATOM     13  C   UNL     1      -0.232  11.377  -0.814  0.00  0.00    +0.005 A 
ATOM     14  C   UNL     1      -2.954  10.893  -1.158  0.00  0.00    +0.000 A 
ATOM     15  C   UNL     1      -0.754  11.192  -2.094  0.00  0.00    +0.000 A 
ATOM     16  C   UNL     1      -2.115  10.952  -2.266  0.00  0.00    +0.000 A 
ENDBRANCH  10  11
ENDBRANCH   1  10
TORSDOF 2
ENDMDL
MODEL 6
REMARK VINA RESULT:    -4.354      9.163     10.133
REMARK INTER + INTRA:          -5.011
REMARK INTER:                  -4.876
REMARK INTRA:                  -0.135
REMARK UNBOUND:                -0.147
REMARK  Name = 1550473
REMARK  2 active torsions:
REMARK  status: ('A' for Active; 'I' for Inactive)
REMARK    1  A    between atoms: N_1  and  C_4
REMARK    2  A    between atoms: C_4  and  C_5
REMARK                            x       y       z     vdW  Elec       q    Type
REMARK                         _______ _______ _______ _____ _____    ______ ____
ROOT
ATOM      1  N   UNL     1      -9.850   6.828  -1.287  0.00  0.00    -0.354 N 
ATOM      2  N   UNL     1      -9.783   8.697   0.079  0.00  0.00    -0.372 N 
ATOM      3  N   UNL     1      -9.766   6.616   1.045  0.00  0.00    -0.372 N 
ATOM      4  C   UNL     1      -9.800   7.366  -0.061  0.00  0.00    +0.166 C 
ATOM      5  H   UNL     1      -9.905   7.452  -2.084  0.00  0.00    +0.163 HD
ATOM      6  H   UNL     1      -9.742   9.132   0.991  0.00  0.00    +0.159 HD
ATOM      7  H   UNL     1      -9.791   9.318  -0.721  0.00  0.00    +0.159 HD
ATOM      8  H   UNL     1      -9.783   5.606   1.008  0.00  0.00    +0.159 HD
ATOM      9  H   UNL     1      -9.737   7.033   1.968  0.00  0.00    +0.159 HD
ENDROOT
BRANCH   1  10
ATOM     10  C   UNL     1      -9.819   5.391  -1.551  0.00  0.00    +0.151 C 
BRANCH  10  11
ATOM     11  C   UNL     1      -9.006   5.137  -2.790  0.00  0.00    -0.028 A 
ATOM     12  C   UNL     1      -9.179   3.955  -3.525  0.00  0.00    +0.005 A 
ATOM     13  C   UNL     1      -8.064   6.076  -3.237  0.00  0.00    +0.005 A 
ATOM     14  C   UNL     1      -8.446   3.732  -4.693  0.00  0.00    +0.000 A 
ATOM     15  C   UNL     1      -7.333   5.849  -4.403  0.00  0.00    +0.000 A 
ATOM     16  C   UNL     1      -7.526   4.678  -5.132  0.00  0.00    +0.000 A 
ENDBRANCH  10  11
ENDBRANCH   1  10
TORSDOF 2
ENDMDL
MODEL 7
REMARK VINA RESULT:    -4.324     29.281     30.214
REMARK INTER + INTRA:          -4.977
REMARK INTER:                  -4.804
REMARK INTRA:                  -0.173
REMARK UNBOUND:                -0.147
REMARK  Name = 1550473
REMARK  2 active torsions:
REMARK  status: ('A' for Active; 'I' for Inactive)
REMARK    1  A    between atoms: N_1  and  C_4
REMARK    2  A    between atoms: C_4  and  C_5
REMARK                            x       y       z     vdW  Elec       q    Type
REMARK                         _______ _______ _______ _____ _____    ______ ____
ROOT
ATOM      1  N   UNL     1      14.725   9.196  24.326  0.00  0.00    -0.354 N 
ATOM      2  N   UNL     1      14.647  11.507  24.184  0.00  0.00    -0.372 N 
ATOM      3  N   UNL     1      14.800  10.527  26.253  0.00  0.00    -0.372 N 
ATOM      4  C   UNL     1      14.724  10.394  24.925  0.00  0.00    +0.166 C 
ATOM      5  H   UNL     1      14.635   9.162  23.317  0.00  0.00    +0.163 HD
ATOM      6  H   UNL     1      14.648  12.425  24.608  0.00  0.00    +0.159 HD
ATOM      7  H   UNL     1      14.603  11.471  23.173  0.00  0.00    +0.159 HD
ATOM      8  H   UNL     1      14.854   9.726  26.869  0.00  0.00    +0.159 HD
ATOM      9  H   UNL     1      14.790  11.437  26.697  0.00  0.00    +0.159 HD
ENDROOT
BRANCH   1  10
ATOM     10  C   UNL     1      14.859   7.926  25.037  0.00  0.00    +0.151 C 
BRANCH  10  11
ATOM     11  C   UNL     1      13.531   7.222  25.040  0.00  0.00    -0.028 A 
ATOM     12  C   UNL     1      13.245   6.237  24.083  0.00  0.00    +0.005 A 
ATOM     13  C   UNL     1      12.555   7.530  26.001  0.00  0.00    +0.005 A 
ATOM     14  C   UNL     1      12.022   5.561  24.104  0.00  0.00    +0.000 A 
ATOM     15  C   UNL     1      11.336   6.854  26.018  0.00  0.00    +0.000 A 
ATOM     16  C   UNL     1      11.071   5.868  25.071  0.00  0.00    +0.000 A 
ENDBRANCH  10  11
ENDBRANCH   1  10
TORSDOF 2
ENDMDL
MODEL 8
REMARK VINA RESULT:    -4.309     18.306     20.892
REMARK INTER + INTRA:          -4.959
REMARK INTER:                  -4.812
REMARK INTRA:                  -0.148
REMARK UNBOUND:                -0.147
REMARK  Name = 1550473
REMARK  2 active torsions:
REMARK  status: ('A' for Active; 'I' for Inactive)
REMARK    1  A    between atoms: N_1  and  C_4
REMARK    2  A    between atoms: C_4  and  C_5
REMARK                            x       y       z     vdW  Elec       q    Type
REMARK                         _______ _______ _______ _____ _____    ______ ____
ROOT
ATOM      1  N   UNL     1       8.242  19.790  12.566  0.00  0.00    -0.354 N 
ATOM      2  N   UNL     1       8.404  17.602  11.823  0.00  0.00    -0.372 N 
ATOM      3  N   UNL     1       8.001  17.991  14.048  0.00  0.00    -0.372 N 
ATOM      4  C   UNL     1       8.214  18.475  12.820  0.00  0.00    +0.166 C 
ATOM      5  H   UNL     1       8.439  20.093  11.619  0.00  0.00    +0.163 HD
ATOM      6  H   UNL     1       8.385  16.604  11.984  0.00  0.00    +0.159 HD
ATOM      7  H   UNL     1       8.554  17.907  10.869  0.00  0.00    +0.159 HD
ATOM      8  H   UNL     1       7.857  18.597  14.845  0.00  0.00    +0.159 HD
ATOM      9  H   UNL     1       7.990  16.995  14.231  0.00  0.00    +0.159 HD
ENDROOT
BRANCH   1  10
ATOM     10  C   UNL     1       7.995  20.822  13.571  0.00  0.00    +0.151 C 
BRANCH  10  11
ATOM     11  C   UNL     1       9.208  21.704  13.679  0.00  0.00    -0.028 A 
ATOM     12  C   UNL     1       9.461  22.426  14.854  0.00  0.00    +0.005 A 
ATOM     13  C   UNL     1      10.112  21.817  12.611  0.00  0.00    +0.005 A 
ATOM     14  C   UNL     1      10.604  23.221  14.966  0.00  0.00    +0.000 A 
ATOM     15  C   UNL     1      11.251  22.613  12.726  0.00  0.00    +0.000 A 
ATOM     16  C   UNL     1      11.498  23.313  13.904  0.00  0.00    +0.000 A 
ENDBRANCH  10  11
ENDBRANCH   1  10
TORSDOF 2
ENDMDL
MODEL 9
REMARK VINA RESULT:    -4.087     24.429     24.919
REMARK INTER + INTRA:          -4.711
REMARK INTER:                  -4.616
REMARK INTRA:                  -0.095
REMARK UNBOUND:                -0.147
REMARK  Name = 1550473
REMARK  2 active torsions:
REMARK  status: ('A' for Active; 'I' for Inactive)
REMARK    1  A    between atoms: N_1  and  C_4
REMARK    2  A    between atoms: C_4  and  C_5
REMARK                            x       y       z     vdW  Elec       q    Type
REMARK                         _______ _______ _______ _____ _____    ______ ____
ROOT
ATOM      1  N   UNL     1      18.128  17.797  14.567  0.00  0.00    -0.354 N 
ATOM      2  N   UNL     1      18.700  17.549  16.798  0.00  0.00    -0.372 N 
ATOM      3  N   UNL     1      16.959  16.314  15.954  0.00  0.00    -0.372 N 
ATOM      4  C   UNL     1      17.923  17.220  15.758  0.00  0.00    +0.166 C 
ATOM      5  H   UNL     1      18.856  18.499  14.491  0.00  0.00    +0.163 HD
ATOM      6  H   UNL     1      18.571  17.127  17.708  0.00  0.00    +0.159 HD
ATOM      7  H   UNL     1      19.456  18.216  16.707  0.00  0.00    +0.159 HD
ATOM      8  H   UNL     1      16.335  16.027  15.212  0.00  0.00    +0.159 HD
ATOM      9  H   UNL     1      16.807  15.890  16.861  0.00  0.00    +0.159 HD
ENDROOT
BRANCH   1  10
ATOM     10  C   UNL     1      17.373  17.470  13.359  0.00  0.00    +0.151 C 
BRANCH  10  11
ATOM     11  C   UNL     1      17.861  18.331  12.226  0.00  0.00    -0.028 A 
ATOM     12  C   UNL     1      17.574  19.703  12.200  0.00  0.00    +0.005 A 
ATOM     13  C   UNL     1      18.617  17.781  11.179  0.00  0.00    +0.005 A 
ATOM     14  C   UNL     1      18.053  20.509  11.164  0.00  0.00    +0.000 A 
ATOM     15  C   UNL     1      19.092  18.588  10.146  0.00  0.00    +0.000 A 
ATOM     16  C   UNL     1      18.812  19.952  10.140  0.00  0.00    +0.000 A 
ENDBRANCH  10  11
ENDBRANCH   1  10
TORSDOF 2
ENDMDL
