MODEL 1
REMARK VINA RESULT:    -5.908      0.000      0.000
REMARK INTER + INTRA:          -6.739
REMARK INTER:                  -6.598
REMARK INTRA:                  -0.141
REMARK UNBOUND:                -0.141
REMARK  Name = 1550473
REMARK  2 active torsions:
REMARK  status: ('A' for Active; 'I' for Inactive)
REMARK    1  A    between atoms: N_1  and  C_4
REMARK    2  A    between atoms: C_4  and  C_5
REMARK                            x       y       z     vdW  Elec       q    Type
REMARK                         _______ _______ _______ _____ _____    ______ ____
ROOT
ATOM      1  N   UNL     1     -10.905  -0.860  -6.453  0.00  0.00    -0.354 N 
ATOM      2  N   UNL     1     -13.218  -0.740  -6.505  0.00  0.00    -0.372 N 
ATOM      3  N   UNL     1     -12.048   0.878  -5.374  0.00  0.00    -0.372 N 
ATOM      4  C   UNL     1     -12.041  -0.239  -6.109  0.00  0.00    +0.166 C 
ATOM      5  H   UNL     1     -10.969  -1.719  -6.986  0.00  0.00    +0.163 HD
ATOM      6  H   UNL     1     -14.091  -0.291  -6.263  0.00  0.00    +0.159 HD
ATOM      7  H   UNL     1     -13.276  -1.574  -7.076  0.00  0.00    +0.159 HD
ATOM      8  H   UNL     1     -11.194   1.304  -5.038  0.00  0.00    +0.159 HD
ATOM      9  H   UNL     1     -12.913   1.335  -5.111  0.00  0.00    +0.159 HD
ENDROOT
BRANCH   1  10
ATOM     10  C   UNL     1      -9.570  -0.367  -6.118  0.00  0.00    +0.151 C 
BRANCH  10  11
ATOM     11  C   UNL     1      -8.781  -1.480  -5.486  0.00  0.00    -0.028 A 
ATOM     12  C   UNL     1      -7.398  -1.349  -5.289  0.00  0.00    +0.005 A 
ATOM     13  C   UNL     1      -9.410  -2.665  -5.076  0.00  0.00    +0.005 A 
ATOM     14  C   UNL     1      -6.669  -2.370  -4.674  0.00  0.00    +0.000 A 
ATOM     15  C   UNL     1      -8.679  -3.682  -4.463  0.00  0.00    +0.000 A 
ATOM     16  C   UNL     1      -7.309  -3.533  -4.260  0.00  0.00    +0.000 A 
ENDBRANCH  10  11
ENDBRANCH   1  10
TORSDOF 2
ENDMDL
MODEL 2
REMARK VINA RESULT:    -5.887      0.399      1.505
REMARK INTER + INTRA:          -6.716
REMARK INTER:                  -6.577
REMARK INTRA:                  -0.139
REMARK UNBOUND:                -0.141
REMARK  Name = 1550473
REMARK  2 active torsions:
REMARK  status: ('A' for Active; 'I' for Inactive)
REMARK    1  A    between atoms: N_1  and  C_4
REMARK    2  A    between atoms: C_4  and  C_5
REMARK                            x       y       z     vdW  Elec       q    Type
REMARK                         _______ _______ _______ _____ _____    ______ ____
ROOT
ATOM      1  N   UNL     1     -11.263  -0.847  -6.441  0.00  0.00    -0.354 N 
ATOM      2  N   UNL     1     -13.579  -0.842  -6.494  0.00  0.00    -0.372 N 
ATOM      3  N   UNL     1     -12.484   1.004  -5.682  0.00  0.00    -0.372 N 
ATOM      4  C   UNL     1     -12.426  -0.226  -6.204  0.00  0.00    +0.166 C 
ATOM      5  H   UNL     1     -11.288  -1.790  -6.810  0.00  0.00    +0.163 HD
ATOM      6  H   UNL     1     -14.472  -0.397  -6.330  0.00  0.00    +0.159 HD
ATOM      7  H   UNL     1     -13.599  -1.767  -6.905  0.00  0.00    +0.159 HD
ATOM      8  H   UNL     1     -11.650   1.521  -5.436  0.00  0.00    +0.159 HD
ATOM      9  H   UNL     1     -13.368   1.462  -5.499  0.00  0.00    +0.159 HD
ENDROOT
BRANCH   1  10
ATOM     10  C   UNL     1      -9.952  -0.243  -6.211  0.00  0.00    +0.151 C 
BRANCH  10  11
ATOM     11  C   UNL     1      -9.040  -1.268  -5.597  0.00  0.00    -0.028 A 
ATOM     12  C   UNL     1      -9.546  -2.502  -5.163  0.00  0.00    +0.005 A 
ATOM     13  C   UNL     1      -7.667  -1.014  -5.450  0.00  0.00    +0.005 A 
ATOM     14  C   UNL     1      -8.694  -3.467  -4.619  0.00  0.00    +0.000 A 
ATOM     15  C   UNL     1      -6.820  -1.979  -4.906  0.00  0.00    +0.000 A 
ATOM     16  C   UNL     1      -7.333  -3.206  -4.493  0.00  0.00    +0.000 A 
ENDBRANCH  10  11
ENDBRANCH   1  10
TORSDOF 2
ENDMDL
MODEL 3
REMARK VINA RESULT:    -5.335      4.228      6.003
REMARK INTER + INTRA:          -6.100
REMARK INTER:                  -5.972
REMARK INTRA:                  -0.128
REMARK UNBOUND:                -0.141
REMARK  Name = 1550473
REMARK  2 active torsions:
REMARK  status: ('A' for Active; 'I' for Inactive)
REMARK    1  A    between atoms: N_1  and  C_4
REMARK    2  A    between atoms: C_4  and  C_5
REMARK                            x       y       z     vdW  Elec       q    Type
REMARK                         _______ _______ _______ _____ _____    ______ ____
ROOT
ATOM      1  N   UNL     1      -5.579  -3.247  -3.611  0.00  0.00    -0.354 N 
ATOM      2  N   UNL     1      -3.738  -3.068  -2.217  0.00  0.00    -0.372 N 
ATOM      3  N   UNL     1      -5.323  -4.664  -1.762  0.00  0.00    -0.372 N 
ATOM      4  C   UNL     1      -4.893  -3.663  -2.538  0.00  0.00    +0.166 C 
ATOM      5  H   UNL     1      -5.215  -2.463  -4.141  0.00  0.00    +0.163 HD
ATOM      6  H   UNL     1      -3.197  -3.362  -1.414  0.00  0.00    +0.159 HD
ATOM      7  H   UNL     1      -3.354  -2.315  -2.774  0.00  0.00    +0.159 HD
ATOM      8  H   UNL     1      -6.190  -5.151  -1.946  0.00  0.00    +0.159 HD
ATOM      9  H   UNL     1      -4.801  -4.965  -0.948  0.00  0.00    +0.159 HD
ENDROOT
BRANCH   1  10
ATOM     10  C   UNL     1      -6.820  -3.863  -4.078  0.00  0.00    +0.151 C 
BRANCH  10  11
ATOM     11  C   UNL     1      -7.672  -2.813  -4.736  0.00  0.00    -0.028 A 
ATOM     12  C   UNL     1      -9.032  -3.053  -4.983  0.00  0.00    +0.005 A 
ATOM     13  C   UNL     1      -7.127  -1.575  -5.108  0.00  0.00    +0.005 A 
ATOM     14  C   UNL     1      -9.831  -2.067  -5.567  0.00  0.00    +0.000 A 
ATOM     15  C   UNL     1      -7.928  -0.593  -5.692  0.00  0.00    +0.000 A 
ATOM     16  C   UNL     1      -9.280  -0.839  -5.919  0.00  0.00    +0.000 A 
ENDBRANCH  10  11
ENDBRANCH   1  10
TORSDOF 2
ENDMDL
MODEL 4
REMARK VINA RESULT:    -5.160      2.575      4.074
REMARK INTER + INTRA:          -5.904
REMARK INTER:                  -5.773
REMARK INTRA:                  -0.132
REMARK UNBOUND:                -0.141
REMARK  Name = 1550473
REMARK  2 active torsions:
REMARK  status: ('A' for Active; 'I' for Inactive)
REMARK    1  A    between atoms: N_1  and  C_4
REMARK    2  A    between atoms: C_4  and  C_5
REMARK                            x       y       z     vdW  Elec       q    Type
REMARK                         _______ _______ _______ _____ _____    ______ ____
ROOT
ATOM      1  N   UNL     1      -8.404  -2.847  -5.606  0.00  0.00    -0.354 N 
ATOM      2  N   UNL     1     -10.259  -1.819  -6.537  0.00  0.00    -0.372 N 
ATOM      3  N   UNL     1      -9.228  -3.508  -7.698  0.00  0.00    -0.372 N 
ATOM      4  C   UNL     1      -9.284  -2.733  -6.610  0.00  0.00    +0.166 C 
ATOM      5  H   UNL     1      -8.483  -2.209  -4.822  0.00  0.00    +0.163 HD
ATOM      6  H   UNL     1     -10.939  -1.712  -7.278  0.00  0.00    +0.159 HD
ATOM      7  H   UNL     1     -10.363  -1.214  -5.732  0.00  0.00    +0.159 HD
ATOM      8  H   UNL     1      -8.513  -4.213  -7.817  0.00  0.00    +0.159 HD
ATOM      9  H   UNL     1      -9.892  -3.408  -8.455  0.00  0.00    +0.159 HD
ENDROOT
BRANCH   1  10
ATOM     10  C   UNL     1      -7.338  -3.846  -5.562  0.00  0.00    +0.151 C 
BRANCH  10  11
ATOM     11  C   UNL     1      -7.709  -4.917  -4.573  0.00  0.00    -0.028 A 
ATOM     12  C   UNL     1      -8.732  -4.700  -3.639  0.00  0.00    +0.005 A 
ATOM     13  C   UNL     1      -7.044  -6.153  -4.569  0.00  0.00    +0.005 A 
ATOM     14  C   UNL     1      -9.096  -5.705  -2.740  0.00  0.00    +0.000 A 
ATOM     15  C   UNL     1      -7.410  -7.154  -3.669  0.00  0.00    +0.000 A 
ATOM     16  C   UNL     1      -8.438  -6.930  -2.756  0.00  0.00    +0.000 A 
ENDBRANCH  10  11
ENDBRANCH   1  10
TORSDOF 2
ENDMDL
MODEL 5
REMARK VINA RESULT:    -5.022      4.717      6.253
REMARK INTER + INTRA:          -5.750
REMARK INTER:                  -5.625
REMARK INTRA:                  -0.124
REMARK UNBOUND:                -0.141
REMARK  Name = 1550473
REMARK  2 active torsions:
REMARK  status: ('A' for Active; 'I' for Inactive)
REMARK    1  A    between atoms: N_1  and  C_4
REMARK    2  A    between atoms: C_4  and  C_5
REMARK                            x       y       z     vdW  Elec       q    Type
REMARK                         _______ _______ _______ _____ _____    ______ ____
ROOT
ATOM      1  N   UNL     1      -4.536  -1.587  -2.967  0.00  0.00    -0.354 N 
ATOM      2  N   UNL     1      -3.554  -1.316  -0.887  0.00  0.00    -0.372 N 
ATOM      3  N   UNL     1      -3.119  -3.228  -2.078  0.00  0.00    -0.372 N 
ATOM      4  C   UNL     1      -3.742  -2.048  -1.992  0.00  0.00    +0.166 C 
ATOM      5  H   UNL     1      -5.003  -0.698  -2.828  0.00  0.00    +0.163 HD
ATOM      6  H   UNL     1      -2.958  -1.636  -0.136  0.00  0.00    +0.159 HD
ATOM      7  H   UNL     1      -3.986  -0.407  -0.770  0.00  0.00    +0.159 HD
ATOM      8  H   UNL     1      -3.224  -3.831  -2.883  0.00  0.00    +0.159 HD
ATOM      9  H   UNL     1      -2.528  -3.571  -1.331  0.00  0.00    +0.159 HD
ENDROOT
BRANCH   1  10
ATOM     10  C   UNL     1      -4.764  -2.282  -4.233  0.00  0.00    +0.151 C 
BRANCH  10  11
ATOM     11  C   UNL     1      -6.243  -2.361  -4.491  0.00  0.00    -0.028 A 
ATOM     12  C   UNL     1      -6.917  -1.296  -5.106  0.00  0.00    +0.005 A 
ATOM     13  C   UNL     1      -6.976  -3.501  -4.127  0.00  0.00    +0.005 A 
ATOM     14  C   UNL     1      -8.285  -1.381  -5.372  0.00  0.00    +0.000 A 
ATOM     15  C   UNL     1      -8.343  -3.582  -4.394  0.00  0.00    +0.000 A 
ATOM     16  C   UNL     1      -8.996  -2.523  -5.019  0.00  0.00    +0.000 A 
ENDBRANCH  10  11
ENDBRANCH   1  10
TORSDOF 2
ENDMDL
MODEL 6
REMARK VINA RESULT:    -5.012      2.656      4.994
REMARK INTER + INTRA:          -5.739
REMARK INTER:                  -5.587
REMARK INTRA:                  -0.152
REMARK UNBOUND:                -0.141
REMARK  Name = 1550473
REMARK  2 active torsions:
REMARK  status: ('A' for Active; 'I' for Inactive)
REMARK    1  A    between atoms: N_1  and  C_4
REMARK    2  A    between atoms: C_4  and  C_5
REMARK                            x       y       z     vdW  Elec       q    Type
REMARK                         _______ _______ _______ _____ _____    ______ ____
ROOT
ATOM      1  N   UNL     1      -9.694  -3.084  -6.412  0.00  0.00    -0.354 N 
ATOM      2  N   UNL     1      -9.032  -4.629  -8.006  0.00  0.00    -0.372 N 
ATOM      3  N   UNL     1      -7.633  -2.879  -7.510  0.00  0.00    -0.372 N 
ATOM      4  C   UNL     1      -8.788  -3.519  -7.299  0.00  0.00    +0.166 C 
ATOM      5  H   UNL     1     -10.563  -3.597  -6.321  0.00  0.00    +0.163 HD
ATOM      6  H   UNL     1      -8.367  -4.983  -8.680  0.00  0.00    +0.159 HD
ATOM      7  H   UNL     1      -9.882  -5.165  -7.879  0.00  0.00    +0.159 HD
ATOM      8  H   UNL     1      -7.392  -2.032  -7.013  0.00  0.00    +0.159 HD
ATOM      9  H   UNL     1      -6.959  -3.212  -8.189  0.00  0.00    +0.159 HD
ENDROOT
BRANCH   1  10
ATOM     10  C   UNL     1      -9.502  -1.916  -5.554  0.00  0.00    +0.151 C 
BRANCH  10  11
ATOM     11  C   UNL     1     -10.471  -0.842  -5.962  0.00  0.00    -0.028 A 
ATOM     12  C   UNL     1     -11.843  -1.120  -6.059  0.00  0.00    +0.005 A 
ATOM     13  C   UNL     1     -10.026   0.458  -6.248  0.00  0.00    +0.005 A 
ATOM     14  C   UNL     1     -12.747  -0.114  -6.410  0.00  0.00    +0.000 A 
ATOM     15  C   UNL     1     -10.932   1.459  -6.599  0.00  0.00    +0.000 A 
ATOM     16  C   UNL     1     -12.293   1.173  -6.677  0.00  0.00    +0.000 A 
ENDBRANCH  10  11
ENDBRANCH   1  10
TORSDOF 2
ENDMDL
MODEL 7
REMARK VINA RESULT:    -5.007     20.657     21.807
REMARK INTER + INTRA:          -5.734
REMARK INTER:                  -5.606
REMARK INTRA:                  -0.128
REMARK UNBOUND:                -0.141
REMARK  Name = 1550473
REMARK  2 active torsions:
REMARK  status: ('A' for Active; 'I' for Inactive)
REMARK    1  A    between atoms: N_1  and  C_4
REMARK    2  A    between atoms: C_4  and  C_5
REMARK                            x       y       z     vdW  Elec       q    Type
REMARK                         _______ _______ _______ _____ _____    ______ ____
ROOT
ATOM      1  N   UNL     1      -2.735  -5.792  14.309  0.00  0.00    -0.354 N 
ATOM      2  N   UNL     1      -0.657  -4.872  13.863  0.00  0.00    -0.372 N 
ATOM      3  N   UNL     1      -2.278  -4.788  12.241  0.00  0.00    -0.372 N 
ATOM      4  C   UNL     1      -1.905  -5.156  13.471  0.00  0.00    +0.166 C 
ATOM      5  H   UNL     1      -2.382  -6.071  15.217  0.00  0.00    +0.163 HD
ATOM      6  H   UNL     1      -0.009  -4.390  13.254  0.00  0.00    +0.159 HD
ATOM      7  H   UNL     1      -0.321  -5.111  14.788  0.00  0.00    +0.159 HD
ATOM      8  H   UNL     1      -3.205  -4.978  11.883  0.00  0.00    +0.159 HD
ATOM      9  H   UNL     1      -1.640  -4.315  11.613  0.00  0.00    +0.159 HD
ENDROOT
BRANCH   1  10
ATOM     10  C   UNL     1      -4.130  -6.100  14.000  0.00  0.00    +0.151 C 
BRANCH  10  11
ATOM     11  C   UNL     1      -5.013  -5.500  15.059  0.00  0.00    -0.028 A 
ATOM     12  C   UNL     1      -4.662  -4.290  15.676  0.00  0.00    +0.005 A 
ATOM     13  C   UNL     1      -6.203  -6.133  15.447  0.00  0.00    +0.005 A 
ATOM     14  C   UNL     1      -5.497  -3.716  16.638  0.00  0.00    +0.000 A 
ATOM     15  C   UNL     1      -7.033  -5.558  16.409  0.00  0.00    +0.000 A 
ATOM     16  C   UNL     1      -6.681  -4.348  17.003  0.00  0.00    +0.000 A 
ENDBRANCH  10  11
ENDBRANCH   1  10
TORSDOF 2
ENDMDL
MODEL 8
REMARK VINA RESULT:    -4.958      1.456      2.869
REMARK INTER + INTRA:          -5.678
REMARK INTER:                  -5.561
REMARK INTRA:                  -0.117
REMARK UNBOUND:                -0.141
REMARK  Name = 1550473
REMARK  2 active torsions:
REMARK  status: ('A' for Active; 'I' for Inactive)
REMARK    1  A    between atoms: N_1  and  C_4
REMARK    2  A    between atoms: C_4  and  C_5
REMARK                            x       y       z     vdW  Elec       q    Type
REMARK                         _______ _______ _______ _____ _____    ______ ____
ROOT
ATOM      1  N   UNL     1      -9.078  -1.554  -5.531  0.00  0.00    -0.354 N 
ATOM      2  N   UNL     1      -9.445   0.664  -6.085  0.00  0.00    -0.372 N 
ATOM      3  N   UNL     1     -11.152  -0.845  -6.358  0.00  0.00    -0.372 N 
ATOM      4  C   UNL     1      -9.892  -0.594  -5.989  0.00  0.00    +0.166 C 
ATOM      5  H   UNL     1      -8.124  -1.305  -5.296  0.00  0.00    +0.163 HD
ATOM      6  H   UNL     1     -10.038   1.410  -6.424  0.00  0.00    +0.159 HD
ATOM      7  H   UNL     1      -8.506   0.919  -5.806  0.00  0.00    +0.159 HD
ATOM      8  H   UNL     1     -11.548  -1.775  -6.315  0.00  0.00    +0.159 HD
ATOM      9  H   UNL     1     -11.757  -0.114  -6.711  0.00  0.00    +0.159 HD
ENDROOT
BRANCH   1  10
ATOM     10  C   UNL     1      -9.483  -2.946  -5.336  0.00  0.00    +0.151 C 
BRANCH  10  11
ATOM     11  C   UNL     1      -8.450  -3.645  -4.496  0.00  0.00    -0.028 A 
ATOM     12  C   UNL     1      -8.801  -4.754  -3.713  0.00  0.00    +0.005 A 
ATOM     13  C   UNL     1      -7.117  -3.207  -4.484  0.00  0.00    +0.005 A 
ATOM     14  C   UNL     1      -7.836  -5.422  -2.955  0.00  0.00    +0.000 A 
ATOM     15  C   UNL     1      -6.156  -3.876  -3.726  0.00  0.00    +0.000 A 
ATOM     16  C   UNL     1      -6.516  -4.985  -2.964  0.00  0.00    +0.000 A 
ENDBRANCH  10  11
ENDBRANCH   1  10
TORSDOF 2
ENDMDL
MODEL 9
REMARK VINA RESULT:    -4.915     19.327     20.950
REMARK INTER + INTRA:          -5.630
REMARK INTER:                  -5.507
REMARK INTRA:                  -0.123
REMARK UNBOUND:                -0.141
REMARK  Name = 1550473
REMARK  2 active torsions:
REMARK  status: ('A' for Active; 'I' for Inactive)
REMARK    1  A    between atoms: N_1  and  C_4
REMARK    2  A    between atoms: C_4  and  C_5
REMARK                            x       y       z     vdW  Elec       q    Type
REMARK                         _______ _______ _______ _____ _____    ______ ____
ROOT
ATOM      1  N   UNL     1       5.115 -13.565 -10.886  0.00  0.00    -0.354 N 
ATOM      2  N   UNL     1       4.105 -12.501 -12.678  0.00  0.00    -0.372 N 
ATOM      3  N   UNL     1       2.952 -12.680 -10.702  0.00  0.00    -0.372 N 
ATOM      4  C   UNL     1       4.062 -12.922 -11.408  0.00  0.00    +0.166 C 
ATOM      5  H   UNL     1       5.914 -13.744 -11.483  0.00  0.00    +0.163 HD
ATOM      6  H   UNL     1       3.327 -12.010 -13.099  0.00  0.00    +0.159 HD
ATOM      7  H   UNL     1       4.923 -12.641 -13.258  0.00  0.00    +0.159 HD
ATOM      8  H   UNL     1       2.854 -12.977  -9.740  0.00  0.00    +0.159 HD
ATOM      9  H   UNL     1       2.159 -12.200 -11.109  0.00  0.00    +0.159 HD
ENDROOT
BRANCH   1  10
ATOM     10  C   UNL     1       5.190 -14.018  -9.498  0.00  0.00    +0.151 C 
BRANCH  10  11
ATOM     11  C   UNL     1       6.459 -14.800  -9.304  0.00  0.00    -0.028 A 
ATOM     12  C   UNL     1       7.248 -15.161 -10.407  0.00  0.00    +0.005 A 
ATOM     13  C   UNL     1       6.882 -15.178  -8.021  0.00  0.00    +0.005 A 
ATOM     14  C   UNL     1       8.443 -15.862 -10.225  0.00  0.00    +0.000 A 
ATOM     15  C   UNL     1       8.075 -15.879  -7.844  0.00  0.00    +0.000 A 
ATOM     16  C   UNL     1       8.856 -16.218  -8.946  0.00  0.00    +0.000 A 
ENDBRANCH  10  11
ENDBRANCH   1  10
TORSDOF 2
ENDMDL
