MODEL 1
REMARK VINA RESULT:    -5.307      0.000      0.000
REMARK INTER + INTRA:          -6.040
REMARK INTER:                  -5.927
REMARK INTRA:                  -0.113
REMARK UNBOUND:                -0.113
REMARK  Name = 1550473
REMARK  2 active torsions:
REMARK  status: ('A' for Active; 'I' for Inactive)
REMARK    1  A    between atoms: N_1  and  C_4
REMARK    2  A    between atoms: C_4  and  C_5
REMARK                            x       y       z     vdW  Elec       q    Type
REMARK                         _______ _______ _______ _____ _____    ______ ____
ROOT
ATOM      1  N   UNL     1       4.627  -8.940   9.718  0.00  0.00    -0.354 N 
ATOM      2  N   UNL     1       6.807  -9.036  10.496  0.00  0.00    -0.372 N 
ATOM      3  N   UNL     1       5.982  -7.028   9.753  0.00  0.00    -0.372 N 
ATOM      4  C   UNL     1       5.791  -8.332   9.983  0.00  0.00    +0.166 C 
ATOM      5  H   UNL     1       4.556  -9.937   9.887  0.00  0.00    +0.163 HD
ATOM      6  H   UNL     1       7.695  -8.604  10.709  0.00  0.00    +0.159 HD
ATOM      7  H   UNL     1       6.718 -10.023  10.706  0.00  0.00    +0.159 HD
ATOM      8  H   UNL     1       5.257  -6.442   9.362  0.00  0.00    +0.159 HD
ATOM      9  H   UNL     1       6.868  -6.579   9.949  0.00  0.00    +0.159 HD
ENDROOT
BRANCH   1  10
ATOM     10  C   UNL     1       3.442  -8.252   9.209  0.00  0.00    +0.151 C 
BRANCH  10  11
ATOM     11  C   UNL     1       2.294  -9.223   9.159  0.00  0.00    -0.028 A 
ATOM     12  C   UNL     1       2.511 -10.563   8.807  0.00  0.00    +0.005 A 
ATOM     13  C   UNL     1       0.989  -8.810   9.467  0.00  0.00    +0.005 A 
ATOM     14  C   UNL     1       1.450 -11.472   8.789  0.00  0.00    +0.000 A 
ATOM     15  C   UNL     1      -0.067  -9.720   9.446  0.00  0.00    +0.000 A 
ATOM     16  C   UNL     1       0.164 -11.052   9.110  0.00  0.00    +0.000 A 
ENDBRANCH  10  11
ENDBRANCH   1  10
TORSDOF 2
ENDMDL
MODEL 2
REMARK VINA RESULT:    -5.017      1.914      2.887
REMARK INTER + INTRA:          -5.716
REMARK INTER:                  -5.590
REMARK INTRA:                  -0.126
REMARK UNBOUND:                -0.113
REMARK  Name = 1550473
REMARK  2 active torsions:
REMARK  status: ('A' for Active; 'I' for Inactive)
REMARK    1  A    between atoms: N_1  and  C_4
REMARK    2  A    between atoms: C_4  and  C_5
REMARK                            x       y       z     vdW  Elec       q    Type
REMARK                         _______ _______ _______ _____ _____    ______ ____
ROOT
ATOM      1  N   UNL     1       3.576 -10.440   8.711  0.00  0.00    -0.354 N 
ATOM      2  N   UNL     1       5.739  -9.731   8.282  0.00  0.00    -0.372 N 
ATOM      3  N   UNL     1       4.602 -10.876   6.650  0.00  0.00    -0.372 N 
ATOM      4  C   UNL     1       4.625 -10.355   7.881  0.00  0.00    +0.166 C 
ATOM      5  H   UNL     1       3.667 -10.051   9.643  0.00  0.00    +0.163 HD
ATOM      6  H   UNL     1       6.545  -9.649   7.677  0.00  0.00    +0.159 HD
ATOM      7  H   UNL     1       5.811  -9.304   9.197  0.00  0.00    +0.159 HD
ATOM      8  H   UNL     1       3.794 -11.364   6.290  0.00  0.00    +0.159 HD
ATOM      9  H   UNL     1       5.403 -10.813   6.033  0.00  0.00    +0.159 HD
ENDROOT
BRANCH   1  10
ATOM     10  C   UNL     1       2.297 -11.050   8.353  0.00  0.00    +0.151 C 
BRANCH  10  11
ATOM     11  C   UNL     1       1.194 -10.355   9.102  0.00  0.00    -0.028 A 
ATOM     12  C   UNL     1       1.231  -8.966   9.296  0.00  0.00    +0.005 A 
ATOM     13  C   UNL     1       0.106 -11.078   9.615  0.00  0.00    +0.005 A 
ATOM     14  C   UNL     1       0.192  -8.315   9.966  0.00  0.00    +0.000 A 
ATOM     15  C   UNL     1      -0.929 -10.424  10.283  0.00  0.00    +0.000 A 
ATOM     16  C   UNL     1      -0.887  -9.043  10.456  0.00  0.00    +0.000 A 
ENDBRANCH  10  11
ENDBRANCH   1  10
TORSDOF 2
ENDMDL
MODEL 3
REMARK VINA RESULT:    -5.001     10.179     12.043
REMARK INTER + INTRA:          -5.699
REMARK INTER:                  -5.559
REMARK INTRA:                  -0.140
REMARK UNBOUND:                -0.113
REMARK  Name = 1550473
REMARK  2 active torsions:
REMARK  status: ('A' for Active; 'I' for Inactive)
REMARK    1  A    between atoms: N_1  and  C_4
REMARK    2  A    between atoms: C_4  and  C_5
REMARK                            x       y       z     vdW  Elec       q    Type
REMARK                         _______ _______ _______ _____ _____    ______ ____
ROOT
ATOM      1  N   UNL     1       5.687  -3.293   1.899  0.00  0.00    -0.354 N 
ATOM      2  N   UNL     1       4.558  -4.817   0.570  0.00  0.00    -0.372 N 
ATOM      3  N   UNL     1       5.940  -5.600   2.225  0.00  0.00    -0.372 N 
ATOM      4  C   UNL     1       5.404  -4.562   1.575  0.00  0.00    +0.166 C 
ATOM      5  H   UNL     1       5.271  -2.551   1.348  0.00  0.00    +0.163 HD
ATOM      6  H   UNL     1       4.322  -5.764   0.304  0.00  0.00    +0.159 HD
ATOM      7  H   UNL     1       4.108  -4.073   0.050  0.00  0.00    +0.159 HD
ATOM      8  H   UNL     1       6.590  -5.475   2.989  0.00  0.00    +0.159 HD
ATOM      9  H   UNL     1       5.726  -6.555   1.967  0.00  0.00    +0.159 HD
ENDROOT
BRANCH   1  10
ATOM     10  C   UNL     1       6.554  -2.908   3.011  0.00  0.00    +0.151 C 
BRANCH  10  11
ATOM     11  C   UNL     1       7.475  -1.809   2.558  0.00  0.00    -0.028 A 
ATOM     12  C   UNL     1       8.282  -1.130   3.482  0.00  0.00    +0.005 A 
ATOM     13  C   UNL     1       7.551  -1.447   1.204  0.00  0.00    +0.005 A 
ATOM     14  C   UNL     1       9.161  -0.130   3.057  0.00  0.00    +0.000 A 
ATOM     15  C   UNL     1       8.428  -0.448   0.784  0.00  0.00    +0.000 A 
ATOM     16  C   UNL     1       9.235   0.208   1.710  0.00  0.00    +0.000 A 
ENDBRANCH  10  11
ENDBRANCH   1  10
TORSDOF 2
ENDMDL
MODEL 4
REMARK VINA RESULT:    -4.904     33.758     34.334
REMARK INTER + INTRA:          -5.591
REMARK INTER:                  -5.470
REMARK INTRA:                  -0.121
REMARK UNBOUND:                -0.113
REMARK  Name = 1550473
REMARK  2 active torsions:
REMARK  status: ('A' for Active; 'I' for Inactive)
REMARK    1  A    between atoms: N_1  and  C_4
REMARK    2  A    between atoms: C_4  and  C_5
REMARK                            x       y       z     vdW  Elec       q    Type
REMARK                         _______ _______ _______ _____ _____    ______ ____
ROOT
ATOM      1  N   UNL     1     -16.602  -7.713 -17.890  0.00  0.00    -0.354 N 
ATOM      2  N   UNL     1     -17.936  -8.845 -16.372  0.00  0.00    -0.372 N 
ATOM      3  N   UNL     1     -18.634  -8.674 -18.551  0.00  0.00    -0.372 N 
ATOM      4  C   UNL     1     -17.717  -8.403 -17.616  0.00  0.00    +0.166 C 
ATOM      5  H   UNL     1     -15.960  -7.514 -17.130  0.00  0.00    +0.163 HD
ATOM      6  H   UNL     1     -18.766  -9.371 -16.136  0.00  0.00    +0.159 HD
ATOM      7  H   UNL     1     -17.271  -8.685 -15.625  0.00  0.00    +0.159 HD
ATOM      8  H   UNL     1     -18.532  -8.363 -19.508  0.00  0.00    +0.159 HD
ATOM      9  H   UNL     1     -19.478  -9.189 -18.332  0.00  0.00    +0.159 HD
ENDROOT
BRANCH   1  10
ATOM     10  C   UNL     1     -16.243  -7.233 -19.223  0.00  0.00    +0.151 C 
BRANCH  10  11
ATOM     11  C   UNL     1     -14.952  -7.878 -19.646  0.00  0.00    -0.028 A 
ATOM     12  C   UNL     1     -14.729  -9.244 -19.415  0.00  0.00    +0.005 A 
ATOM     13  C   UNL     1     -13.950  -7.131 -20.283  0.00  0.00    +0.005 A 
ATOM     14  C   UNL     1     -13.542  -9.850 -19.834  0.00  0.00    +0.000 A 
ATOM     15  C   UNL     1     -12.766  -7.740 -20.699  0.00  0.00    +0.000 A 
ATOM     16  C   UNL     1     -12.564  -9.100 -20.477  0.00  0.00    +0.000 A 
ENDBRANCH  10  11
ENDBRANCH   1  10
TORSDOF 2
ENDMDL
MODEL 5
REMARK VINA RESULT:    -4.635     33.535     34.290
REMARK INTER + INTRA:          -5.290
REMARK INTER:                  -5.162
REMARK INTRA:                  -0.128
REMARK UNBOUND:                -0.113
REMARK  Name = 1550473
REMARK  2 active torsions:
REMARK  status: ('A' for Active; 'I' for Inactive)
REMARK    1  A    between atoms: N_1  and  C_4
REMARK    2  A    between atoms: C_4  and  C_5
REMARK                            x       y       z     vdW  Elec       q    Type
REMARK                         _______ _______ _______ _____ _____    ______ ____
ROOT
ATOM      1  N   UNL     1     -15.129  -7.771 -18.953  0.00  0.00    -0.354 N 
ATOM      2  N   UNL     1     -16.937  -8.173 -17.563  0.00  0.00    -0.372 N 
ATOM      3  N   UNL     1     -17.194  -6.727 -19.326  0.00  0.00    -0.372 N 
ATOM      4  C   UNL     1     -16.409  -7.552 -18.625  0.00  0.00    +0.166 C 
ATOM      5  H   UNL     1     -14.579  -8.384 -18.363  0.00  0.00    +0.163 HD
ATOM      6  H   UNL     1     -17.901  -8.031 -17.294  0.00  0.00    +0.159 HD
ATOM      7  H   UNL     1     -16.398  -8.822 -17.003  0.00  0.00    +0.159 HD
ATOM      8  H   UNL     1     -16.854  -6.224 -20.135  0.00  0.00    +0.159 HD
ATOM      9  H   UNL     1     -18.158  -6.563 -19.065  0.00  0.00    +0.159 HD
ENDROOT
BRANCH   1  10
ATOM     10  C   UNL     1     -14.473  -7.186 -20.122  0.00  0.00    +0.151 C 
BRANCH  10  11
ATOM     11  C   UNL     1     -13.271  -8.016 -20.477  0.00  0.00    -0.028 A 
ATOM     12  C   UNL     1     -13.039  -9.243 -19.838  0.00  0.00    +0.005 A 
ATOM     13  C   UNL     1     -12.362  -7.584 -21.455  0.00  0.00    +0.005 A 
ATOM     14  C   UNL     1     -11.938 -10.029 -20.189  0.00  0.00    +0.000 A 
ATOM     15  C   UNL     1     -11.264  -8.370 -21.802  0.00  0.00    +0.000 A 
ATOM     16  C   UNL     1     -11.054  -9.594 -21.170  0.00  0.00    +0.000 A 
ENDBRANCH  10  11
ENDBRANCH   1  10
TORSDOF 2
ENDMDL
MODEL 6
REMARK VINA RESULT:    -4.614     21.002     22.159
REMARK INTER + INTRA:          -5.267
REMARK INTER:                  -5.122
REMARK INTRA:                  -0.145
REMARK UNBOUND:                -0.113
REMARK  Name = 1550473
REMARK  2 active torsions:
REMARK  status: ('A' for Active; 'I' for Inactive)
REMARK    1  A    between atoms: N_1  and  C_4
REMARK    2  A    between atoms: C_4  and  C_5
REMARK                            x       y       z     vdW  Elec       q    Type
REMARK                         _______ _______ _______ _____ _____    ______ ____
ROOT
ATOM      1  N   UNL     1      -4.305  12.429  12.329  0.00  0.00    -0.354 N 
ATOM      2  N   UNL     1      -4.696  13.064  14.522  0.00  0.00    -0.372 N 
ATOM      3  N   UNL     1      -6.176  13.721  12.896  0.00  0.00    -0.372 N 
ATOM      4  C   UNL     1      -5.058  13.069  13.233  0.00  0.00    +0.166 C 
ATOM      5  H   UNL     1      -3.453  11.979  12.644  0.00  0.00    +0.163 HD
ATOM      6  H   UNL     1      -5.246  13.535  15.227  0.00  0.00    +0.159 HD
ATOM      7  H   UNL     1      -3.868  12.575  14.840  0.00  0.00    +0.159 HD
ATOM      8  H   UNL     1      -6.501  13.767  11.940  0.00  0.00    +0.159 HD
ATOM      9  H   UNL     1      -6.734  14.208  13.586  0.00  0.00    +0.159 HD
ENDROOT
BRANCH   1  10
ATOM     10  C   UNL     1      -4.640  12.328  10.910  0.00  0.00    +0.151 C 
BRANCH  10  11
ATOM     11  C   UNL     1      -4.641  10.879  10.507  0.00  0.00    -0.028 A 
ATOM     12  C   UNL     1      -5.492   9.964  11.143  0.00  0.00    +0.005 A 
ATOM     13  C   UNL     1      -3.796  10.417   9.486  0.00  0.00    +0.005 A 
ATOM     14  C   UNL     1      -5.514   8.624  10.748  0.00  0.00    +0.000 A 
ATOM     15  C   UNL     1      -3.821   9.078   9.095  0.00  0.00    +0.000 A 
ATOM     16  C   UNL     1      -4.682   8.182   9.725  0.00  0.00    +0.000 A 
ENDBRANCH  10  11
ENDBRANCH   1  10
TORSDOF 2
ENDMDL
MODEL 7
REMARK VINA RESULT:    -4.572     32.623     33.543
REMARK INTER + INTRA:          -5.219
REMARK INTER:                  -5.126
REMARK INTRA:                  -0.093
REMARK UNBOUND:                -0.113
REMARK  Name = 1550473
REMARK  2 active torsions:
REMARK  status: ('A' for Active; 'I' for Inactive)
REMARK    1  A    between atoms: N_1  and  C_4
REMARK    2  A    between atoms: C_4  and  C_5
REMARK                            x       y       z     vdW  Elec       q    Type
REMARK                         _______ _______ _______ _____ _____    ______ ____
ROOT
ATOM      1  N   UNL     1     -12.218 -10.212 -19.915  0.00  0.00    -0.354 N 
ATOM      2  N   UNL     1     -11.044 -11.920 -20.947  0.00  0.00    -0.372 N 
ATOM      3  N   UNL     1      -9.879 -10.163 -20.043  0.00  0.00    -0.372 N 
ATOM      4  C   UNL     1     -11.053 -10.752 -20.295  0.00  0.00    +0.166 C 
ATOM      5  H   UNL     1     -13.075 -10.693 -20.163  0.00  0.00    +0.163 HD
ATOM      6  H   UNL     1     -10.180 -12.354 -21.243  0.00  0.00    +0.159 HD
ATOM      7  H   UNL     1     -11.899 -12.422 -21.153  0.00  0.00    +0.159 HD
ATOM      8  H   UNL     1      -9.817  -9.277 -19.560  0.00  0.00    +0.159 HD
ATOM      9  H   UNL     1      -9.004 -10.575 -20.341  0.00  0.00    +0.159 HD
ENDROOT
BRANCH   1  10
ATOM     10  C   UNL     1     -12.334  -8.970 -19.153  0.00  0.00    +0.151 C 
BRANCH  10  11
ATOM     11  C   UNL     1     -13.757  -8.488 -19.213  0.00  0.00    -0.028 A 
ATOM     12  C   UNL     1     -14.118  -7.439 -20.071  0.00  0.00    +0.005 A 
ATOM     13  C   UNL     1     -14.751  -9.080 -18.418  0.00  0.00    +0.005 A 
ATOM     14  C   UNL     1     -15.445  -7.010 -20.149  0.00  0.00    +0.000 A 
ATOM     15  C   UNL     1     -16.075  -8.648 -18.499  0.00  0.00    +0.000 A 
ATOM     16  C   UNL     1     -16.422  -7.616 -19.366  0.00  0.00    +0.000 A 
ENDBRANCH  10  11
ENDBRANCH   1  10
TORSDOF 2
ENDMDL
MODEL 8
REMARK VINA RESULT:    -4.406     11.594     12.884
REMARK INTER + INTRA:          -5.034
REMARK INTER:                  -4.899
REMARK INTRA:                  -0.136
REMARK UNBOUND:                -0.113
REMARK  Name = 1550473
REMARK  2 active torsions:
REMARK  status: ('A' for Active; 'I' for Inactive)
REMARK    1  A    between atoms: N_1  and  C_4
REMARK    2  A    between atoms: C_4  and  C_5
REMARK                            x       y       z     vdW  Elec       q    Type
REMARK                         _______ _______ _______ _____ _____    ______ ____
ROOT
ATOM      1  N   UNL     1       5.840  -2.588   0.065  0.00  0.00    -0.354 N 
ATOM      2  N   UNL     1       4.386  -4.376  -0.171  0.00  0.00    -0.372 N 
ATOM      3  N   UNL     1       6.133  -4.166  -1.643  0.00  0.00    -0.372 N 
ATOM      4  C   UNL     1       5.464  -3.699  -0.584  0.00  0.00    +0.166 C 
ATOM      5  H   UNL     1       5.272  -2.270   0.842  0.00  0.00    +0.163 HD
ATOM      6  H   UNL     1       4.081  -5.219  -0.638  0.00  0.00    +0.159 HD
ATOM      7  H   UNL     1       3.848  -4.081   0.634  0.00  0.00    +0.159 HD
ATOM      8  H   UNL     1       6.952  -3.698  -2.009  0.00  0.00    +0.159 HD
ATOM      9  H   UNL     1       5.836  -5.002  -2.132  0.00  0.00    +0.159 HD
ENDROOT
BRANCH   1  10
ATOM     10  C   UNL     1       7.029  -1.808  -0.272  0.00  0.00    +0.151 C 
BRANCH  10  11
ATOM     11  C   UNL     1       7.668  -1.315   0.997  0.00  0.00    -0.028 A 
ATOM     12  C   UNL     1       7.282  -1.841   2.239  0.00  0.00    +0.005 A 
ATOM     13  C   UNL     1       8.664  -0.327   0.964  0.00  0.00    +0.005 A 
ATOM     14  C   UNL     1       7.897  -1.405   3.416  0.00  0.00    +0.000 A 
ATOM     15  C   UNL     1       9.274   0.106   2.141  0.00  0.00    +0.000 A 
ATOM     16  C   UNL     1       8.892  -0.435   3.366  0.00  0.00    +0.000 A 
ENDBRANCH  10  11
ENDBRANCH   1  10
TORSDOF 2
ENDMDL
MODEL 9
REMARK VINA RESULT:    -4.359      7.765      8.821
REMARK INTER + INTRA:          -4.982
REMARK INTER:                  -4.866
REMARK INTRA:                  -0.115
REMARK UNBOUND:                -0.113
REMARK  Name = 1550473
REMARK  2 active torsions:
REMARK  status: ('A' for Active; 'I' for Inactive)
REMARK    1  A    between atoms: N_1  and  C_4
REMARK    2  A    between atoms: C_4  and  C_5
REMARK                            x       y       z     vdW  Elec       q    Type
REMARK                         _______ _______ _______ _____ _____    ______ ____
ROOT
ATOM      1  N   UNL     1       4.460  -4.180   3.712  0.00  0.00    -0.354 N 
ATOM      2  N   UNL     1       3.575  -6.077   2.722  0.00  0.00    -0.372 N 
ATOM      3  N   UNL     1       5.767  -5.534   2.316  0.00  0.00    -0.372 N 
ATOM      4  C   UNL     1       4.609  -5.251   2.922  0.00  0.00    +0.166 C 
ATOM      5  H   UNL     1       3.549  -4.004   4.118  0.00  0.00    +0.163 HD
ATOM      6  H   UNL     1       3.658  -6.896   2.134  0.00  0.00    +0.159 HD
ATOM      7  H   UNL     1       2.678  -5.925   3.166  0.00  0.00    +0.159 HD
ATOM      8  H   UNL     1       6.584  -4.947   2.421  0.00  0.00    +0.159 HD
ATOM      9  H   UNL     1       5.867  -6.342   1.714  0.00  0.00    +0.159 HD
ENDROOT
BRANCH   1  10
ATOM     10  C   UNL     1       5.539  -3.248   4.038  0.00  0.00    +0.151 C 
BRANCH  10  11
ATOM     11  C   UNL     1       5.236  -2.588   5.355  0.00  0.00    -0.028 A 
ATOM     12  C   UNL     1       4.959  -3.361   6.491  0.00  0.00    +0.005 A 
ATOM     13  C   UNL     1       5.232  -1.189   5.474  0.00  0.00    +0.005 A 
ATOM     14  C   UNL     1       4.707  -2.748   7.722  0.00  0.00    +0.000 A 
ATOM     15  C   UNL     1       4.980  -0.582   6.704  0.00  0.00    +0.000 A 
ATOM     16  C   UNL     1       4.720  -1.362   7.828  0.00  0.00    +0.000 A 
ENDBRANCH  10  11
ENDBRANCH   1  10
TORSDOF 2
ENDMDL
