MODEL 1
REMARK VINA RESULT:    -5.197      0.000      0.000
REMARK INTER + INTRA:          -5.909
REMARK INTER:                  -5.805
REMARK INTRA:                  -0.104
REMARK UNBOUND:                -0.104
REMARK  Name = 1550473
REMARK  2 active torsions:
REMARK  status: ('A' for Active; 'I' for Inactive)
REMARK    1  A    between atoms: N_1  and  C_4
REMARK    2  A    between atoms: C_4  and  C_5
REMARK                            x       y       z     vdW  Elec       q    Type
REMARK                         _______ _______ _______ _____ _____    ______ ____
ROOT
ATOM      1  N   UNL     1       3.320  -4.492  21.460  0.00  0.00    -0.354 N 
ATOM      2  N   UNL     1       1.550  -5.400  22.647  0.00  0.00    -0.372 N 
ATOM      3  N   UNL     1       1.110  -4.218  20.730  0.00  0.00    -0.372 N 
ATOM      4  C   UNL     1       2.004  -4.696  21.603  0.00  0.00    +0.166 C 
ATOM      5  H   UNL     1       3.943  -4.855  22.173  0.00  0.00    +0.163 HD
ATOM      6  H   UNL     1       0.563  -5.573  22.778  0.00  0.00    +0.159 HD
ATOM      7  H   UNL     1       2.178  -5.801  23.332  0.00  0.00    +0.159 HD
ATOM      8  H   UNL     1       1.387  -3.673  19.924  0.00  0.00    +0.159 HD
ATOM      9  H   UNL     1       0.117  -4.370  20.851  0.00  0.00    +0.159 HD
ENDROOT
BRANCH   1  10
ATOM     10  C   UNL     1       3.921  -3.785  20.331  0.00  0.00    +0.151 C 
BRANCH  10  11
ATOM     11  C   UNL     1       5.328  -4.276  20.136  0.00  0.00    -0.028 A 
ATOM     12  C   UNL     1       5.754  -4.740  18.882  0.00  0.00    +0.005 A 
ATOM     13  C   UNL     1       6.244  -4.275  21.200  0.00  0.00    +0.005 A 
ATOM     14  C   UNL     1       7.070  -5.168  18.693  0.00  0.00    +0.000 A 
ATOM     15  C   UNL     1       7.557  -4.705  21.007  0.00  0.00    +0.000 A 
ATOM     16  C   UNL     1       7.970  -5.149  19.753  0.00  0.00    +0.000 A 
ENDBRANCH  10  11
ENDBRANCH   1  10
TORSDOF 2
ENDMDL
MODEL 2
REMARK VINA RESULT:    -5.197     33.171     34.328
REMARK INTER + INTRA:          -5.908
REMARK INTER:                  -5.812
REMARK INTRA:                  -0.096
REMARK UNBOUND:                -0.104
REMARK  Name = 1550473
REMARK  2 active torsions:
REMARK  status: ('A' for Active; 'I' for Inactive)
REMARK    1  A    between atoms: N_1  and  C_4
REMARK    2  A    between atoms: C_4  and  C_5
REMARK                            x       y       z     vdW  Elec       q    Type
REMARK                         _______ _______ _______ _____ _____    ______ ____
ROOT
ATOM      1  N   UNL     1     -10.786 -10.860  -7.828  0.00  0.00    -0.354 N 
ATOM      2  N   UNL     1     -11.900 -10.312  -5.872  0.00  0.00    -0.372 N 
ATOM      3  N   UNL     1      -9.635 -10.672  -5.795  0.00  0.00    -0.372 N 
ATOM      4  C   UNL     1     -10.764 -10.619  -6.510  0.00  0.00    +0.166 C 
ATOM      5  H   UNL     1     -11.679 -10.834  -8.307  0.00  0.00    +0.163 HD
ATOM      6  H   UNL     1     -11.914 -10.122  -4.880  0.00  0.00    +0.159 HD
ATOM      7  H   UNL     1     -12.784 -10.242  -6.362  0.00  0.00    +0.159 HD
ATOM      8  H   UNL     1      -8.745 -10.903  -6.216  0.00  0.00    +0.159 HD
ATOM      9  H   UNL     1      -9.631 -10.495  -4.798  0.00  0.00    +0.159 HD
ENDROOT
BRANCH   1  10
ATOM     10  C   UNL     1      -9.597 -11.150  -8.626  0.00  0.00    +0.151 C 
BRANCH  10  11
ATOM     11  C   UNL     1     -10.020 -11.748  -9.939  0.00  0.00    -0.028 A 
ATOM     12  C   UNL     1     -10.066 -10.959 -11.099  0.00  0.00    +0.005 A 
ATOM     13  C   UNL     1     -10.370 -13.104 -10.032  0.00  0.00    +0.005 A 
ATOM     14  C   UNL     1     -10.431 -11.521 -12.325  0.00  0.00    +0.000 A 
ATOM     15  C   UNL     1     -10.734 -13.661 -11.258  0.00  0.00    +0.000 A 
ATOM     16  C   UNL     1     -10.762 -12.870 -12.404  0.00  0.00    +0.000 A 
ENDBRANCH  10  11
ENDBRANCH   1  10
TORSDOF 2
ENDMDL
MODEL 3
REMARK VINA RESULT:    -5.061      2.427      3.496
REMARK INTER + INTRA:          -5.756
REMARK INTER:                  -5.628
REMARK INTRA:                  -0.128
REMARK UNBOUND:                -0.104
REMARK  Name = 1550473
REMARK  2 active torsions:
REMARK  status: ('A' for Active; 'I' for Inactive)
REMARK    1  A    between atoms: N_1  and  C_4
REMARK    2  A    between atoms: C_4  and  C_5
REMARK                            x       y       z     vdW  Elec       q    Type
REMARK                         _______ _______ _______ _____ _____    ______ ____
ROOT
ATOM      1  N   UNL     1       5.296  -3.170  22.970  0.00  0.00    -0.354 N 
ATOM      2  N   UNL     1       4.240  -2.195  24.786  0.00  0.00    -0.372 N 
ATOM      3  N   UNL     1       5.657  -3.964  25.145  0.00  0.00    -0.372 N 
ATOM      4  C   UNL     1       5.073  -3.118  24.290  0.00  0.00    +0.166 C 
ATOM      5  H   UNL     1       4.799  -2.520  22.372  0.00  0.00    +0.163 HD
ATOM      6  H   UNL     1       4.054  -2.130  25.778  0.00  0.00    +0.159 HD
ATOM      7  H   UNL     1       3.779  -1.518  24.190  0.00  0.00    +0.159 HD
ATOM      8  H   UNL     1       6.292  -4.687  24.834  0.00  0.00    +0.159 HD
ATOM      9  H   UNL     1       5.475  -3.921  26.140  0.00  0.00    +0.159 HD
ENDROOT
BRANCH   1  10
ATOM     10  C   UNL     1       6.226  -4.102  22.334  0.00  0.00    +0.151 C 
BRANCH  10  11
ATOM     11  C   UNL     1       5.817  -4.303  20.901  0.00  0.00    -0.028 A 
ATOM     12  C   UNL     1       4.514  -3.996  20.483  0.00  0.00    +0.005 A 
ATOM     13  C   UNL     1       6.729  -4.796  19.956  0.00  0.00    +0.005 A 
ATOM     14  C   UNL     1       4.142  -4.154  19.146  0.00  0.00    +0.000 A 
ATOM     15  C   UNL     1       6.353  -4.954  18.622  0.00  0.00    +0.000 A 
ATOM     16  C   UNL     1       5.060  -4.631  18.217  0.00  0.00    +0.000 A 
ENDBRANCH  10  11
ENDBRANCH   1  10
TORSDOF 2
ENDMDL
MODEL 4
REMARK VINA RESULT:    -5.058      2.380      3.158
REMARK INTER + INTRA:          -5.753
REMARK INTER:                  -5.627
REMARK INTRA:                  -0.126
REMARK UNBOUND:                -0.104
REMARK  Name = 1550473
REMARK  2 active torsions:
REMARK  status: ('A' for Active; 'I' for Inactive)
REMARK    1  A    between atoms: N_1  and  C_4
REMARK    2  A    between atoms: C_4  and  C_5
REMARK                            x       y       z     vdW  Elec       q    Type
REMARK                         _______ _______ _______ _____ _____    ______ ____
ROOT
ATOM      1  N   UNL     1       5.138  -4.046  23.221  0.00  0.00    -0.354 N 
ATOM      2  N   UNL     1       5.706  -3.899  25.461  0.00  0.00    -0.372 N 
ATOM      3  N   UNL     1       3.876  -2.742  24.703  0.00  0.00    -0.372 N 
ATOM      4  C   UNL     1       4.901  -3.562  24.447  0.00  0.00    +0.166 C 
ATOM      5  H   UNL     1       5.950  -4.639  23.086  0.00  0.00    +0.163 HD
ATOM      6  H   UNL     1       5.550  -3.552  26.398  0.00  0.00    +0.159 HD
ATOM      7  H   UNL     1       6.489  -4.528  25.333  0.00  0.00    +0.159 HD
ATOM      8  H   UNL     1       3.235  -2.444  23.979  0.00  0.00    +0.159 HD
ATOM      9  H   UNL     1       3.709  -2.375  25.631  0.00  0.00    +0.159 HD
ENDROOT
BRANCH   1  10
ATOM     10  C   UNL     1       4.291  -3.783  22.059  0.00  0.00    +0.151 C 
BRANCH  10  11
ATOM     11  C   UNL     1       5.035  -4.168  20.810  0.00  0.00    -0.028 A 
ATOM     12  C   UNL     1       6.386  -4.540  20.873  0.00  0.00    +0.005 A 
ATOM     13  C   UNL     1       4.394  -4.169  19.562  0.00  0.00    +0.005 A 
ATOM     14  C   UNL     1       7.070  -4.927  19.718  0.00  0.00    +0.000 A 
ATOM     15  C   UNL     1       5.080  -4.555  18.411  0.00  0.00    +0.000 A 
ATOM     16  C   UNL     1       6.418  -4.936  18.490  0.00  0.00    +0.000 A 
ENDBRANCH  10  11
ENDBRANCH   1  10
TORSDOF 2
ENDMDL
MODEL 5
REMARK VINA RESULT:    -5.036      1.508      2.064
REMARK INTER + INTRA:          -5.728
REMARK INTER:                  -5.634
REMARK INTRA:                  -0.095
REMARK UNBOUND:                -0.104
REMARK  Name = 1550473
REMARK  2 active torsions:
REMARK  status: ('A' for Active; 'I' for Inactive)
REMARK    1  A    between atoms: N_1  and  C_4
REMARK    2  A    between atoms: C_4  and  C_5
REMARK                            x       y       z     vdW  Elec       q    Type
REMARK                         _______ _______ _______ _____ _____    ______ ____
ROOT
ATOM      1  N   UNL     1       3.861  -4.751  22.357  0.00  0.00    -0.354 N 
ATOM      2  N   UNL     1       2.296  -5.534  23.875  0.00  0.00    -0.372 N 
ATOM      3  N   UNL     1       3.305  -3.510  24.265  0.00  0.00    -0.372 N 
ATOM      4  C   UNL     1       3.165  -4.591  23.490  0.00  0.00    +0.166 C 
ATOM      5  H   UNL     1       3.731  -5.607  21.830  0.00  0.00    +0.163 HD
ATOM      6  H   UNL     1       1.755  -5.439  24.724  0.00  0.00    +0.159 HD
ATOM      7  H   UNL     1       2.135  -6.367  23.322  0.00  0.00    +0.159 HD
ATOM      8  H   UNL     1       3.948  -2.765  24.034  0.00  0.00    +0.159 HD
ATOM      9  H   UNL     1       2.780  -3.402  25.124  0.00  0.00    +0.159 HD
ENDROOT
BRANCH   1  10
ATOM     10  C   UNL     1       4.792  -3.759  21.822  0.00  0.00    +0.151 C 
BRANCH  10  11
ATOM     11  C   UNL     1       5.314  -4.241  20.496  0.00  0.00    -0.028 A 
ATOM     12  C   UNL     1       4.489  -4.237  19.362  0.00  0.00    +0.005 A 
ATOM     13  C   UNL     1       6.635  -4.697  20.367  0.00  0.00    +0.005 A 
ATOM     14  C   UNL     1       4.983  -4.656  18.124  0.00  0.00    +0.000 A 
ATOM     15  C   UNL     1       7.124  -5.115  19.129  0.00  0.00    +0.000 A 
ATOM     16  C   UNL     1       6.298  -5.092  18.008  0.00  0.00    +0.000 A 
ENDBRANCH  10  11
ENDBRANCH   1  10
TORSDOF 2
ENDMDL
MODEL 6
REMARK VINA RESULT:    -5.015      2.894      3.738
REMARK INTER + INTRA:          -5.705
REMARK INTER:                  -5.534
REMARK INTRA:                  -0.171
REMARK UNBOUND:                -0.104
REMARK  Name = 1550473
REMARK  2 active torsions:
REMARK  status: ('A' for Active; 'I' for Inactive)
REMARK    1  A    between atoms: N_1  and  C_4
REMARK    2  A    between atoms: C_4  and  C_5
REMARK                            x       y       z     vdW  Elec       q    Type
REMARK                         _______ _______ _______ _____ _____    ______ ____
ROOT
ATOM      1  N   UNL     1       4.501  -2.482  23.482  0.00  0.00    -0.354 N 
ATOM      2  N   UNL     1       5.003  -0.368  24.282  0.00  0.00    -0.372 N 
ATOM      3  N   UNL     1       6.262  -2.150  24.992  0.00  0.00    -0.372 N 
ATOM      4  C   UNL     1       5.254  -1.682  24.248  0.00  0.00    +0.166 C 
ATOM      5  H   UNL     1       3.732  -2.070  22.965  0.00  0.00    +0.163 HD
ATOM      6  H   UNL     1       5.556   0.261  24.849  0.00  0.00    +0.159 HD
ATOM      7  H   UNL     1       4.264   0.048  23.729  0.00  0.00    +0.159 HD
ATOM      8  H   UNL     1       6.499  -3.133  25.015  0.00  0.00    +0.159 HD
ATOM      9  H   UNL     1       6.820  -1.538  25.574  0.00  0.00    +0.159 HD
ENDROOT
BRANCH   1  10
ATOM     10  C   UNL     1       4.725  -3.919  23.332  0.00  0.00    +0.151 C 
BRANCH  10  11
ATOM     11  C   UNL     1       5.285  -4.189  21.963  0.00  0.00    -0.028 A 
ATOM     12  C   UNL     1       4.458  -4.129  20.831  0.00  0.00    +0.005 A 
ATOM     13  C   UNL     1       6.642  -4.500  21.790  0.00  0.00    +0.005 A 
ATOM     14  C   UNL     1       4.984  -4.350  19.556  0.00  0.00    +0.000 A 
ATOM     15  C   UNL     1       7.163  -4.722  20.515  0.00  0.00    +0.000 A 
ATOM     16  C   UNL     1       6.334  -4.644  19.398  0.00  0.00    +0.000 A 
ENDBRANCH  10  11
ENDBRANCH   1  10
TORSDOF 2
ENDMDL
MODEL 7
REMARK VINA RESULT:    -4.981     27.890     28.911
REMARK INTER + INTRA:          -5.667
REMARK INTER:                  -5.520
REMARK INTRA:                  -0.147
REMARK UNBOUND:                -0.104
REMARK  Name = 1550473
REMARK  2 active torsions:
REMARK  status: ('A' for Active; 'I' for Inactive)
REMARK    1  A    between atoms: N_1  and  C_4
REMARK    2  A    between atoms: C_4  and  C_5
REMARK                            x       y       z     vdW  Elec       q    Type
REMARK                         _______ _______ _______ _____ _____    ______ ____
ROOT
ATOM      1  N   UNL     1     -10.792 -10.141  -2.871  0.00  0.00    -0.354 N 
ATOM      2  N   UNL     1     -10.548  -9.827  -5.152  0.00  0.00    -0.372 N 
ATOM      3  N   UNL     1      -8.883 -10.902  -3.996  0.00  0.00    -0.372 N 
ATOM      4  C   UNL     1     -10.073 -10.293  -3.991  0.00  0.00    +0.166 C 
ATOM      5  H   UNL     1     -11.674  -9.644  -2.928  0.00  0.00    +0.163 HD
ATOM      6  H   UNL     1     -10.030  -9.930  -6.014  0.00  0.00    +0.159 HD
ATOM      7  H   UNL     1     -11.450  -9.371  -5.215  0.00  0.00    +0.159 HD
ATOM      8  H   UNL     1      -8.466 -11.271  -3.152  0.00  0.00    +0.159 HD
ATOM      9  H   UNL     1      -8.344 -11.005  -4.847  0.00  0.00    +0.159 HD
ENDROOT
BRANCH   1  10
ATOM     10  C   UNL     1     -10.391 -10.660  -1.565  0.00  0.00    +0.151 C 
BRANCH  10  11
ATOM     11  C   UNL     1     -11.484 -11.542  -1.029  0.00  0.00    -0.028 A 
ATOM     12  C   UNL     1     -12.240 -11.143   0.083  0.00  0.00    +0.005 A 
ATOM     13  C   UNL     1     -11.774 -12.776  -1.632  0.00  0.00    +0.005 A 
ATOM     14  C   UNL     1     -13.276 -11.948   0.563  0.00  0.00    +0.000 A 
ATOM     15  C   UNL     1     -12.808 -13.577  -1.149  0.00  0.00    +0.000 A 
ATOM     16  C   UNL     1     -13.561 -13.162  -0.053  0.00  0.00    +0.000 A 
ENDBRANCH  10  11
ENDBRANCH   1  10
TORSDOF 2
ENDMDL
MODEL 8
REMARK VINA RESULT:    -4.953     28.296     29.459
REMARK INTER + INTRA:          -5.636
REMARK INTER:                  -5.577
REMARK INTRA:                  -0.059
REMARK UNBOUND:                -0.104
REMARK  Name = 1550473
REMARK  2 active torsions:
REMARK  status: ('A' for Active; 'I' for Inactive)
REMARK    1  A    between atoms: N_1  and  C_4
REMARK    2  A    between atoms: C_4  and  C_5
REMARK                            x       y       z     vdW  Elec       q    Type
REMARK                         _______ _______ _______ _____ _____    ______ ____
ROOT
ATOM      1  N   UNL     1      -9.434 -10.492  -4.782  0.00  0.00    -0.354 N 
ATOM      2  N   UNL     1      -9.207  -8.474  -5.896  0.00  0.00    -0.372 N 
ATOM      3  N   UNL     1     -11.070  -9.754  -6.289  0.00  0.00    -0.372 N 
ATOM      4  C   UNL     1      -9.908  -9.587  -5.650  0.00  0.00    +0.166 C 
ATOM      5  H   UNL     1      -8.532 -10.321  -4.353  0.00  0.00    +0.163 HD
ATOM      6  H   UNL     1      -9.540  -7.772  -6.543  0.00  0.00    +0.159 HD
ATOM      7  H   UNL     1      -8.327  -8.284  -5.431  0.00  0.00    +0.159 HD
ATOM      8  H   UNL     1     -11.644 -10.575  -6.152  0.00  0.00    +0.159 HD
ATOM      9  H   UNL     1     -11.415  -9.068  -6.949  0.00  0.00    +0.159 HD
ENDROOT
BRANCH   1  10
ATOM     10  C   UNL     1     -10.145 -11.712  -4.403  0.00  0.00    +0.151 C 
BRANCH  10  11
ATOM     11  C   UNL     1     -10.715 -11.539  -3.022  0.00  0.00    -0.028 A 
ATOM     12  C   UNL     1     -11.282 -12.628  -2.345  0.00  0.00    +0.005 A 
ATOM     13  C   UNL     1     -10.686 -10.290  -2.384  0.00  0.00    +0.005 A 
ATOM     14  C   UNL     1     -11.785 -12.475  -1.051  0.00  0.00    +0.000 A 
ATOM     15  C   UNL     1     -11.190 -10.141  -1.092  0.00  0.00    +0.000 A 
ATOM     16  C   UNL     1     -11.737 -11.234  -0.424  0.00  0.00    +0.000 A 
ENDBRANCH  10  11
ENDBRANCH   1  10
TORSDOF 2
ENDMDL
MODEL 9
REMARK VINA RESULT:    -4.764      2.941      3.642
REMARK INTER + INTRA:          -5.425
REMARK INTER:                  -5.248
REMARK INTRA:                  -0.177
REMARK UNBOUND:                -0.104
REMARK  Name = 1550473
REMARK  2 active torsions:
REMARK  status: ('A' for Active; 'I' for Inactive)
REMARK    1  A    between atoms: N_1  and  C_4
REMARK    2  A    between atoms: C_4  and  C_5
REMARK                            x       y       z     vdW  Elec       q    Type
REMARK                         _______ _______ _______ _____ _____    ______ ____
ROOT
ATOM      1  N   UNL     1       3.841  -5.881  17.943  0.00  0.00    -0.354 N 
ATOM      2  N   UNL     1       3.453  -8.027  17.162  0.00  0.00    -0.372 N 
ATOM      3  N   UNL     1       5.067  -6.751  16.145  0.00  0.00    -0.372 N 
ATOM      4  C   UNL     1       4.125  -6.871  17.087  0.00  0.00    +0.166 C 
ATOM      5  H   UNL     1       3.095  -6.024  18.614  0.00  0.00    +0.163 HD
ATOM      6  H   UNL     1       3.647  -8.793  16.531  0.00  0.00    +0.159 HD
ATOM      7  H   UNL     1       2.739  -8.183  17.863  0.00  0.00    +0.159 HD
ATOM      8  H   UNL     1       5.606  -5.903  16.033  0.00  0.00    +0.159 HD
ATOM      9  H   UNL     1       5.268  -7.502  15.498  0.00  0.00    +0.159 HD
ENDROOT
BRANCH   1  10
ATOM     10  C   UNL     1       4.551  -4.604  17.981  0.00  0.00    +0.151 C 
BRANCH  10  11
ATOM     11  C   UNL     1       5.553  -4.631  19.102  0.00  0.00    -0.028 A 
ATOM     12  C   UNL     1       6.876  -5.032  18.864  0.00  0.00    +0.005 A 
ATOM     13  C   UNL     1       5.187  -4.252  20.402  0.00  0.00    +0.005 A 
ATOM     14  C   UNL     1       7.814  -5.029  19.899  0.00  0.00    +0.000 A 
ATOM     15  C   UNL     1       6.127  -4.251  21.433  0.00  0.00    +0.000 A 
ATOM     16  C   UNL     1       7.441  -4.638  21.180  0.00  0.00    +0.000 A 
ENDBRANCH  10  11
ENDBRANCH   1  10
TORSDOF 2
ENDMDL
