MODEL 1
REMARK VINA RESULT:    -6.283      0.000      0.000
REMARK INTER + INTRA:          -7.147
REMARK INTER:                  -7.017
REMARK INTRA:                  -0.129
REMARK UNBOUND:                -0.129
REMARK  Name = 1550473
REMARK  2 active torsions:
REMARK  status: ('A' for Active; 'I' for Inactive)
REMARK    1  A    between atoms: N_1  and  C_4
REMARK    2  A    between atoms: C_4  and  C_5
REMARK                            x       y       z     vdW  Elec       q    Type
REMARK                         _______ _______ _______ _____ _____    ______ ____
ROOT
ATOM      1  N   UNL     1     -13.877 -15.088 -18.467  0.00  0.00    -0.354 N 
ATOM      2  N   UNL     1     -13.375 -15.835 -16.333  0.00  0.00    -0.372 N 
ATOM      3  N   UNL     1     -13.337 -17.333 -18.070  0.00  0.00    -0.372 N 
ATOM      4  C   UNL     1     -13.533 -16.083 -17.639  0.00  0.00    +0.166 C 
ATOM      5  H   UNL     1     -14.040 -14.168 -18.073  0.00  0.00    +0.163 HD
ATOM      6  H   UNL     1     -13.112 -16.565 -15.684  0.00  0.00    +0.159 HD
ATOM      7  H   UNL     1     -13.494 -14.905 -15.949  0.00  0.00    +0.159 HD
ATOM      8  H   UNL     1     -13.447 -17.588 -19.043  0.00  0.00    +0.159 HD
ATOM      9  H   UNL     1     -13.086 -18.080 -17.434  0.00  0.00    +0.159 HD
ENDROOT
BRANCH   1  10
ATOM     10  C   UNL     1     -14.021 -15.241 -19.913  0.00  0.00    +0.151 C 
BRANCH  10  11
ATOM     11  C   UNL     1     -15.038 -14.251 -20.413  0.00  0.00    -0.028 A 
ATOM     12  C   UNL     1     -16.048 -13.778 -19.563  0.00  0.00    +0.005 A 
ATOM     13  C   UNL     1     -14.992 -13.779 -21.734  0.00  0.00    +0.005 A 
ATOM     14  C   UNL     1     -16.974 -12.836 -20.018  0.00  0.00    +0.000 A 
ATOM     15  C   UNL     1     -15.919 -12.839 -22.184  0.00  0.00    +0.000 A 
ATOM     16  C   UNL     1     -16.908 -12.366 -21.325  0.00  0.00    +0.000 A 
ENDBRANCH  10  11
ENDBRANCH   1  10
TORSDOF 2
ENDMDL
MODEL 2
REMARK VINA RESULT:    -5.771     36.160     36.719
REMARK INTER + INTRA:          -6.575
REMARK INTER:                  -6.442
REMARK INTRA:                  -0.133
REMARK UNBOUND:                -0.129
REMARK  Name = 1550473
REMARK  2 active torsions:
REMARK  status: ('A' for Active; 'I' for Inactive)
REMARK    1  A    between atoms: N_1  and  C_4
REMARK    2  A    between atoms: C_4  and  C_5
REMARK                            x       y       z     vdW  Elec       q    Type
REMARK                         _______ _______ _______ _____ _____    ______ ____
ROOT
ATOM      1  N   UNL     1       4.439  13.562  -3.095  0.00  0.00    -0.354 N 
ATOM      2  N   UNL     1       6.260  13.914  -1.708  0.00  0.00    -0.372 N 
ATOM      3  N   UNL     1       4.528  15.419  -1.669  0.00  0.00    -0.372 N 
ATOM      4  C   UNL     1       5.062  14.299  -2.166  0.00  0.00    +0.166 C 
ATOM      5  H   UNL     1       4.910  12.739  -3.453  0.00  0.00    +0.163 HD
ATOM      6  H   UNL     1       6.753  14.448  -1.005  0.00  0.00    +0.159 HD
ATOM      7  H   UNL     1       6.708  13.067  -2.035  0.00  0.00    +0.159 HD
ATOM      8  H   UNL     1       3.630  15.767  -1.977  0.00  0.00    +0.159 HD
ATOM      9  H   UNL     1       5.012  15.973  -0.973  0.00  0.00    +0.159 HD
ENDROOT
BRANCH   1  10
ATOM     10  C   UNL     1       3.108  13.864  -3.620  0.00  0.00    +0.151 C 
BRANCH  10  11
ATOM     11  C   UNL     1       2.235  12.648  -3.474  0.00  0.00    -0.028 A 
ATOM     12  C   UNL     1       2.456  11.734  -2.434  0.00  0.00    +0.005 A 
ATOM     13  C   UNL     1       1.181  12.408  -4.369  0.00  0.00    +0.005 A 
ATOM     14  C   UNL     1       1.627  10.620  -2.280  0.00  0.00    +0.000 A 
ATOM     15  C   UNL     1       0.356  11.294  -4.212  0.00  0.00    +0.000 A 
ATOM     16  C   UNL     1       0.577  10.402  -3.166  0.00  0.00    +0.000 A 
ENDBRANCH  10  11
ENDBRANCH   1  10
TORSDOF 2
ENDMDL
MODEL 3
REMARK VINA RESULT:    -5.765     35.366     35.947
REMARK INTER + INTRA:          -6.568
REMARK INTER:                  -6.403
REMARK INTRA:                  -0.165
REMARK UNBOUND:                -0.129
REMARK  Name = 1550473
REMARK  2 active torsions:
REMARK  status: ('A' for Active; 'I' for Inactive)
REMARK    1  A    between atoms: N_1  and  C_4
REMARK    2  A    between atoms: C_4  and  C_5
REMARK                            x       y       z     vdW  Elec       q    Type
REMARK                         _______ _______ _______ _____ _____    ______ ____
ROOT
ATOM      1  N   UNL     1       1.586  14.845  -3.303  0.00  0.00    -0.354 N 
ATOM      2  N   UNL     1      -0.085  16.447  -3.230  0.00  0.00    -0.372 N 
ATOM      3  N   UNL     1       0.338  15.376  -5.215  0.00  0.00    -0.372 N 
ATOM      4  C   UNL     1       0.624  15.545  -3.919  0.00  0.00    +0.166 C 
ATOM      5  H   UNL     1       1.775  15.042  -2.327  0.00  0.00    +0.163 HD
ATOM      6  H   UNL     1      -0.819  16.988  -3.667  0.00  0.00    +0.159 HD
ATOM      7  H   UNL     1       0.074  16.609  -2.243  0.00  0.00    +0.159 HD
ATOM      8  H   UNL     1       0.841  14.715  -5.792  0.00  0.00    +0.159 HD
ATOM      9  H   UNL     1      -0.385  15.916  -5.673  0.00  0.00    +0.159 HD
ENDROOT
BRANCH   1  10
ATOM     10  C   UNL     1       2.380  13.802  -3.950  0.00  0.00    +0.151 C 
BRANCH  10  11
ATOM     11  C   UNL     1       1.812  12.457  -3.587  0.00  0.00    -0.028 A 
ATOM     12  C   UNL     1       2.275  11.771  -2.455  0.00  0.00    +0.005 A 
ATOM     13  C   UNL     1       0.806  11.867  -4.368  0.00  0.00    +0.005 A 
ATOM     14  C   UNL     1       1.726  10.536  -2.101  0.00  0.00    +0.000 A 
ATOM     15  C   UNL     1       0.261  10.634  -4.011  0.00  0.00    +0.000 A 
ATOM     16  C   UNL     1       0.720   9.969  -2.876  0.00  0.00    +0.000 A 
ENDBRANCH  10  11
ENDBRANCH   1  10
TORSDOF 2
ENDMDL
MODEL 4
REMARK VINA RESULT:    -5.761      1.820      2.445
REMARK INTER + INTRA:          -6.564
REMARK INTER:                  -6.477
REMARK INTRA:                  -0.087
REMARK UNBOUND:                -0.129
REMARK  Name = 1550473
REMARK  2 active torsions:
REMARK  status: ('A' for Active; 'I' for Inactive)
REMARK    1  A    between atoms: N_1  and  C_4
REMARK    2  A    between atoms: C_4  and  C_5
REMARK                            x       y       z     vdW  Elec       q    Type
REMARK                         _______ _______ _______ _____ _____    ______ ____
ROOT
ATOM      1  N   UNL     1     -14.830 -15.597 -17.956  0.00  0.00    -0.354 N 
ATOM      2  N   UNL     1     -13.235 -15.835 -16.294  0.00  0.00    -0.372 N 
ATOM      3  N   UNL     1     -13.285 -17.358 -18.010  0.00  0.00    -0.372 N 
ATOM      4  C   UNL     1     -13.793 -16.264 -17.432  0.00  0.00    +0.166 C 
ATOM      5  H   UNL     1     -15.188 -14.793 -17.454  0.00  0.00    +0.163 HD
ATOM      6  H   UNL     1     -12.449 -16.316 -15.877  0.00  0.00    +0.159 HD
ATOM      7  H   UNL     1     -13.565 -15.005 -15.818  0.00  0.00    +0.159 HD
ATOM      8  H   UNL     1     -13.664 -17.737 -18.867  0.00  0.00    +0.159 HD
ATOM      9  H   UNL     1     -12.506 -17.860 -17.601  0.00  0.00    +0.159 HD
ENDROOT
BRANCH   1  10
ATOM     10  C   UNL     1     -15.475 -15.950 -19.219  0.00  0.00    +0.151 C 
BRANCH  10  11
ATOM     11  C   UNL     1     -14.657 -15.405 -20.358  0.00  0.00    -0.028 A 
ATOM     12  C   UNL     1     -14.249 -14.063 -20.362  0.00  0.00    +0.005 A 
ATOM     13  C   UNL     1     -14.283 -16.227 -21.432  0.00  0.00    +0.005 A 
ATOM     14  C   UNL     1     -13.464 -13.564 -21.405  0.00  0.00    +0.000 A 
ATOM     15  C   UNL     1     -13.499 -15.725 -22.471  0.00  0.00    +0.000 A 
ATOM     16  C   UNL     1     -13.088 -14.394 -22.456  0.00  0.00    +0.000 A 
ENDBRANCH  10  11
ENDBRANCH   1  10
TORSDOF 2
ENDMDL
MODEL 5
REMARK VINA RESULT:    -5.525     21.075     21.604
REMARK INTER + INTRA:          -6.301
REMARK INTER:                  -6.173
REMARK INTRA:                  -0.128
REMARK UNBOUND:                -0.129
REMARK  Name = 1550473
REMARK  2 active torsions:
REMARK  status: ('A' for Active; 'I' for Inactive)
REMARK    1  A    between atoms: N_1  and  C_4
REMARK    2  A    between atoms: C_4  and  C_5
REMARK                            x       y       z     vdW  Elec       q    Type
REMARK                         _______ _______ _______ _____ _____    ______ ____
ROOT
ATOM      1  N   UNL     1       4.013  -5.478 -22.615  0.00  0.00    -0.354 N 
ATOM      2  N   UNL     1       4.477  -7.619 -21.863  0.00  0.00    -0.372 N 
ATOM      3  N   UNL     1       6.156  -6.054 -21.860  0.00  0.00    -0.372 N 
ATOM      4  C   UNL     1       4.882  -6.368 -22.118  0.00  0.00    +0.166 C 
ATOM      5  H   UNL     1       3.069  -5.787 -22.817  0.00  0.00    +0.163 HD
ATOM      6  H   UNL     1       5.109  -8.312 -21.484  0.00  0.00    +0.159 HD
ATOM      7  H   UNL     1       3.521  -7.912 -22.022  0.00  0.00    +0.159 HD
ATOM      8  H   UNL     1       6.525  -5.129 -22.036  0.00  0.00    +0.159 HD
ATOM      9  H   UNL     1       6.806  -6.737 -21.492  0.00  0.00    +0.159 HD
ENDROOT
BRANCH   1  10
ATOM     10  C   UNL     1       4.339  -4.077 -22.877  0.00  0.00    +0.151 C 
BRANCH  10  11
ATOM     11  C   UNL     1       3.520  -3.592 -24.041  0.00  0.00    -0.028 A 
ATOM     12  C   UNL     1       2.402  -4.317 -24.477  0.00  0.00    +0.005 A 
ATOM     13  C   UNL     1       3.855  -2.404 -24.710  0.00  0.00    +0.005 A 
ATOM     14  C   UNL     1       1.624  -3.851 -25.539  0.00  0.00    +0.000 A 
ATOM     15  C   UNL     1       3.076  -1.943 -25.771  0.00  0.00    +0.000 A 
ATOM     16  C   UNL     1       1.959  -2.665 -26.184  0.00  0.00    +0.000 A 
ENDBRANCH  10  11
ENDBRANCH   1  10
TORSDOF 2
ENDMDL
MODEL 6
REMARK VINA RESULT:    -5.301      1.471      2.276
REMARK INTER + INTRA:          -6.051
REMARK INTER:                  -5.880
REMARK INTRA:                  -0.170
REMARK UNBOUND:                -0.129
REMARK  Name = 1550473
REMARK  2 active torsions:
REMARK  status: ('A' for Active; 'I' for Inactive)
REMARK    1  A    between atoms: N_1  and  C_4
REMARK    2  A    between atoms: C_4  and  C_5
REMARK                            x       y       z     vdW  Elec       q    Type
REMARK                         _______ _______ _______ _____ _____    ______ ____
ROOT
ATOM      1  N   UNL     1     -13.865 -16.958 -17.605  0.00  0.00    -0.354 N 
ATOM      2  N   UNL     1     -14.911 -18.944 -17.034  0.00  0.00    -0.372 N 
ATOM      3  N   UNL     1     -15.443 -17.037 -15.874  0.00  0.00    -0.372 N 
ATOM      4  C   UNL     1     -14.734 -17.632 -16.840  0.00  0.00    +0.166 C 
ATOM      5  H   UNL     1     -13.336 -17.473 -18.300  0.00  0.00    +0.163 HD
ATOM      6  H   UNL     1     -15.563 -19.478 -16.474  0.00  0.00    +0.159 HD
ATOM      7  H   UNL     1     -14.415 -19.447 -17.759  0.00  0.00    +0.159 HD
ATOM      8  H   UNL     1     -15.351 -16.050 -15.673  0.00  0.00    +0.159 HD
ATOM      9  H   UNL     1     -16.091 -17.556 -15.296  0.00  0.00    +0.159 HD
ENDROOT
BRANCH   1  10
ATOM     10  C   UNL     1     -13.638 -15.517 -17.511  0.00  0.00    +0.151 C 
BRANCH  10  11
ATOM     11  C   UNL     1     -14.465 -14.820 -18.555  0.00  0.00    -0.028 A 
ATOM     12  C   UNL     1     -15.713 -14.272 -18.226  0.00  0.00    +0.005 A 
ATOM     13  C   UNL     1     -14.003 -14.699 -19.875  0.00  0.00    +0.005 A 
ATOM     14  C   UNL     1     -16.468 -13.598 -19.189  0.00  0.00    +0.000 A 
ATOM     15  C   UNL     1     -14.760 -14.026 -20.833  0.00  0.00    +0.000 A 
ATOM     16  C   UNL     1     -15.991 -13.473 -20.490  0.00  0.00    +0.000 A 
ENDBRANCH  10  11
ENDBRANCH   1  10
TORSDOF 2
ENDMDL
MODEL 7
REMARK VINA RESULT:    -5.063     30.649     31.596
REMARK INTER + INTRA:          -5.785
REMARK INTER:                  -5.643
REMARK INTRA:                  -0.142
REMARK UNBOUND:                -0.129
REMARK  Name = 1550473
REMARK  2 active torsions:
REMARK  status: ('A' for Active; 'I' for Inactive)
REMARK    1  A    between atoms: N_1  and  C_4
REMARK    2  A    between atoms: C_4  and  C_5
REMARK                            x       y       z     vdW  Elec       q    Type
REMARK                         _______ _______ _______ _____ _____    ______ ____
ROOT
ATOM      1  N   UNL     1       7.805   2.195  -5.086  0.00  0.00    -0.354 N 
ATOM      2  N   UNL     1       7.373   1.107  -3.087  0.00  0.00    -0.372 N 
ATOM      3  N   UNL     1       7.997   3.315  -3.037  0.00  0.00    -0.372 N 
ATOM      4  C   UNL     1       7.729   2.216  -3.749  0.00  0.00    +0.166 C 
ATOM      5  H   UNL     1       7.619   1.322  -5.566  0.00  0.00    +0.163 HD
ATOM      6  H   UNL     1       7.304   1.094  -2.079  0.00  0.00    +0.159 HD
ATOM      7  H   UNL     1       7.143   0.248  -3.572  0.00  0.00    +0.159 HD
ATOM      8  H   UNL     1       8.276   4.182  -3.475  0.00  0.00    +0.159 HD
ATOM      9  H   UNL     1       7.944   3.318  -2.026  0.00  0.00    +0.159 HD
ENDROOT
BRANCH   1  10
ATOM     10  C   UNL     1       8.131   3.362  -5.904  0.00  0.00    +0.151 C 
BRANCH  10  11
ATOM     11  C   UNL     1       6.862   4.096  -6.239  0.00  0.00    -0.028 A 
ATOM     12  C   UNL     1       5.712   3.392  -6.625  0.00  0.00    +0.005 A 
ATOM     13  C   UNL     1       6.801   5.497  -6.166  0.00  0.00    +0.005 A 
ATOM     14  C   UNL     1       4.525   4.072  -6.907  0.00  0.00    +0.000 A 
ATOM     15  C   UNL     1       5.614   6.172  -6.449  0.00  0.00    +0.000 A 
ATOM     16  C   UNL     1       4.476   5.459  -6.817  0.00  0.00    +0.000 A 
ENDBRANCH  10  11
ENDBRANCH   1  10
TORSDOF 2
ENDMDL
MODEL 8
REMARK VINA RESULT:    -5.003     26.564     27.416
REMARK INTER + INTRA:          -5.718
REMARK INTER:                  -5.614
REMARK INTRA:                  -0.104
REMARK UNBOUND:                -0.129
REMARK  Name = 1550473
REMARK  2 active torsions:
REMARK  status: ('A' for Active; 'I' for Inactive)
REMARK    1  A    between atoms: N_1  and  C_4
REMARK    2  A    between atoms: C_4  and  C_5
REMARK                            x       y       z     vdW  Elec       q    Type
REMARK                         _______ _______ _______ _____ _____    ______ ____
ROOT
ATOM      1  N   UNL     1       6.553  -0.539  -9.811  0.00  0.00    -0.354 N 
ATOM      2  N   UNL     1       6.435  -1.999  -8.017  0.00  0.00    -0.372 N 
ATOM      3  N   UNL     1       6.356   0.258  -7.616  0.00  0.00    -0.372 N 
ATOM      4  C   UNL     1       6.449  -0.748  -8.492  0.00  0.00    +0.166 C 
ATOM      5  H   UNL     1       6.650  -1.344 -10.419  0.00  0.00    +0.163 HD
ATOM      6  H   UNL     1       6.354  -2.188  -7.027  0.00  0.00    +0.159 HD
ATOM      7  H   UNL     1       6.486  -2.803  -8.631  0.00  0.00    +0.159 HD
ATOM      8  H   UNL     1       6.366   1.226  -7.910  0.00  0.00    +0.159 HD
ATOM      9  H   UNL     1       6.286   0.090  -6.620  0.00  0.00    +0.159 HD
ENDROOT
BRANCH   1  10
ATOM     10  C   UNL     1       6.523   0.783 -10.434  0.00  0.00    +0.151 C 
BRANCH  10  11
ATOM     11  C   UNL     1       6.677   0.627 -11.922  0.00  0.00    -0.028 A 
ATOM     12  C   UNL     1       5.842  -0.243 -12.637  0.00  0.00    +0.005 A 
ATOM     13  C   UNL     1       7.652   1.353 -12.624  0.00  0.00    +0.005 A 
ATOM     14  C   UNL     1       5.964  -0.365 -14.024  0.00  0.00    +0.000 A 
ATOM     15  C   UNL     1       7.772   1.228 -14.008  0.00  0.00    +0.000 A 
ATOM     16  C   UNL     1       6.926   0.370 -14.708  0.00  0.00    +0.000 A 
ENDBRANCH  10  11
ENDBRANCH   1  10
TORSDOF 2
ENDMDL
MODEL 9
REMARK VINA RESULT:    -4.825     28.522     29.534
REMARK INTER + INTRA:          -5.519
REMARK INTER:                  -5.389
REMARK INTRA:                  -0.130
REMARK UNBOUND:                -0.129
REMARK  Name = 1550473
REMARK  2 active torsions:
REMARK  status: ('A' for Active; 'I' for Inactive)
REMARK    1  A    between atoms: N_1  and  C_4
REMARK    2  A    between atoms: C_4  and  C_5
REMARK                            x       y       z     vdW  Elec       q    Type
REMARK                         _______ _______ _______ _____ _____    ______ ____
ROOT
ATOM      1  N   UNL     1       6.559   0.901  -8.247  0.00  0.00    -0.354 N 
ATOM      2  N   UNL     1       6.230  -0.439 -10.107  0.00  0.00    -0.372 N 
ATOM      3  N   UNL     1       6.537  -1.435  -8.063  0.00  0.00    -0.372 N 
ATOM      4  C   UNL     1       6.444  -0.317  -8.791  0.00  0.00    +0.166 C 
ATOM      5  H   UNL     1       6.509   1.708  -8.858  0.00  0.00    +0.163 HD
ATOM      6  H   UNL     1       6.136  -1.345 -10.545  0.00  0.00    +0.159 HD
ATOM      7  H   UNL     1       6.136   0.370 -10.708  0.00  0.00    +0.159 HD
ATOM      8  H   UNL     1       6.703  -1.412  -7.065  0.00  0.00    +0.159 HD
ATOM      9  H   UNL     1       6.457  -2.351  -8.485  0.00  0.00    +0.159 HD
ENDROOT
BRANCH   1  10
ATOM     10  C   UNL     1       6.739   1.144  -6.816  0.00  0.00    +0.151 C 
BRANCH  10  11
ATOM     11  C   UNL     1       6.086   2.449  -6.454  0.00  0.00    -0.028 A 
ATOM     12  C   UNL     1       6.514   3.171  -5.330  0.00  0.00    +0.005 A 
ATOM     13  C   UNL     1       5.043   2.972  -7.233  0.00  0.00    +0.005 A 
ATOM     14  C   UNL     1       5.928   4.398  -5.010  0.00  0.00    +0.000 A 
ATOM     15  C   UNL     1       4.460   4.197  -6.909  0.00  0.00    +0.000 A 
ATOM     16  C   UNL     1       4.905   4.911  -5.799  0.00  0.00    +0.000 A 
ENDBRANCH  10  11
ENDBRANCH   1  10
TORSDOF 2
ENDMDL
