MODEL 1
REMARK VINA RESULT:    -5.807      0.000      0.000
REMARK INTER + INTRA:          -6.611
REMARK INTER:                  -6.486
REMARK INTRA:                  -0.125
REMARK UNBOUND:                -0.125
REMARK  Name = 1550473
REMARK  2 active torsions:
REMARK  status: ('A' for Active; 'I' for Inactive)
REMARK    1  A    between atoms: N_1  and  C_4
REMARK    2  A    between atoms: C_4  and  C_5
REMARK                            x       y       z     vdW  Elec       q    Type
REMARK                         _______ _______ _______ _____ _____    ______ ____
ROOT
ATOM      1  N   UNL     1      10.701  18.737  12.205  0.00  0.00    -0.354 N 
ATOM      2  N   UNL     1      11.626  20.521  13.355  0.00  0.00    -0.372 N 
ATOM      3  N   UNL     1      12.274  18.390  13.907  0.00  0.00    -0.372 N 
ATOM      4  C   UNL     1      11.529  19.202  13.149  0.00  0.00    +0.166 C 
ATOM      5  H   UNL     1      10.140  19.403  11.685  0.00  0.00    +0.163 HD
ATOM      6  H   UNL     1      12.245  20.902  14.059  0.00  0.00    +0.159 HD
ATOM      7  H   UNL     1      11.099  21.187  12.803  0.00  0.00    +0.159 HD
ATOM      8  H   UNL     1      12.242  17.384  13.805  0.00  0.00    +0.159 HD
ATOM      9  H   UNL     1      12.890  18.751  14.624  0.00  0.00    +0.159 HD
ENDROOT
BRANCH   1  10
ATOM     10  C   UNL     1      10.561  17.322  11.864  0.00  0.00    +0.151 C 
BRANCH  10  11
ATOM     11  C   UNL     1       9.106  16.947  11.910  0.00  0.00    -0.028 A 
ATOM     12  C   UNL     1       8.171  17.623  11.111  0.00  0.00    +0.005 A 
ATOM     13  C   UNL     1       8.655  15.913  12.745  0.00  0.00    +0.005 A 
ATOM     14  C   UNL     1       6.824  17.255  11.130  0.00  0.00    +0.000 A 
ATOM     15  C   UNL     1       7.309  15.549  12.762  0.00  0.00    +0.000 A 
ATOM     16  C   UNL     1       6.394  16.219  11.953  0.00  0.00    +0.000 A 
ENDBRANCH  10  11
ENDBRANCH   1  10
TORSDOF 2
ENDMDL
MODEL 2
REMARK VINA RESULT:    -5.274     31.073     32.357
REMARK INTER + INTRA:          -6.016
REMARK INTER:                  -5.872
REMARK INTRA:                  -0.144
REMARK UNBOUND:                -0.125
REMARK  Name = 1550473
REMARK  2 active torsions:
REMARK  status: ('A' for Active; 'I' for Inactive)
REMARK    1  A    between atoms: N_1  and  C_4
REMARK    2  A    between atoms: C_4  and  C_5
REMARK                            x       y       z     vdW  Elec       q    Type
REMARK                         _______ _______ _______ _____ _____    ______ ____
ROOT
ATOM      1  N   UNL     1      -0.324  -2.473 -11.931  0.00  0.00    -0.354 N 
ATOM      2  N   UNL     1       1.660  -2.642 -13.114  0.00  0.00    -0.372 N 
ATOM      3  N   UNL     1       0.345  -4.508 -12.881  0.00  0.00    -0.372 N 
ATOM      4  C   UNL     1       0.546  -3.209 -12.634  0.00  0.00    +0.166 C 
ATOM      5  H   UNL     1      -0.099  -1.501 -11.752  0.00  0.00    +0.163 HD
ATOM      6  H   UNL     1       2.333  -3.171 -13.651  0.00  0.00    +0.159 HD
ATOM      7  H   UNL     1       1.860  -1.659 -12.973  0.00  0.00    +0.159 HD
ATOM      8  H   UNL     1      -0.473  -4.996 -12.542  0.00  0.00    +0.159 HD
ATOM      9  H   UNL     1       1.013  -5.057 -13.407  0.00  0.00    +0.159 HD
ENDROOT
BRANCH   1  10
ATOM     10  C   UNL     1      -1.592  -2.981 -11.410  0.00  0.00    +0.151 C 
BRANCH  10  11
ATOM     11  C   UNL     1      -1.676  -2.680  -9.939  0.00  0.00    -0.028 A 
ATOM     12  C   UNL     1      -2.614  -3.338  -9.130  0.00  0.00    +0.005 A 
ATOM     13  C   UNL     1      -0.815  -1.743  -9.347  0.00  0.00    +0.005 A 
ATOM     14  C   UNL     1      -2.672  -3.081  -7.758  0.00  0.00    +0.000 A 
ATOM     15  C   UNL     1      -0.877  -1.488  -7.977  0.00  0.00    +0.000 A 
ATOM     16  C   UNL     1      -1.803  -2.159  -7.183  0.00  0.00    +0.000 A 
ENDBRANCH  10  11
ENDBRANCH   1  10
TORSDOF 2
ENDMDL
MODEL 3
REMARK VINA RESULT:    -5.264     29.927     30.988
REMARK INTER + INTRA:          -6.004
REMARK INTER:                  -5.836
REMARK INTRA:                  -0.168
REMARK UNBOUND:                -0.125
REMARK  Name = 1550473
REMARK  2 active torsions:
REMARK  status: ('A' for Active; 'I' for Inactive)
REMARK    1  A    between atoms: N_1  and  C_4
REMARK    2  A    between atoms: C_4  and  C_5
REMARK                            x       y       z     vdW  Elec       q    Type
REMARK                         _______ _______ _______ _____ _____    ______ ____
ROOT
ATOM      1  N   UNL     1       1.069  -0.844 -10.231  0.00  0.00    -0.354 N 
ATOM      2  N   UNL     1       3.306  -1.443 -10.211  0.00  0.00    -0.372 N 
ATOM      3  N   UNL     1       1.817  -2.756 -11.362  0.00  0.00    -0.372 N 
ATOM      4  C   UNL     1       2.048  -1.679 -10.603  0.00  0.00    +0.166 C 
ATOM      5  H   UNL     1       1.305  -0.063  -9.630  0.00  0.00    +0.163 HD
ATOM      6  H   UNL     1       4.067  -2.053 -10.479  0.00  0.00    +0.159 HD
ATOM      7  H   UNL     1       3.546  -0.636  -9.649  0.00  0.00    +0.159 HD
ATOM      8  H   UNL     1       0.889  -2.993 -11.686  0.00  0.00    +0.159 HD
ATOM      9  H   UNL     1       2.563  -3.385 -11.631  0.00  0.00    +0.159 HD
ENDROOT
BRANCH   1  10
ATOM     10  C   UNL     1      -0.325  -0.982 -10.649  0.00  0.00    +0.151 C 
BRANCH  10  11
ATOM     11  C   UNL     1      -1.096  -1.683  -9.564  0.00  0.00    -0.028 A 
ATOM     12  C   UNL     1      -1.997  -2.710  -9.881  0.00  0.00    +0.005 A 
ATOM     13  C   UNL     1      -0.924  -1.330  -8.217  0.00  0.00    +0.005 A 
ATOM     14  C   UNL     1      -2.691  -3.382  -8.872  0.00  0.00    +0.000 A 
ATOM     15  C   UNL     1      -1.619  -2.003  -7.212  0.00  0.00    +0.000 A 
ATOM     16  C   UNL     1      -2.501  -3.030  -7.540  0.00  0.00    +0.000 A 
ENDBRANCH  10  11
ENDBRANCH   1  10
TORSDOF 2
ENDMDL
MODEL 4
REMARK VINA RESULT:    -5.186     31.218     32.549
REMARK INTER + INTRA:          -5.917
REMARK INTER:                  -5.758
REMARK INTRA:                  -0.160
REMARK UNBOUND:                -0.125
REMARK  Name = 1550473
REMARK  2 active torsions:
REMARK  status: ('A' for Active; 'I' for Inactive)
REMARK    1  A    between atoms: N_1  and  C_4
REMARK    2  A    between atoms: C_4  and  C_5
REMARK                            x       y       z     vdW  Elec       q    Type
REMARK                         _______ _______ _______ _____ _____    ______ ____
ROOT
ATOM      1  N   UNL     1      -1.838  -2.131 -12.225  0.00  0.00    -0.354 N 
ATOM      2  N   UNL     1      -2.797  -0.564 -13.634  0.00  0.00    -0.372 N 
ATOM      3  N   UNL     1      -4.097  -2.274 -12.829  0.00  0.00    -0.372 N 
ATOM      4  C   UNL     1      -2.907  -1.668 -12.887  0.00  0.00    +0.166 C 
ATOM      5  H   UNL     1      -0.956  -1.644 -12.334  0.00  0.00    +0.163 HD
ATOM      6  H   UNL     1      -3.587  -0.189 -14.142  0.00  0.00    +0.159 HD
ATOM      7  H   UNL     1      -1.926  -0.052 -13.705  0.00  0.00    +0.159 HD
ATOM      8  H   UNL     1      -4.245  -3.115 -12.287  0.00  0.00    +0.159 HD
ATOM      9  H   UNL     1      -4.897  -1.921 -13.339  0.00  0.00    +0.159 HD
ENDROOT
BRANCH   1  10
ATOM     10  C   UNL     1      -1.864  -3.296 -11.341  0.00  0.00    +0.151 C 
BRANCH  10  11
ATOM     11  C   UNL     1      -1.750  -2.832  -9.915  0.00  0.00    -0.028 A 
ATOM     12  C   UNL     1      -0.788  -1.878  -9.552  0.00  0.00    +0.005 A 
ATOM     13  C   UNL     1      -2.604  -3.340  -8.924  0.00  0.00    +0.005 A 
ATOM     14  C   UNL     1      -0.702  -1.425  -8.233  0.00  0.00    +0.000 A 
ATOM     15  C   UNL     1      -2.513  -2.886  -7.608  0.00  0.00    +0.000 A 
ATOM     16  C   UNL     1      -1.564  -1.926  -7.264  0.00  0.00    +0.000 A 
ENDBRANCH  10  11
ENDBRANCH   1  10
TORSDOF 2
ENDMDL
MODEL 5
REMARK VINA RESULT:    -5.120     28.129     29.402
REMARK INTER + INTRA:          -5.844
REMARK INTER:                  -5.717
REMARK INTRA:                  -0.127
REMARK UNBOUND:                -0.125
REMARK  Name = 1550473
REMARK  2 active torsions:
REMARK  status: ('A' for Active; 'I' for Inactive)
REMARK    1  A    between atoms: N_1  and  C_4
REMARK    2  A    between atoms: C_4  and  C_5
REMARK                            x       y       z     vdW  Elec       q    Type
REMARK                         _______ _______ _______ _____ _____    ______ ____
ROOT
ATOM      1  N   UNL     1      -1.487   1.376  -8.117  0.00  0.00    -0.354 N 
ATOM      2  N   UNL     1      -2.191   3.312  -7.060  0.00  0.00    -0.372 N 
ATOM      3  N   UNL     1      -0.118   2.465  -6.558  0.00  0.00    -0.372 N 
ATOM      4  C   UNL     1      -1.258   2.371  -7.251  0.00  0.00    +0.166 C 
ATOM      5  H   UNL     1      -2.384   1.344  -8.589  0.00  0.00    +0.163 HD
ATOM      6  H   UNL     1      -2.045   4.078  -6.415  0.00  0.00    +0.159 HD
ATOM      7  H   UNL     1      -3.068   3.304  -7.567  0.00  0.00    +0.159 HD
ATOM      8  H   UNL     1       0.623   1.784  -6.652  0.00  0.00    +0.159 HD
ATOM      9  H   UNL     1       0.041   3.217  -5.899  0.00  0.00    +0.159 HD
ENDROOT
BRANCH   1  10
ATOM     10  C   UNL     1      -0.516   0.331  -8.437  0.00  0.00    +0.151 C 
BRANCH  10  11
ATOM     11  C   UNL     1      -1.225  -0.993  -8.513  0.00  0.00    -0.028 A 
ATOM     12  C   UNL     1      -1.783  -1.569  -7.362  0.00  0.00    +0.005 A 
ATOM     13  C   UNL     1      -1.348  -1.674  -9.734  0.00  0.00    +0.005 A 
ATOM     14  C   UNL     1      -2.468  -2.784  -7.437  0.00  0.00    +0.000 A 
ATOM     15  C   UNL     1      -2.032  -2.887  -9.805  0.00  0.00    +0.000 A 
ATOM     16  C   UNL     1      -2.594  -3.441  -8.657  0.00  0.00    +0.000 A 
ENDBRANCH  10  11
ENDBRANCH   1  10
TORSDOF 2
ENDMDL
MODEL 6
REMARK VINA RESULT:    -5.043     31.156     32.591
REMARK INTER + INTRA:          -5.758
REMARK INTER:                  -5.640
REMARK INTRA:                  -0.118
REMARK UNBOUND:                -0.125
REMARK  Name = 1550473
REMARK  2 active torsions:
REMARK  status: ('A' for Active; 'I' for Inactive)
REMARK    1  A    between atoms: N_1  and  C_4
REMARK    2  A    between atoms: C_4  and  C_5
REMARK                            x       y       z     vdW  Elec       q    Type
REMARK                         _______ _______ _______ _____ _____    ______ ____
ROOT
ATOM      1  N   UNL     1      -4.274  -1.543 -11.631  0.00  0.00    -0.354 N 
ATOM      2  N   UNL     1      -5.302  -2.369 -13.535  0.00  0.00    -0.372 N 
ATOM      3  N   UNL     1      -5.687  -0.191 -12.923  0.00  0.00    -0.372 N 
ATOM      4  C   UNL     1      -5.082  -1.360 -12.683  0.00  0.00    +0.166 C 
ATOM      5  H   UNL     1      -3.870  -2.461 -11.488  0.00  0.00    +0.163 HD
ATOM      6  H   UNL     1      -5.904  -2.259 -14.340  0.00  0.00    +0.159 HD
ATOM      7  H   UNL     1      -4.860  -3.272 -13.416  0.00  0.00    +0.159 HD
ATOM      8  H   UNL     1      -5.567   0.608 -12.315  0.00  0.00    +0.159 HD
ATOM      9  H   UNL     1      -6.302  -0.066 -13.717  0.00  0.00    +0.159 HD
ENDROOT
BRANCH   1  10
ATOM     10  C   UNL     1      -3.927  -0.493 -10.674  0.00  0.00    +0.151 C 
BRANCH  10  11
ATOM     11  C   UNL     1      -3.203  -1.110  -9.509  0.00  0.00    -0.028 A 
ATOM     12  C   UNL     1      -3.529  -2.403  -9.072  0.00  0.00    +0.005 A 
ATOM     13  C   UNL     1      -2.187  -0.410  -8.842  0.00  0.00    +0.005 A 
ATOM     14  C   UNL     1      -2.837  -2.988  -8.009  0.00  0.00    +0.000 A 
ATOM     15  C   UNL     1      -1.499  -0.998  -7.780  0.00  0.00    +0.000 A 
ATOM     16  C   UNL     1      -1.822  -2.287  -7.366  0.00  0.00    +0.000 A 
ENDBRANCH  10  11
ENDBRANCH   1  10
TORSDOF 2
ENDMDL
MODEL 7
REMARK VINA RESULT:    -4.994      9.187     10.535
REMARK INTER + INTRA:          -5.703
REMARK INTER:                  -5.573
REMARK INTRA:                  -0.130
REMARK UNBOUND:                -0.125
REMARK  Name = 1550473
REMARK  2 active torsions:
REMARK  status: ('A' for Active; 'I' for Inactive)
REMARK    1  A    between atoms: N_1  and  C_4
REMARK    2  A    between atoms: C_4  and  C_5
REMARK                            x       y       z     vdW  Elec       q    Type
REMARK                         _______ _______ _______ _____ _____    ______ ____
ROOT
ATOM      1  N   UNL     1       6.595   7.595  13.067  0.00  0.00    -0.354 N 
ATOM      2  N   UNL     1       5.358   5.728  13.657  0.00  0.00    -0.372 N 
ATOM      3  N   UNL     1       4.752   7.773  14.504  0.00  0.00    -0.372 N 
ATOM      4  C   UNL     1       5.575   7.046  13.741  0.00  0.00    +0.166 C 
ATOM      5  H   UNL     1       7.201   6.986  12.530  0.00  0.00    +0.163 HD
ATOM      6  H   UNL     1       4.594   5.286  14.151  0.00  0.00    +0.159 HD
ATOM      7  H   UNL     1       5.937   5.128  13.082  0.00  0.00    +0.159 HD
ATOM      8  H   UNL     1       4.866   8.771  14.614  0.00  0.00    +0.159 HD
ATOM      9  H   UNL     1       3.989   7.347  15.016  0.00  0.00    +0.159 HD
ENDROOT
BRANCH   1  10
ATOM     10  C   UNL     1       6.885   9.028  13.049  0.00  0.00    +0.151 C 
BRANCH  10  11
ATOM     11  C   UNL     1       8.308   9.247  13.483  0.00  0.00    -0.028 A 
ATOM     12  C   UNL     1       9.356   8.548  12.866  0.00  0.00    +0.005 A 
ATOM     13  C   UNL     1       8.616  10.156  14.506  0.00  0.00    +0.005 A 
ATOM     14  C   UNL     1      10.681   8.772  13.248  0.00  0.00    +0.000 A 
ATOM     15  C   UNL     1       9.940  10.377  14.886  0.00  0.00    +0.000 A 
ATOM     16  C   UNL     1      10.972   9.687  14.255  0.00  0.00    +0.000 A 
ENDBRANCH  10  11
ENDBRANCH   1  10
TORSDOF 2
ENDMDL
MODEL 8
REMARK VINA RESULT:    -4.822      7.956      8.659
REMARK INTER + INTRA:          -5.511
REMARK INTER:                  -5.383
REMARK INTRA:                  -0.128
REMARK UNBOUND:                -0.125
REMARK  Name = 1550473
REMARK  2 active torsions:
REMARK  status: ('A' for Active; 'I' for Inactive)
REMARK    1  A    between atoms: N_1  and  C_4
REMARK    2  A    between atoms: C_4  and  C_5
REMARK                            x       y       z     vdW  Elec       q    Type
REMARK                         _______ _______ _______ _____ _____    ______ ____
ROOT
ATOM      1  N   UNL     1      11.679   8.653  14.555  0.00  0.00    -0.354 N 
ATOM      2  N   UNL     1      13.375   9.252  16.014  0.00  0.00    -0.372 N 
ATOM      3  N   UNL     1      13.356  10.155  13.905  0.00  0.00    -0.372 N 
ATOM      4  C   UNL     1      12.793   9.351  14.813  0.00  0.00    +0.166 C 
ATOM      5  H   UNL     1      11.319   8.037  15.276  0.00  0.00    +0.163 HD
ATOM      6  H   UNL     1      14.215   9.769  16.239  0.00  0.00    +0.159 HD
ATOM      7  H   UNL     1      12.988   8.672  16.748  0.00  0.00    +0.159 HD
ATOM      8  H   UNL     1      12.969  10.269  12.978  0.00  0.00    +0.159 HD
ATOM      9  H   UNL     1      14.203  10.672  14.107  0.00  0.00    +0.159 HD
ENDROOT
BRANCH   1  10
ATOM     10  C   UNL     1      10.938   8.731  13.298  0.00  0.00    +0.151 C 
BRANCH  10  11
ATOM     11  C   UNL     1       9.524   9.156  13.587  0.00  0.00    -0.028 A 
ATOM     12  C   UNL     1       9.257  10.111  14.578  0.00  0.00    +0.005 A 
ATOM     13  C   UNL     1       8.449   8.612  12.868  0.00  0.00    +0.005 A 
ATOM     14  C   UNL     1       7.947  10.529  14.826  0.00  0.00    +0.000 A 
ATOM     15  C   UNL     1       7.142   9.031  13.119  0.00  0.00    +0.000 A 
ATOM     16  C   UNL     1       6.892   9.991  14.096  0.00  0.00    +0.000 A 
ENDBRANCH  10  11
ENDBRANCH   1  10
TORSDOF 2
ENDMDL
MODEL 9
REMARK VINA RESULT:    -4.702     17.578     19.265
REMARK INTER + INTRA:          -5.376
REMARK INTER:                  -5.256
REMARK INTRA:                  -0.120
REMARK UNBOUND:                -0.125
REMARK  Name = 1550473
REMARK  2 active torsions:
REMARK  status: ('A' for Active; 'I' for Inactive)
REMARK    1  A    between atoms: N_1  and  C_4
REMARK    2  A    between atoms: C_4  and  C_5
REMARK                            x       y       z     vdW  Elec       q    Type
REMARK                         _______ _______ _______ _____ _____    ______ ____
ROOT
ATOM      1  N   UNL     1      -2.416   8.171  -0.859  0.00  0.00    -0.354 N 
ATOM      2  N   UNL     1      -3.825   7.468  -2.558  0.00  0.00    -0.372 N 
ATOM      3  N   UNL     1      -4.738   8.437  -0.690  0.00  0.00    -0.372 N 
ATOM      4  C   UNL     1      -3.653   8.031  -1.356  0.00  0.00    +0.166 C 
ATOM      5  H   UNL     1      -1.637   7.815  -1.400  0.00  0.00    +0.163 HD
ATOM      6  H   UNL     1      -4.745   7.352  -2.960  0.00  0.00    +0.159 HD
ATOM      7  H   UNL     1      -3.041   7.154  -3.117  0.00  0.00    +0.159 HD
ATOM      8  H   UNL     1      -4.677   8.865   0.225  0.00  0.00    +0.159 HD
ATOM      9  H   UNL     1      -5.669   8.319  -1.070  0.00  0.00    +0.159 HD
ENDROOT
BRANCH   1  10
ATOM     10  C   UNL     1      -2.116   8.819   0.416  0.00  0.00    +0.151 C 
BRANCH  10  11
ATOM     11  C   UNL     1      -0.626   8.838   0.619  0.00  0.00    -0.028 A 
ATOM     12  C   UNL     1      -0.084   9.006   1.902  0.00  0.00    +0.005 A 
ATOM     13  C   UNL     1       0.249   8.684  -0.467  0.00  0.00    +0.005 A 
ATOM     14  C   UNL     1       1.299   8.993   2.095  0.00  0.00    +0.000 A 
ATOM     15  C   UNL     1       1.630   8.673  -0.270  0.00  0.00    +0.000 A 
ATOM     16  C   UNL     1       2.154   8.825   1.011  0.00  0.00    +0.000 A 
ENDBRANCH  10  11
ENDBRANCH   1  10
TORSDOF 2
ENDMDL
