MODEL 1
REMARK VINA RESULT:    -5.629      0.000      0.000
REMARK INTER + INTRA:          -6.424
REMARK INTER:                  -6.287
REMARK INTRA:                  -0.138
REMARK UNBOUND:                -0.138
REMARK  Name = 1550473
REMARK  2 active torsions:
REMARK  status: ('A' for Active; 'I' for Inactive)
REMARK    1  A    between atoms: N_1  and  C_4
REMARK    2  A    between atoms: C_4  and  C_5
REMARK                            x       y       z     vdW  Elec       q    Type
REMARK                         _______ _______ _______ _____ _____    ______ ____
ROOT
ATOM      1  N   UNL     1       6.098  -3.032  20.381  0.00  0.00    -0.354 N 
ATOM      2  N   UNL     1       6.806  -1.695  22.135  0.00  0.00    -0.372 N 
ATOM      3  N   UNL     1       8.265  -2.141  20.421  0.00  0.00    -0.372 N 
ATOM      4  C   UNL     1       7.054  -2.298  20.966  0.00  0.00    +0.166 C 
ATOM      5  H   UNL     1       5.211  -3.137  20.860  0.00  0.00    +0.163 HD
ATOM      6  H   UNL     1       7.507  -1.132  22.598  0.00  0.00    +0.159 HD
ATOM      7  H   UNL     1       5.903  -1.765  22.589  0.00  0.00    +0.159 HD
ATOM      8  H   UNL     1       8.517  -2.574  19.543  0.00  0.00    +0.159 HD
ATOM      9  H   UNL     1       8.983  -1.591  20.875  0.00  0.00    +0.159 HD
ENDROOT
BRANCH   1  10
ATOM     10  C   UNL     1       6.248  -3.685  19.082  0.00  0.00    +0.151 C 
BRANCH  10  11
ATOM     11  C   UNL     1       5.097  -3.292  18.198  0.00  0.00    -0.028 A 
ATOM     12  C   UNL     1       4.240  -2.245  18.569  0.00  0.00    +0.005 A 
ATOM     13  C   UNL     1       4.862  -3.958  16.985  0.00  0.00    +0.005 A 
ATOM     14  C   UNL     1       3.189  -1.859  17.733  0.00  0.00    +0.000 A 
ATOM     15  C   UNL     1       3.811  -3.570  16.155  0.00  0.00    +0.000 A 
ATOM     16  C   UNL     1       2.976  -2.519  16.528  0.00  0.00    +0.000 A 
ENDBRANCH  10  11
ENDBRANCH   1  10
TORSDOF 2
ENDMDL
MODEL 2
REMARK VINA RESULT:    -5.520      5.232      6.309
REMARK INTER + INTRA:          -6.303
REMARK INTER:                  -6.173
REMARK INTRA:                  -0.130
REMARK UNBOUND:                -0.138
REMARK  Name = 1550473
REMARK  2 active torsions:
REMARK  status: ('A' for Active; 'I' for Inactive)
REMARK    1  A    between atoms: N_1  and  C_4
REMARK    2  A    between atoms: C_4  and  C_5
REMARK                            x       y       z     vdW  Elec       q    Type
REMARK                         _______ _______ _______ _____ _____    ______ ____
ROOT
ATOM      1  N   UNL     1       3.553   2.333  15.751  0.00  0.00    -0.354 N 
ATOM      2  N   UNL     1       3.360   3.956  14.110  0.00  0.00    -0.372 N 
ATOM      3  N   UNL     1       2.466   4.364  16.183  0.00  0.00    -0.372 N 
ATOM      4  C   UNL     1       3.126   3.542  15.361  0.00  0.00    +0.166 C 
ATOM      5  H   UNL     1       4.021   1.745  15.071  0.00  0.00    +0.163 HD
ATOM      6  H   UNL     1       3.053   4.864  13.788  0.00  0.00    +0.159 HD
ATOM      7  H   UNL     1       3.869   3.385  13.446  0.00  0.00    +0.159 HD
ATOM      8  H   UNL     1       2.252   4.109  17.138  0.00  0.00    +0.159 HD
ATOM      9  H   UNL     1       2.140   5.272  15.876  0.00  0.00    +0.159 HD
ENDROOT
BRANCH   1  10
ATOM     10  C   UNL     1       3.396   1.810  17.107  0.00  0.00    +0.151 C 
BRANCH  10  11
ATOM     11  C   UNL     1       3.267   0.313  17.043  0.00  0.00    -0.028 A 
ATOM     12  C   UNL     1       2.700  -0.306  15.919  0.00  0.00    +0.005 A 
ATOM     13  C   UNL     1       3.715  -0.493  18.101  0.00  0.00    +0.005 A 
ATOM     14  C   UNL     1       2.607  -1.698  15.847  0.00  0.00    +0.000 A 
ATOM     15  C   UNL     1       3.619  -1.883  18.025  0.00  0.00    +0.000 A 
ATOM     16  C   UNL     1       3.068  -2.485  16.897  0.00  0.00    +0.000 A 
ENDBRANCH  10  11
ENDBRANCH   1  10
TORSDOF 2
ENDMDL
MODEL 3
REMARK VINA RESULT:    -5.357     10.680     12.107
REMARK INTER + INTRA:          -6.120
REMARK INTER:                  -6.000
REMARK INTRA:                  -0.120
REMARK UNBOUND:                -0.138
REMARK  Name = 1550473
REMARK  2 active torsions:
REMARK  status: ('A' for Active; 'I' for Inactive)
REMARK    1  A    between atoms: N_1  and  C_4
REMARK    2  A    between atoms: C_4  and  C_5
REMARK                            x       y       z     vdW  Elec       q    Type
REMARK                         _______ _______ _______ _____ _____    ______ ____
ROOT
ATOM      1  N   UNL     1       4.623   6.468  21.533  0.00  0.00    -0.354 N 
ATOM      2  N   UNL     1       3.929   5.838  19.415  0.00  0.00    -0.372 N 
ATOM      3  N   UNL     1       2.809   5.014  21.241  0.00  0.00    -0.372 N 
ATOM      4  C   UNL     1       3.790   5.776  20.745  0.00  0.00    +0.166 C 
ATOM      5  H   UNL     1       5.365   7.003  21.096  0.00  0.00    +0.163 HD
ATOM      6  H   UNL     1       3.313   5.329  18.796  0.00  0.00    +0.159 HD
ATOM      7  H   UNL     1       4.642   6.409  18.980  0.00  0.00    +0.159 HD
ATOM      8  H   UNL     1       2.654   4.920  22.236  0.00  0.00    +0.159 HD
ATOM      9  H   UNL     1       2.189   4.488  20.637  0.00  0.00    +0.159 HD
ENDROOT
BRANCH   1  10
ATOM     10  C   UNL     1       4.523   6.512  22.991  0.00  0.00    +0.151 C 
BRANCH  10  11
ATOM     11  C   UNL     1       4.702   7.932  23.453  0.00  0.00    -0.028 A 
ATOM     12  C   UNL     1       3.859   8.472  24.435  0.00  0.00    +0.005 A 
ATOM     13  C   UNL     1       5.717   8.740  22.918  0.00  0.00    +0.005 A 
ATOM     14  C   UNL     1       4.044   9.781  24.887  0.00  0.00    +0.000 A 
ATOM     15  C   UNL     1       5.898  10.046  23.370  0.00  0.00    +0.000 A 
ATOM     16  C   UNL     1       5.063  10.566  24.357  0.00  0.00    +0.000 A 
ENDBRANCH  10  11
ENDBRANCH   1  10
TORSDOF 2
ENDMDL
MODEL 4
REMARK VINA RESULT:    -5.128      5.057      6.096
REMARK INTER + INTRA:          -5.865
REMARK INTER:                  -5.722
REMARK INTRA:                  -0.143
REMARK UNBOUND:                -0.138
REMARK  Name = 1550473
REMARK  2 active torsions:
REMARK  status: ('A' for Active; 'I' for Inactive)
REMARK    1  A    between atoms: N_1  and  C_4
REMARK    2  A    between atoms: C_4  and  C_5
REMARK                            x       y       z     vdW  Elec       q    Type
REMARK                         _______ _______ _______ _____ _____    ______ ____
ROOT
ATOM      1  N   UNL     1       4.974   1.667  14.925  0.00  0.00    -0.354 N 
ATOM      2  N   UNL     1       6.296   2.504  13.218  0.00  0.00    -0.372 N 
ATOM      3  N   UNL     1       4.345   1.423  12.681  0.00  0.00    -0.372 N 
ATOM      4  C   UNL     1       5.195   1.858  13.617  0.00  0.00    +0.166 C 
ATOM      5  H   UNL     1       5.672   1.994  15.583  0.00  0.00    +0.163 HD
ATOM      6  H   UNL     1       6.488   2.667  12.238  0.00  0.00    +0.159 HD
ATOM      7  H   UNL     1       6.969   2.871  13.880  0.00  0.00    +0.159 HD
ATOM      8  H   UNL     1       3.498   0.923  12.917  0.00  0.00    +0.159 HD
ATOM      9  H   UNL     1       4.525   1.565  11.695  0.00  0.00    +0.159 HD
ENDROOT
BRANCH   1  10
ATOM     10  C   UNL     1       3.780   1.023  15.467  0.00  0.00    +0.151 C 
BRANCH  10  11
ATOM     11  C   UNL     1       4.194  -0.005  16.484  0.00  0.00    -0.028 A 
ATOM     12  C   UNL     1       3.229  -0.739  17.189  0.00  0.00    +0.005 A 
ATOM     13  C   UNL     1       5.551  -0.254  16.742  0.00  0.00    +0.005 A 
ATOM     14  C   UNL     1       3.614  -1.714  18.112  0.00  0.00    +0.000 A 
ATOM     15  C   UNL     1       5.931  -1.228  17.665  0.00  0.00    +0.000 A 
ATOM     16  C   UNL     1       4.963  -1.960  18.348  0.00  0.00    +0.000 A 
ENDBRANCH  10  11
ENDBRANCH   1  10
TORSDOF 2
ENDMDL
MODEL 5
REMARK VINA RESULT:    -4.880     16.311     17.229
REMARK INTER + INTRA:          -5.588
REMARK INTER:                  -5.452
REMARK INTRA:                  -0.136
REMARK UNBOUND:                -0.138
REMARK  Name = 1550473
REMARK  2 active torsions:
REMARK  status: ('A' for Active; 'I' for Inactive)
REMARK    1  A    between atoms: N_1  and  C_4
REMARK    2  A    between atoms: C_4  and  C_5
REMARK                            x       y       z     vdW  Elec       q    Type
REMARK                         _______ _______ _______ _____ _____    ______ ____
ROOT
ATOM      1  N   UNL     1      10.301   4.107   5.399  0.00  0.00    -0.354 N 
ATOM      2  N   UNL     1      10.809   1.853   5.549  0.00  0.00    -0.372 N 
ATOM      3  N   UNL     1       9.153   2.707   6.887  0.00  0.00    -0.372 N 
ATOM      4  C   UNL     1      10.082   2.904   5.946  0.00  0.00    +0.166 C 
ATOM      5  H   UNL     1      11.041   4.197   4.712  0.00  0.00    +0.163 HD
ATOM      6  H   UNL     1      10.665   0.932   5.941  0.00  0.00    +0.159 HD
ATOM      7  H   UNL     1      11.517   1.936   4.829  0.00  0.00    +0.159 HD
ATOM      8  H   UNL     1       8.575   3.461   7.235  0.00  0.00    +0.159 HD
ATOM      9  H   UNL     1       9.001   1.795   7.300  0.00  0.00    +0.159 HD
ENDROOT
BRANCH   1  10
ATOM     10  C   UNL     1       9.528   5.305   5.723  0.00  0.00    +0.151 C 
BRANCH  10  11
ATOM     11  C   UNL     1       9.267   6.078   4.460  0.00  0.00    -0.028 A 
ATOM     12  C   UNL     1       9.840   5.672   3.246  0.00  0.00    +0.005 A 
ATOM     13  C   UNL     1       8.443   7.214   4.469  0.00  0.00    +0.005 A 
ATOM     14  C   UNL     1       9.573   6.372   2.066  0.00  0.00    +0.000 A 
ATOM     15  C   UNL     1       8.180   7.910   3.290  0.00  0.00    +0.000 A 
ATOM     16  C   UNL     1       8.743   7.487   2.088  0.00  0.00    +0.000 A 
ENDBRANCH  10  11
ENDBRANCH   1  10
TORSDOF 2
ENDMDL
MODEL 6
REMARK VINA RESULT:    -4.780      5.406      6.609
REMARK INTER + INTRA:          -5.476
REMARK INTER:                  -5.341
REMARK INTRA:                  -0.135
REMARK UNBOUND:                -0.138
REMARK  Name = 1550473
REMARK  2 active torsions:
REMARK  status: ('A' for Active; 'I' for Inactive)
REMARK    1  A    between atoms: N_1  and  C_4
REMARK    2  A    between atoms: C_4  and  C_5
REMARK                            x       y       z     vdW  Elec       q    Type
REMARK                         _______ _______ _______ _____ _____    ______ ____
ROOT
ATOM      1  N   UNL     1       5.857   0.670  14.285  0.00  0.00    -0.354 N 
ATOM      2  N   UNL     1       7.307  -1.120  14.524  0.00  0.00    -0.372 N 
ATOM      3  N   UNL     1       5.211  -1.497  13.668  0.00  0.00    -0.372 N 
ATOM      4  C   UNL     1       6.113  -0.638  14.156  0.00  0.00    +0.166 C 
ATOM      5  H   UNL     1       6.572   1.263  14.690  0.00  0.00    +0.163 HD
ATOM      6  H   UNL     1       7.530  -2.102  14.435  0.00  0.00    +0.159 HD
ATOM      7  H   UNL     1       8.036  -0.517  14.886  0.00  0.00    +0.159 HD
ATOM      8  H   UNL     1       4.290  -1.198  13.379  0.00  0.00    +0.159 HD
ATOM      9  H   UNL     1       5.412  -2.485  13.583  0.00  0.00    +0.159 HD
ENDROOT
BRANCH   1  10
ATOM     10  C   UNL     1       4.608   1.304  13.865  0.00  0.00    +0.151 C 
BRANCH  10  11
ATOM     11  C   UNL     1       3.960   1.951  15.057  0.00  0.00    -0.028 A 
ATOM     12  C   UNL     1       3.397   3.232  14.954  0.00  0.00    +0.005 A 
ATOM     13  C   UNL     1       3.901   1.287  16.292  0.00  0.00    +0.005 A 
ATOM     14  C   UNL     1       2.769   3.822  16.053  0.00  0.00    +0.000 A 
ATOM     15  C   UNL     1       3.273   1.880  17.388  0.00  0.00    +0.000 A 
ATOM     16  C   UNL     1       2.705   3.146  17.267  0.00  0.00    +0.000 A 
ENDBRANCH  10  11
ENDBRANCH   1  10
TORSDOF 2
ENDMDL
MODEL 7
REMARK VINA RESULT:    -4.738     15.761     16.541
REMARK INTER + INTRA:          -5.429
REMARK INTER:                  -5.308
REMARK INTRA:                  -0.121
REMARK UNBOUND:                -0.138
REMARK  Name = 1550473
REMARK  2 active torsions:
REMARK  status: ('A' for Active; 'I' for Inactive)
REMARK    1  A    between atoms: N_1  and  C_4
REMARK    2  A    between atoms: C_4  and  C_5
REMARK                            x       y       z     vdW  Elec       q    Type
REMARK                         _______ _______ _______ _____ _____    ______ ____
ROOT
ATOM      1  N   UNL     1      10.380   4.723   6.597  0.00  0.00    -0.354 N 
ATOM      2  N   UNL     1      10.822   4.311   8.832  0.00  0.00    -0.372 N 
ATOM      3  N   UNL     1      10.794   2.548   7.364  0.00  0.00    -0.372 N 
ATOM      4  C   UNL     1      10.662   3.860   7.582  0.00  0.00    +0.166 C 
ATOM      5  H   UNL     1      10.262   5.702   6.832  0.00  0.00    +0.163 HD
ATOM      6  H   UNL     1      11.039   3.684   9.596  0.00  0.00    +0.159 HD
ATOM      7  H   UNL     1      10.750   5.295   9.057  0.00  0.00    +0.159 HD
ATOM      8  H   UNL     1      10.680   2.144   6.444  0.00  0.00    +0.159 HD
ATOM      9  H   UNL     1      11.000   1.903   8.117  0.00  0.00    +0.159 HD
ENDROOT
BRANCH   1  10
ATOM     10  C   UNL     1      10.239   4.342   5.192  0.00  0.00    +0.151 C 
BRANCH  10  11
ATOM     11  C   UNL     1       9.624   5.485   4.433  0.00  0.00    -0.028 A 
ATOM     12  C   UNL     1       8.776   6.396   5.080  0.00  0.00    +0.005 A 
ATOM     13  C   UNL     1       9.891   5.667   3.067  0.00  0.00    +0.005 A 
ATOM     14  C   UNL     1       8.228   7.475   4.382  0.00  0.00    +0.000 A 
ATOM     15  C   UNL     1       9.341   6.745   2.373  0.00  0.00    +0.000 A 
ATOM     16  C   UNL     1       8.512   7.650   3.031  0.00  0.00    +0.000 A 
ENDBRANCH  10  11
ENDBRANCH   1  10
TORSDOF 2
ENDMDL
MODEL 8
REMARK VINA RESULT:    -4.708      6.278      7.241
REMARK INTER + INTRA:          -5.396
REMARK INTER:                  -5.264
REMARK INTRA:                  -0.132
REMARK UNBOUND:                -0.138
REMARK  Name = 1550473
REMARK  2 active torsions:
REMARK  status: ('A' for Active; 'I' for Inactive)
REMARK    1  A    between atoms: N_1  and  C_4
REMARK    2  A    between atoms: C_4  and  C_5
REMARK                            x       y       z     vdW  Elec       q    Type
REMARK                         _______ _______ _______ _____ _____    ______ ____
ROOT
ATOM      1  N   UNL     1       6.107   0.612  12.490  0.00  0.00    -0.354 N 
ATOM      2  N   UNL     1       6.157   1.463  10.337  0.00  0.00    -0.372 N 
ATOM      3  N   UNL     1       5.941  -0.802  10.629  0.00  0.00    -0.372 N 
ATOM      4  C   UNL     1       6.068   0.416  11.166  0.00  0.00    +0.166 C 
ATOM      5  H   UNL     1       6.235   1.557  12.833  0.00  0.00    +0.163 HD
ATOM      6  H   UNL     1       6.126   1.347   9.333  0.00  0.00    +0.159 HD
ATOM      7  H   UNL     1       6.238   2.411  10.683  0.00  0.00    +0.159 HD
ATOM      8  H   UNL     1       5.875  -1.635  11.200  0.00  0.00    +0.159 HD
ATOM      9  H   UNL     1       5.921  -0.940   9.626  0.00  0.00    +0.159 HD
ENDROOT
BRANCH   1  10
ATOM     10  C   UNL     1       5.964  -0.455  13.479  0.00  0.00    +0.151 C 
BRANCH  10  11
ATOM     11  C   UNL     1       5.015  -0.004  14.555  0.00  0.00    -0.028 A 
ATOM     12  C   UNL     1       4.857   1.360  14.839  0.00  0.00    +0.005 A 
ATOM     13  C   UNL     1       4.267  -0.936  15.290  0.00  0.00    +0.005 A 
ATOM     14  C   UNL     1       3.953   1.781  15.817  0.00  0.00    +0.000 A 
ATOM     15  C   UNL     1       3.366  -0.512  16.267  0.00  0.00    +0.000 A 
ATOM     16  C   UNL     1       3.208   0.847  16.528  0.00  0.00    +0.000 A 
ENDBRANCH  10  11
ENDBRANCH   1  10
TORSDOF 2
ENDMDL
MODEL 9
REMARK VINA RESULT:    -4.595     17.200     19.059
REMARK INTER + INTRA:          -5.269
REMARK INTER:                  -5.120
REMARK INTRA:                  -0.150
REMARK UNBOUND:                -0.138
REMARK  Name = 1550473
REMARK  2 active torsions:
REMARK  status: ('A' for Active; 'I' for Inactive)
REMARK    1  A    between atoms: N_1  and  C_4
REMARK    2  A    between atoms: C_4  and  C_5
REMARK                            x       y       z     vdW  Elec       q    Type
REMARK                         _______ _______ _______ _____ _____    ______ ____
ROOT
ATOM      1  N   UNL     1      -5.644  -4.125   4.406  0.00  0.00    -0.354 N 
ATOM      2  N   UNL     1      -4.996  -4.243   6.627  0.00  0.00    -0.372 N 
ATOM      3  N   UNL     1      -5.958  -2.309   5.853  0.00  0.00    -0.372 N 
ATOM      4  C   UNL     1      -5.538  -3.555   5.614  0.00  0.00    +0.166 C 
ATOM      5  H   UNL     1      -5.279  -5.063   4.282  0.00  0.00    +0.163 HD
ATOM      6  H   UNL     1      -4.906  -3.841   7.550  0.00  0.00    +0.159 HD
ATOM      7  H   UNL     1      -4.674  -5.196   6.511  0.00  0.00    +0.159 HD
ATOM      8  H   UNL     1      -6.370  -1.735   5.130  0.00  0.00    +0.159 HD
ATOM      9  H   UNL     1      -5.865  -1.884   6.768  0.00  0.00    +0.159 HD
ENDROOT
BRANCH   1  10
ATOM     10  C   UNL     1      -6.267  -3.482   3.251  0.00  0.00    +0.151 C 
BRANCH  10  11
ATOM     11  C   UNL     1      -5.228  -3.279   2.182  0.00  0.00    -0.028 A 
ATOM     12  C   UNL     1      -5.285  -2.160   1.338  0.00  0.00    +0.005 A 
ATOM     13  C   UNL     1      -4.182  -4.198   2.013  0.00  0.00    +0.005 A 
ATOM     14  C   UNL     1      -4.304  -1.956   0.365  0.00  0.00    +0.000 A 
ATOM     15  C   UNL     1      -3.204  -3.991   1.040  0.00  0.00    +0.000 A 
ATOM     16  C   UNL     1      -3.264  -2.868   0.218  0.00  0.00    +0.000 A 
ENDBRANCH  10  11
ENDBRANCH   1  10
TORSDOF 2
ENDMDL
