MODEL 1
REMARK VINA RESULT:    -5.843      0.000      0.000
REMARK INTER + INTRA:          -6.698
REMARK INTER:                  -6.526
REMARK INTRA:                  -0.172
REMARK UNBOUND:                -0.172
REMARK  Name = 1550473
REMARK  2 active torsions:
REMARK  status: ('A' for Active; 'I' for Inactive)
REMARK    1  A    between atoms: N_1  and  C_4
REMARK    2  A    between atoms: C_4  and  C_5
REMARK                            x       y       z     vdW  Elec       q    Type
REMARK                         _______ _______ _______ _____ _____    ______ ____
ROOT
ATOM      1  N   UNL     1     -16.430 -13.348 -16.956  0.00  0.00    -0.354 N 
ATOM      2  N   UNL     1     -16.305 -11.036 -16.925  0.00  0.00    -0.372 N 
ATOM      3  N   UNL     1     -15.165 -12.230 -15.332  0.00  0.00    -0.372 N 
ATOM      4  C   UNL     1     -15.966 -12.220 -16.402  0.00  0.00    +0.166 C 
ATOM      5  H   UNL     1     -17.058 -13.273 -17.748  0.00  0.00    +0.163 HD
ATOM      6  H   UNL     1     -15.968 -10.168 -16.531  0.00  0.00    +0.159 HD
ATOM      7  H   UNL     1     -16.896 -10.965 -17.745  0.00  0.00    +0.159 HD
ATOM      8  H   UNL     1     -14.877 -13.091 -14.886  0.00  0.00    +0.159 HD
ATOM      9  H   UNL     1     -14.826 -11.371 -14.915  0.00  0.00    +0.159 HD
ENDROOT
BRANCH   1  10
ATOM     10  C   UNL     1     -16.078 -14.690 -16.496  0.00  0.00    +0.151 C 
BRANCH  10  11
ATOM     11  C   UNL     1     -15.186 -15.341 -17.517  0.00  0.00    -0.028 A 
ATOM     12  C   UNL     1     -13.793 -15.194 -17.443  0.00  0.00    +0.005 A 
ATOM     13  C   UNL     1     -15.727 -16.111 -18.558  0.00  0.00    +0.005 A 
ATOM     14  C   UNL     1     -12.962 -15.823 -18.374  0.00  0.00    +0.000 A 
ATOM     15  C   UNL     1     -14.894 -16.737 -19.486  0.00  0.00    +0.000 A 
ATOM     16  C   UNL     1     -13.512 -16.594 -19.392  0.00  0.00    +0.000 A 
ENDBRANCH  10  11
ENDBRANCH   1  10
TORSDOF 2
ENDMDL
MODEL 2
REMARK VINA RESULT:    -5.249     14.977     16.163
REMARK INTER + INTRA:          -6.034
REMARK INTER:                  -5.890
REMARK INTRA:                  -0.144
REMARK UNBOUND:                -0.172
REMARK  Name = 1550473
REMARK  2 active torsions:
REMARK  status: ('A' for Active; 'I' for Inactive)
REMARK    1  A    between atoms: N_1  and  C_4
REMARK    2  A    between atoms: C_4  and  C_5
REMARK                            x       y       z     vdW  Elec       q    Type
REMARK                         _______ _______ _______ _____ _____    ______ ____
ROOT
ATOM      1  N   UNL     1       1.055  -9.973 -18.961  0.00  0.00    -0.354 N 
ATOM      2  N   UNL     1      -0.132  -7.997 -18.736  0.00  0.00    -0.372 N 
ATOM      3  N   UNL     1       0.601  -8.619 -20.819  0.00  0.00    -0.372 N 
ATOM      4  C   UNL     1       0.517  -8.876 -19.510  0.00  0.00    +0.166 C 
ATOM      5  H   UNL     1       0.983 -10.094 -17.957  0.00  0.00    +0.163 HD
ATOM      6  H   UNL     1      -0.551  -7.162 -19.122  0.00  0.00    +0.159 HD
ATOM      7  H   UNL     1      -0.242  -8.144 -17.740  0.00  0.00    +0.159 HD
ATOM      8  H   UNL     1       1.082  -9.240 -21.457  0.00  0.00    +0.159 HD
ATOM      9  H   UNL     1       0.197  -7.783 -21.223  0.00  0.00    +0.159 HD
ENDROOT
BRANCH   1  10
ATOM     10  C   UNL     1       1.735 -11.019 -19.723  0.00  0.00    +0.151 C 
BRANCH  10  11
ATOM     11  C   UNL     1       1.011 -12.322 -19.524  0.00  0.00    -0.028 A 
ATOM     12  C   UNL     1      -0.014 -12.428 -18.572  0.00  0.00    +0.005 A 
ATOM     13  C   UNL     1       1.341 -13.452 -20.287  0.00  0.00    +0.005 A 
ATOM     14  C   UNL     1      -0.707 -13.630 -18.407  0.00  0.00    +0.000 A 
ATOM     15  C   UNL     1       0.647 -14.650 -20.119  0.00  0.00    +0.000 A 
ATOM     16  C   UNL     1      -0.379 -14.738 -19.180  0.00  0.00    +0.000 A 
ENDBRANCH  10  11
ENDBRANCH   1  10
TORSDOF 2
ENDMDL
MODEL 3
REMARK VINA RESULT:    -5.148     22.901     23.751
REMARK INTER + INTRA:          -5.922
REMARK INTER:                  -5.785
REMARK INTRA:                  -0.138
REMARK UNBOUND:                -0.172
REMARK  Name = 1550473
REMARK  2 active torsions:
REMARK  status: ('A' for Active; 'I' for Inactive)
REMARK    1  A    between atoms: N_1  and  C_4
REMARK    2  A    between atoms: C_4  and  C_5
REMARK                            x       y       z     vdW  Elec       q    Type
REMARK                         _______ _______ _______ _____ _____    ______ ____
ROOT
ATOM      1  N   UNL     1       6.642 -23.768 -15.006  0.00  0.00    -0.354 N 
ATOM      2  N   UNL     1       5.845 -22.100 -13.609  0.00  0.00    -0.372 N 
ATOM      3  N   UNL     1       6.617 -21.528 -15.693  0.00  0.00    -0.372 N 
ATOM      4  C   UNL     1       6.374 -22.475 -14.781  0.00  0.00    +0.166 C 
ATOM      5  H   UNL     1       6.463 -24.433 -14.262  0.00  0.00    +0.163 HD
ATOM      6  H   UNL     1       5.629 -21.132 -13.412  0.00  0.00    +0.159 HD
ATOM      7  H   UNL     1       5.624 -22.773 -12.885  0.00  0.00    +0.159 HD
ATOM      8  H   UNL     1       7.021 -21.743 -16.594  0.00  0.00    +0.159 HD
ATOM      9  H   UNL     1       6.419 -20.552 -15.510  0.00  0.00    +0.159 HD
ENDROOT
BRANCH   1  10
ATOM     10  C   UNL     1       7.169 -24.286 -16.267  0.00  0.00    +0.151 C 
BRANCH  10  11
ATOM     11  C   UNL     1       6.412 -25.531 -16.640  0.00  0.00    -0.028 A 
ATOM     12  C   UNL     1       5.085 -25.710 -16.221  0.00  0.00    +0.005 A 
ATOM     13  C   UNL     1       7.014 -26.532 -17.418  0.00  0.00    +0.005 A 
ATOM     14  C   UNL     1       4.372 -26.853 -16.593  0.00  0.00    +0.000 A 
ATOM     15  C   UNL     1       6.299 -27.672 -17.786  0.00  0.00    +0.000 A 
ATOM     16  C   UNL     1       4.977 -27.830 -17.376  0.00  0.00    +0.000 A 
ENDBRANCH  10  11
ENDBRANCH   1  10
TORSDOF 2
ENDMDL
MODEL 4
REMARK VINA RESULT:    -5.082     22.426     23.507
REMARK INTER + INTRA:          -5.848
REMARK INTER:                  -5.712
REMARK INTRA:                  -0.136
REMARK UNBOUND:                -0.172
REMARK  Name = 1550473
REMARK  2 active torsions:
REMARK  status: ('A' for Active; 'I' for Inactive)
REMARK    1  A    between atoms: N_1  and  C_4
REMARK    2  A    between atoms: C_4  and  C_5
REMARK                            x       y       z     vdW  Elec       q    Type
REMARK                         _______ _______ _______ _____ _____    ______ ____
ROOT
ATOM      1  N   UNL     1       6.473 -22.669 -16.157  0.00  0.00    -0.354 N 
ATOM      2  N   UNL     1       4.645 -23.866 -16.926  0.00  0.00    -0.372 N 
ATOM      3  N   UNL     1       5.167 -23.951 -14.693  0.00  0.00    -0.372 N 
ATOM      4  C   UNL     1       5.441 -23.488 -15.917  0.00  0.00    +0.166 C 
ATOM      5  H   UNL     1       6.645 -22.377 -17.112  0.00  0.00    +0.163 HD
ATOM      6  H   UNL     1       3.857 -24.480 -16.775  0.00  0.00    +0.159 HD
ATOM      7  H   UNL     1       4.792 -23.536 -17.872  0.00  0.00    +0.159 HD
ATOM      8  H   UNL     1       5.733 -23.708 -13.890  0.00  0.00    +0.159 HD
ATOM      9  H   UNL     1       4.389 -24.576 -14.524  0.00  0.00    +0.159 HD
ENDROOT
BRANCH   1  10
ATOM     10  C   UNL     1       7.367 -22.155 -15.120  0.00  0.00    +0.151 C 
BRANCH  10  11
ATOM     11  C   UNL     1       7.641 -20.701 -15.385  0.00  0.00    -0.028 A 
ATOM     12  C   UNL     1       6.679 -19.898 -16.014  0.00  0.00    +0.005 A 
ATOM     13  C   UNL     1       8.859 -20.118 -15.003  0.00  0.00    +0.005 A 
ATOM     14  C   UNL     1       6.922 -18.539 -16.233  0.00  0.00    +0.000 A 
ATOM     15  C   UNL     1       9.098 -18.762 -15.223  0.00  0.00    +0.000 A 
ATOM     16  C   UNL     1       8.128 -17.972 -15.836  0.00  0.00    +0.000 A 
ENDBRANCH  10  11
ENDBRANCH   1  10
TORSDOF 2
ENDMDL
MODEL 5
REMARK VINA RESULT:    -5.066     23.342     24.925
REMARK INTER + INTRA:          -5.830
REMARK INTER:                  -5.713
REMARK INTRA:                  -0.117
REMARK UNBOUND:                -0.172
REMARK  Name = 1550473
REMARK  2 active torsions:
REMARK  status: ('A' for Active; 'I' for Inactive)
REMARK    1  A    between atoms: N_1  and  C_4
REMARK    2  A    between atoms: C_4  and  C_5
REMARK                            x       y       z     vdW  Elec       q    Type
REMARK                         _______ _______ _______ _____ _____    ______ ____
ROOT
ATOM      1  N   UNL     1       7.726 -21.662 -15.462  0.00  0.00    -0.354 N 
ATOM      2  N   UNL     1       7.267 -23.794 -14.681  0.00  0.00    -0.372 N 
ATOM      3  N   UNL     1       6.010 -22.036 -13.912  0.00  0.00    -0.372 N 
ATOM      4  C   UNL     1       7.002 -22.482 -14.688  0.00  0.00    +0.166 C 
ATOM      5  H   UNL     1       8.485 -22.058 -16.005  0.00  0.00    +0.163 HD
ATOM      6  H   UNL     1       6.736 -24.437 -14.110  0.00  0.00    +0.159 HD
ATOM      7  H   UNL     1       7.996 -24.193 -15.260  0.00  0.00    +0.159 HD
ATOM      8  H   UNL     1       5.763 -21.056 -13.867  0.00  0.00    +0.159 HD
ATOM      9  H   UNL     1       5.474 -22.662 -13.324  0.00  0.00    +0.159 HD
ENDROOT
BRANCH   1  10
ATOM     10  C   UNL     1       7.484 -20.226 -15.584  0.00  0.00    +0.151 C 
BRANCH  10  11
ATOM     11  C   UNL     1       8.804 -19.506 -15.624  0.00  0.00    -0.028 A 
ATOM     12  C   UNL     1       9.326 -19.044 -16.840  0.00  0.00    +0.005 A 
ATOM     13  C   UNL     1       9.534 -19.278 -14.447  0.00  0.00    +0.005 A 
ATOM     14  C   UNL     1      10.538 -18.350 -16.874  0.00  0.00    +0.000 A 
ATOM     15  C   UNL     1      10.744 -18.585 -14.485  0.00  0.00    +0.000 A 
ATOM     16  C   UNL     1      11.244 -18.119 -15.698  0.00  0.00    +0.000 A 
ENDBRANCH  10  11
ENDBRANCH   1  10
TORSDOF 2
ENDMDL
MODEL 6
REMARK VINA RESULT:    -5.005     47.311     48.471
REMARK INTER + INTRA:          -5.761
REMARK INTER:                  -5.620
REMARK INTRA:                  -0.141
REMARK UNBOUND:                -0.172
REMARK  Name = 1550473
REMARK  2 active torsions:
REMARK  status: ('A' for Active; 'I' for Inactive)
REMARK    1  A    between atoms: N_1  and  C_4
REMARK    2  A    between atoms: C_4  and  C_5
REMARK                            x       y       z     vdW  Elec       q    Type
REMARK                         _______ _______ _______ _____ _____    ______ ____
ROOT
ATOM      1  N   UNL     1      19.589  -0.961  12.164  0.00  0.00    -0.354 N 
ATOM      2  N   UNL     1      19.082  -3.186  12.560  0.00  0.00    -0.372 N 
ATOM      3  N   UNL     1      18.191  -2.158  10.713  0.00  0.00    -0.372 N 
ATOM      4  C   UNL     1      18.956  -2.087  11.807  0.00  0.00    +0.166 C 
ATOM      5  H   UNL     1      20.130  -0.964  13.021  0.00  0.00    +0.163 HD
ATOM      6  H   UNL     1      18.619  -4.051  12.315  0.00  0.00    +0.159 HD
ATOM      7  H   UNL     1      19.660  -3.199  13.392  0.00  0.00    +0.159 HD
ATOM      8  H   UNL     1      18.050  -1.362  10.105  0.00  0.00    +0.159 HD
ATOM      9  H   UNL     1      17.710  -3.011  10.457  0.00  0.00    +0.159 HD
ENDROOT
BRANCH   1  10
ATOM     10  C   UNL     1      19.561   0.275  11.384  0.00  0.00    +0.151 C 
BRANCH  10  11
ATOM     11  C   UNL     1      20.965   0.791  11.230  0.00  0.00    -0.028 A 
ATOM     12  C   UNL     1      22.057   0.020  11.654  0.00  0.00    +0.005 A 
ATOM     13  C   UNL     1      21.210   2.048  10.656  0.00  0.00    +0.005 A 
ATOM     14  C   UNL     1      23.363   0.486  11.484  0.00  0.00    +0.000 A 
ATOM     15  C   UNL     1      22.515   2.510  10.488  0.00  0.00    +0.000 A 
ATOM     16  C   UNL     1      23.592   1.728  10.900  0.00  0.00    +0.000 A 
ENDBRANCH  10  11
ENDBRANCH   1  10
TORSDOF 2
ENDMDL
MODEL 7
REMARK VINA RESULT:    -4.961     47.746     48.836
REMARK INTER + INTRA:          -5.713
REMARK INTER:                  -5.611
REMARK INTRA:                  -0.101
REMARK UNBOUND:                -0.172
REMARK  Name = 1550473
REMARK  2 active torsions:
REMARK  status: ('A' for Active; 'I' for Inactive)
REMARK    1  A    between atoms: N_1  and  C_4
REMARK    2  A    between atoms: C_4  and  C_5
REMARK                            x       y       z     vdW  Elec       q    Type
REMARK                         _______ _______ _______ _____ _____    ______ ____
ROOT
ATOM      1  N   UNL     1      22.306   1.121   8.738  0.00  0.00    -0.354 N 
ATOM      2  N   UNL     1      22.265   0.422   6.530  0.00  0.00    -0.372 N 
ATOM      3  N   UNL     1      24.004  -0.242   7.871  0.00  0.00    -0.372 N 
ATOM      4  C   UNL     1      22.861   0.437   7.728  0.00  0.00    +0.166 C 
ATOM      5  H   UNL     1      21.455   1.640   8.557  0.00  0.00    +0.163 HD
ATOM      6  H   UNL     1      22.659  -0.087   5.750  0.00  0.00    +0.159 HD
ATOM      7  H   UNL     1      21.390   0.904   6.364  0.00  0.00    +0.159 HD
ATOM      8  H   UNL     1      24.507  -0.266   8.749  0.00  0.00    +0.159 HD
ATOM      9  H   UNL     1      24.420  -0.749   7.100  0.00  0.00    +0.159 HD
ENDROOT
BRANCH   1  10
ATOM     10  C   UNL     1      22.847   1.157  10.096  0.00  0.00    +0.151 C 
BRANCH  10  11
ATOM     11  C   UNL     1      21.709   1.255  11.075  0.00  0.00    -0.028 A 
ATOM     12  C   UNL     1      21.429   0.195  11.949  0.00  0.00    +0.005 A 
ATOM     13  C   UNL     1      20.912   2.408  11.136  0.00  0.00    +0.005 A 
ATOM     14  C   UNL     1      20.391   0.298  12.879  0.00  0.00    +0.000 A 
ATOM     15  C   UNL     1      19.877   2.507  12.066  0.00  0.00    +0.000 A 
ATOM     16  C   UNL     1      19.618   1.453  12.939  0.00  0.00    +0.000 A 
ENDBRANCH  10  11
ENDBRANCH   1  10
TORSDOF 2
ENDMDL
MODEL 8
REMARK VINA RESULT:    -4.886     14.854     16.399
REMARK INTER + INTRA:          -5.629
REMARK INTER:                  -5.510
REMARK INTRA:                  -0.119
REMARK UNBOUND:                -0.172
REMARK  Name = 1550473
REMARK  2 active torsions:
REMARK  status: ('A' for Active; 'I' for Inactive)
REMARK    1  A    between atoms: N_1  and  C_4
REMARK    2  A    between atoms: C_4  and  C_5
REMARK                            x       y       z     vdW  Elec       q    Type
REMARK                         _______ _______ _______ _____ _____    ______ ____
ROOT
ATOM      1  N   UNL     1      -4.099 -27.222 -17.882  0.00  0.00    -0.354 N 
ATOM      2  N   UNL     1      -3.531 -28.995 -16.504  0.00  0.00    -0.372 N 
ATOM      3  N   UNL     1      -2.743 -28.967 -18.659  0.00  0.00    -0.372 N 
ATOM      4  C   UNL     1      -3.460 -28.384 -17.693  0.00  0.00    +0.166 C 
ATOM      5  H   UNL     1      -4.651 -26.847 -17.119  0.00  0.00    +0.163 HD
ATOM      6  H   UNL     1      -3.056 -29.871 -16.332  0.00  0.00    +0.159 HD
ATOM      7  H   UNL     1      -4.045 -28.595 -15.729  0.00  0.00    +0.159 HD
ATOM      8  H   UNL     1      -2.655 -28.560 -19.581  0.00  0.00    +0.159 HD
ATOM      9  H   UNL     1      -2.270 -29.850 -18.509  0.00  0.00    +0.159 HD
ENDROOT
BRANCH   1  10
ATOM     10  C   UNL     1      -4.042 -26.449 -19.121  0.00  0.00    +0.151 C 
BRANCH  10  11
ATOM     11  C   UNL     1      -4.230 -24.992 -18.800  0.00  0.00    -0.028 A 
ATOM     12  C   UNL     1      -3.649 -24.004 -19.609  0.00  0.00    +0.005 A 
ATOM     13  C   UNL     1      -4.993 -24.592 -17.692  0.00  0.00    +0.005 A 
ATOM     14  C   UNL     1      -3.849 -22.650 -19.329  0.00  0.00    +0.000 A 
ATOM     15  C   UNL     1      -5.188 -23.239 -17.415  0.00  0.00    +0.000 A 
ATOM     16  C   UNL     1      -4.618 -22.269 -18.235  0.00  0.00    +0.000 A 
ENDBRANCH  10  11
ENDBRANCH   1  10
TORSDOF 2
ENDMDL
MODEL 9
REMARK VINA RESULT:    -4.880     24.212     25.556
REMARK INTER + INTRA:          -5.622
REMARK INTER:                  -5.452
REMARK INTRA:                  -0.170
REMARK UNBOUND:                -0.172
REMARK  Name = 1550473
REMARK  2 active torsions:
REMARK  status: ('A' for Active; 'I' for Inactive)
REMARK    1  A    between atoms: N_1  and  C_4
REMARK    2  A    between atoms: C_4  and  C_5
REMARK                            x       y       z     vdW  Elec       q    Type
REMARK                         _______ _______ _______ _____ _____    ______ ____
ROOT
ATOM      1  N   UNL     1       8.508 -26.288 -16.459  0.00  0.00    -0.354 N 
ATOM      2  N   UNL     1       9.278 -24.489 -17.699  0.00  0.00    -0.372 N 
ATOM      3  N   UNL     1       9.062 -26.531 -18.723  0.00  0.00    -0.372 N 
ATOM      4  C   UNL     1       8.944 -25.783 -17.621  0.00  0.00    +0.166 C 
ATOM      5  H   UNL     1       8.470 -25.675 -15.653  0.00  0.00    +0.163 HD
ATOM      6  H   UNL     1       9.608 -24.080 -18.563  0.00  0.00    +0.159 HD
ATOM      7  H   UNL     1       9.196 -23.869 -16.903  0.00  0.00    +0.159 HD
ATOM      8  H   UNL     1       8.832 -27.516 -18.729  0.00  0.00    +0.159 HD
ATOM      9  H   UNL     1       9.401 -26.142 -19.594  0.00  0.00    +0.159 HD
ENDROOT
BRANCH   1  10
ATOM     10  C   UNL     1       8.068 -27.671 -16.282  0.00  0.00    +0.151 C 
BRANCH  10  11
ATOM     11  C   UNL     1       6.582 -27.688 -16.053  0.00  0.00    -0.028 A 
ATOM     12  C   UNL     1       5.694 -27.675 -17.138  0.00  0.00    +0.005 A 
ATOM     13  C   UNL     1       6.056 -27.723 -14.752  0.00  0.00    +0.005 A 
ATOM     14  C   UNL     1       4.314 -27.721 -16.926  0.00  0.00    +0.000 A 
ATOM     15  C   UNL     1       4.677 -27.768 -14.545  0.00  0.00    +0.000 A 
ATOM     16  C   UNL     1       3.807 -27.770 -15.632  0.00  0.00    +0.000 A 
ENDBRANCH  10  11
ENDBRANCH   1  10
TORSDOF 2
ENDMDL
