MODEL 1
REMARK VINA RESULT:    -5.323      0.000      0.000
REMARK INTER + INTRA:          -6.087
REMARK INTER:                  -5.946
REMARK INTRA:                  -0.142
REMARK UNBOUND:                -0.142
REMARK  Name = 1550473
REMARK  2 active torsions:
REMARK  status: ('A' for Active; 'I' for Inactive)
REMARK    1  A    between atoms: N_1  and  C_4
REMARK    2  A    between atoms: C_4  and  C_5
REMARK                            x       y       z     vdW  Elec       q    Type
REMARK                         _______ _______ _______ _____ _____    ______ ____
ROOT
ATOM      1  N   UNL     1       8.153 -13.287  -3.023  0.00  0.00    -0.354 N 
ATOM      2  N   UNL     1       7.457 -11.097  -3.310  0.00  0.00    -0.372 N 
ATOM      3  N   UNL     1       9.305 -11.512  -2.016  0.00  0.00    -0.372 N 
ATOM      4  C   UNL     1       8.312 -11.979  -2.779  0.00  0.00    +0.166 C 
ATOM      5  H   UNL     1       7.362 -13.579  -3.586  0.00  0.00    +0.163 HD
ATOM      6  H   UNL     1       7.553 -10.104  -3.146  0.00  0.00    +0.159 HD
ATOM      7  H   UNL     1       6.694 -11.388  -3.909  0.00  0.00    +0.159 HD
ATOM      8  H   UNL     1       9.981 -12.127  -1.581  0.00  0.00    +0.159 HD
ATOM      9  H   UNL     1       9.411 -10.523  -1.830  0.00  0.00    +0.159 HD
ENDROOT
BRANCH   1  10
ATOM     10  C   UNL     1       9.061 -14.325  -2.537  0.00  0.00    +0.151 C 
BRANCH  10  11
ATOM     11  C   UNL     1       8.253 -15.434  -1.921  0.00  0.00    -0.028 A 
ATOM     12  C   UNL     1       8.887 -16.483  -1.240  0.00  0.00    +0.005 A 
ATOM     13  C   UNL     1       6.852 -15.439  -2.011  0.00  0.00    +0.005 A 
ATOM     14  C   UNL     1       8.136 -17.498  -0.642  0.00  0.00    +0.000 A 
ATOM     15  C   UNL     1       6.106 -16.454  -1.413  0.00  0.00    +0.000 A 
ATOM     16  C   UNL     1       6.748 -17.482  -0.726  0.00  0.00    +0.000 A 
ENDBRANCH  10  11
ENDBRANCH   1  10
TORSDOF 2
ENDMDL
MODEL 2
REMARK VINA RESULT:    -5.143     10.443     11.894
REMARK INTER + INTRA:          -5.886
REMARK INTER:                  -5.716
REMARK INTRA:                  -0.169
REMARK UNBOUND:                -0.142
REMARK  Name = 1550473
REMARK  2 active torsions:
REMARK  status: ('A' for Active; 'I' for Inactive)
REMARK    1  A    between atoms: N_1  and  C_4
REMARK    2  A    between atoms: C_4  and  C_5
REMARK                            x       y       z     vdW  Elec       q    Type
REMARK                         _______ _______ _______ _____ _____    ______ ____
ROOT
ATOM      1  N   UNL     1       0.110  -7.615  -5.841  0.00  0.00    -0.354 N 
ATOM      2  N   UNL     1      -2.030  -7.152  -5.086  0.00  0.00    -0.372 N 
ATOM      3  N   UNL     1      -1.051  -5.722  -6.590  0.00  0.00    -0.372 N 
ATOM      4  C   UNL     1      -0.976  -6.830  -5.845  0.00  0.00    +0.166 C 
ATOM      5  H   UNL     1       0.116  -8.425  -5.232  0.00  0.00    +0.163 HD
ATOM      6  H   UNL     1      -2.865  -6.581  -5.072  0.00  0.00    +0.159 HD
ATOM      7  H   UNL     1      -2.040  -7.987  -4.513  0.00  0.00    +0.159 HD
ATOM      8  H   UNL     1      -0.287  -5.420  -7.180  0.00  0.00    +0.159 HD
ATOM      9  H   UNL     1      -1.873  -5.131  -6.580  0.00  0.00    +0.159 HD
ENDROOT
BRANCH   1  10
ATOM     10  C   UNL     1       1.290  -7.382  -6.672  0.00  0.00    +0.151 C 
BRANCH  10  11
ATOM     11  C   UNL     1       1.259  -8.325  -7.843  0.00  0.00    -0.028 A 
ATOM     12  C   UNL     1       0.567  -7.983  -9.015  0.00  0.00    +0.005 A 
ATOM     13  C   UNL     1       1.924  -9.560  -7.790  0.00  0.00    +0.005 A 
ATOM     14  C   UNL     1       0.563  -8.845 -10.114  0.00  0.00    +0.000 A 
ATOM     15  C   UNL     1       1.916 -10.419  -8.889  0.00  0.00    +0.000 A 
ATOM     16  C   UNL     1       1.239 -10.060 -10.052  0.00  0.00    +0.000 A 
ENDBRANCH  10  11
ENDBRANCH   1  10
TORSDOF 2
ENDMDL
MODEL 3
REMARK VINA RESULT:    -4.985     13.122     14.371
REMARK INTER + INTRA:          -5.710
REMARK INTER:                  -5.586
REMARK INTRA:                  -0.124
REMARK UNBOUND:                -0.142
REMARK  Name = 1550473
REMARK  2 active torsions:
REMARK  status: ('A' for Active; 'I' for Inactive)
REMARK    1  A    between atoms: N_1  and  C_4
REMARK    2  A    between atoms: C_4  and  C_5
REMARK                            x       y       z     vdW  Elec       q    Type
REMARK                         _______ _______ _______ _____ _____    ______ ____
ROOT
ATOM      1  N   UNL     1      -6.061 -12.825   2.911  0.00  0.00    -0.354 N 
ATOM      2  N   UNL     1      -7.871 -13.341   4.261  0.00  0.00    -0.372 N 
ATOM      3  N   UNL     1      -7.015 -14.966   2.885  0.00  0.00    -0.372 N 
ATOM      4  C   UNL     1      -6.970 -13.710   3.342  0.00  0.00    +0.166 C 
ATOM      5  H   UNL     1      -6.099 -11.880   3.275  0.00  0.00    +0.163 HD
ATOM      6  H   UNL     1      -8.567 -13.988   4.608  0.00  0.00    +0.159 HD
ATOM      7  H   UNL     1      -7.878 -12.409   4.656  0.00  0.00    +0.159 HD
ATOM      8  H   UNL     1      -6.367 -15.305   2.187  0.00  0.00    +0.159 HD
ATOM      9  H   UNL     1      -7.711 -15.624   3.211  0.00  0.00    +0.159 HD
ENDROOT
BRANCH   1  10
ATOM     10  C   UNL     1      -5.003 -13.141   1.953  0.00  0.00    +0.151 C 
BRANCH  10  11
ATOM     11  C   UNL     1      -3.995 -12.025   1.949  0.00  0.00    -0.028 A 
ATOM     12  C   UNL     1      -2.836 -12.117   1.165  0.00  0.00    +0.005 A 
ATOM     13  C   UNL     1      -4.197 -10.871   2.721  0.00  0.00    +0.005 A 
ATOM     14  C   UNL     1      -1.913 -11.067   1.138  0.00  0.00    +0.000 A 
ATOM     15  C   UNL     1      -3.273  -9.827   2.692  0.00  0.00    +0.000 A 
ATOM     16  C   UNL     1      -2.133  -9.924   1.898  0.00  0.00    +0.000 A 
ENDBRANCH  10  11
ENDBRANCH   1  10
TORSDOF 2
ENDMDL
MODEL 4
REMARK VINA RESULT:    -4.963     11.926     13.075
REMARK INTER + INTRA:          -5.686
REMARK INTER:                  -5.540
REMARK INTRA:                  -0.145
REMARK UNBOUND:                -0.142
REMARK  Name = 1550473
REMARK  2 active torsions:
REMARK  status: ('A' for Active; 'I' for Inactive)
REMARK    1  A    between atoms: N_1  and  C_4
REMARK    2  A    between atoms: C_4  and  C_5
REMARK                            x       y       z     vdW  Elec       q    Type
REMARK                         _______ _______ _______ _____ _____    ______ ____
ROOT
ATOM      1  N   UNL     1      -3.310  -9.341   2.580  0.00  0.00    -0.354 N 
ATOM      2  N   UNL     1      -4.644  -7.869   3.769  0.00  0.00    -0.372 N 
ATOM      3  N   UNL     1      -5.319 -10.051   3.555  0.00  0.00    -0.372 N 
ATOM      4  C   UNL     1      -4.417  -9.099   3.294  0.00  0.00    +0.166 C 
ATOM      5  H   UNL     1      -2.681  -8.569   2.390  0.00  0.00    +0.163 HD
ATOM      6  H   UNL     1      -5.469  -7.657   4.314  0.00  0.00    +0.159 HD
ATOM      7  H   UNL     1      -3.991  -7.110   3.617  0.00  0.00    +0.159 HD
ATOM      8  H   UNL     1      -5.209 -10.999   3.220  0.00  0.00    +0.159 HD
ATOM      9  H   UNL     1      -6.157  -9.856   4.089  0.00  0.00    +0.159 HD
ENDROOT
BRANCH   1  10
ATOM     10  C   UNL     1      -2.942 -10.658   2.063  0.00  0.00    +0.151 C 
BRANCH  10  11
ATOM     11  C   UNL     1      -2.728 -10.560   0.577  0.00  0.00    -0.028 A 
ATOM     12  C   UNL     1      -3.822 -10.565  -0.301  0.00  0.00    +0.005 A 
ATOM     13  C   UNL     1      -1.435 -10.458   0.042  0.00  0.00    +0.005 A 
ATOM     14  C   UNL     1      -3.626 -10.444  -1.679  0.00  0.00    +0.000 A 
ATOM     15  C   UNL     1      -1.243 -10.338  -1.334  0.00  0.00    +0.000 A 
ATOM     16  C   UNL     1      -2.339 -10.329  -2.194  0.00  0.00    +0.000 A 
ENDBRANCH  10  11
ENDBRANCH   1  10
TORSDOF 2
ENDMDL
MODEL 5
REMARK VINA RESULT:    -4.944     11.292     12.162
REMARK INTER + INTRA:          -5.664
REMARK INTER:                  -5.541
REMARK INTRA:                  -0.124
REMARK UNBOUND:                -0.142
REMARK  Name = 1550473
REMARK  2 active torsions:
REMARK  status: ('A' for Active; 'I' for Inactive)
REMARK    1  A    between atoms: N_1  and  C_4
REMARK    2  A    between atoms: C_4  and  C_5
REMARK                            x       y       z     vdW  Elec       q    Type
REMARK                         _______ _______ _______ _____ _____    ______ ____
ROOT
ATOM      1  N   UNL     1      -2.785  -9.987  -2.056  0.00  0.00    -0.354 N 
ATOM      2  N   UNL     1      -1.759  -9.343  -4.029  0.00  0.00    -0.372 N 
ATOM      3  N   UNL     1      -3.277 -11.063  -4.079  0.00  0.00    -0.372 N 
ATOM      4  C   UNL     1      -2.615 -10.138  -3.376  0.00  0.00    +0.166 C 
ATOM      5  H   UNL     1      -2.231  -9.288  -1.576  0.00  0.00    +0.163 HD
ATOM      6  H   UNL     1      -1.613  -9.430  -5.026  0.00  0.00    +0.159 HD
ATOM      7  H   UNL     1      -1.241  -8.614  -3.555  0.00  0.00    +0.159 HD
ATOM      8  H   UNL     1      -3.933 -11.698  -3.644  0.00  0.00    +0.159 HD
ATOM      9  H   UNL     1      -3.136 -11.173  -5.075  0.00  0.00    +0.159 HD
ENDROOT
BRANCH   1  10
ATOM     10  C   UNL     1      -3.733 -10.765  -1.260  0.00  0.00    +0.151 C 
BRANCH  10  11
ATOM     11  C   UNL     1      -3.349 -10.671   0.191  0.00  0.00    -0.028 A 
ATOM     12  C   UNL     1      -4.304 -10.886   1.196  0.00  0.00    +0.005 A 
ATOM     13  C   UNL     1      -2.031 -10.372   0.568  0.00  0.00    +0.005 A 
ATOM     14  C   UNL     1      -3.941 -10.828   2.544  0.00  0.00    +0.000 A 
ATOM     15  C   UNL     1      -1.673 -10.315   1.915  0.00  0.00    +0.000 A 
ATOM     16  C   UNL     1      -2.628 -10.545   2.902  0.00  0.00    +0.000 A 
ENDBRANCH  10  11
ENDBRANCH   1  10
TORSDOF 2
ENDMDL
MODEL 6
REMARK VINA RESULT:    -4.853     11.756     13.000
REMARK INTER + INTRA:          -5.562
REMARK INTER:                  -5.440
REMARK INTRA:                  -0.123
REMARK UNBOUND:                -0.142
REMARK  Name = 1550473
REMARK  2 active torsions:
REMARK  status: ('A' for Active; 'I' for Inactive)
REMARK    1  A    between atoms: N_1  and  C_4
REMARK    2  A    between atoms: C_4  and  C_5
REMARK                            x       y       z     vdW  Elec       q    Type
REMARK                         _______ _______ _______ _____ _____    ______ ____
ROOT
ATOM      1  N   UNL     1      -4.824 -11.121   2.299  0.00  0.00    -0.354 N 
ATOM      2  N   UNL     1      -5.137  -9.114   3.412  0.00  0.00    -0.372 N 
ATOM      3  N   UNL     1      -6.233 -10.984   4.167  0.00  0.00    -0.372 N 
ATOM      4  C   UNL     1      -5.398 -10.421   3.287  0.00  0.00    +0.166 C 
ATOM      5  H   UNL     1      -4.224 -10.629   1.646  0.00  0.00    +0.163 HD
ATOM      6  H   UNL     1      -5.553  -8.561   4.149  0.00  0.00    +0.159 HD
ATOM      7  H   UNL     1      -4.502  -8.635   2.786  0.00  0.00    +0.159 HD
ATOM      8  H   UNL     1      -6.475 -11.965   4.123  0.00  0.00    +0.159 HD
ATOM      9  H   UNL     1      -6.668 -10.444   4.904  0.00  0.00    +0.159 HD
ENDROOT
BRANCH   1  10
ATOM     10  C   UNL     1      -4.999 -12.559   2.107  0.00  0.00    +0.151 C 
BRANCH  10  11
ATOM     11  C   UNL     1      -3.770 -13.120   1.445  0.00  0.00    -0.028 A 
ATOM     12  C   UNL     1      -2.951 -12.300   0.655  0.00  0.00    +0.005 A 
ATOM     13  C   UNL     1      -3.418 -14.468   1.608  0.00  0.00    +0.005 A 
ATOM     14  C   UNL     1      -1.793 -12.813   0.064  0.00  0.00    +0.000 A 
ATOM     15  C   UNL     1      -2.262 -14.977   1.016  0.00  0.00    +0.000 A 
ATOM     16  C   UNL     1      -1.449 -14.148   0.246  0.00  0.00    +0.000 A 
ENDBRANCH  10  11
ENDBRANCH   1  10
TORSDOF 2
ENDMDL
MODEL 7
REMARK VINA RESULT:    -4.632      3.317      4.838
REMARK INTER + INTRA:          -5.315
REMARK INTER:                  -5.221
REMARK INTRA:                  -0.095
REMARK UNBOUND:                -0.142
REMARK  Name = 1550473
REMARK  2 active torsions:
REMARK  status: ('A' for Active; 'I' for Inactive)
REMARK    1  A    between atoms: N_1  and  C_4
REMARK    2  A    between atoms: C_4  and  C_5
REMARK                            x       y       z     vdW  Elec       q    Type
REMARK                         _______ _______ _______ _____ _____    ______ ____
ROOT
ATOM      1  N   UNL     1       6.684 -16.328  -0.709  0.00  0.00    -0.354 N 
ATOM      2  N   UNL     1       8.609 -17.304   0.129  0.00  0.00    -0.372 N 
ATOM      3  N   UNL     1       8.803 -15.551  -1.339  0.00  0.00    -0.372 N 
ATOM      4  C   UNL     1       8.021 -16.386  -0.647  0.00  0.00    +0.166 C 
ATOM      5  H   UNL     1       6.147 -17.009  -0.184  0.00  0.00    +0.163 HD
ATOM      6  H   UNL     1       9.616 -17.370   0.198  0.00  0.00    +0.159 HD
ATOM      7  H   UNL     1       8.070 -17.954   0.688  0.00  0.00    +0.159 HD
ATOM      8  H   UNL     1       8.421 -14.840  -1.947  0.00  0.00    +0.159 HD
ATOM      9  H   UNL     1       9.813 -15.609  -1.291  0.00  0.00    +0.159 HD
ENDROOT
BRANCH   1  10
ATOM     10  C   UNL     1       5.944 -15.331  -1.481  0.00  0.00    +0.151 C 
BRANCH  10  11
ATOM     11  C   UNL     1       4.478 -15.665  -1.436  0.00  0.00    -0.028 A 
ATOM     12  C   UNL     1       3.592 -14.879  -0.684  0.00  0.00    +0.005 A 
ATOM     13  C   UNL     1       3.968 -16.761  -2.148  0.00  0.00    +0.005 A 
ATOM     14  C   UNL     1       2.226 -15.170  -0.666  0.00  0.00    +0.000 A 
ATOM     15  C   UNL     1       2.603 -17.049  -2.127  0.00  0.00    +0.000 A 
ATOM     16  C   UNL     1       1.732 -16.252  -1.388  0.00  0.00    +0.000 A 
ENDBRANCH  10  11
ENDBRANCH   1  10
TORSDOF 2
ENDMDL
MODEL 8
REMARK VINA RESULT:    -4.599      1.972      2.813
REMARK INTER + INTRA:          -5.279
REMARK INTER:                  -5.117
REMARK INTRA:                  -0.162
REMARK UNBOUND:                -0.142
REMARK  Name = 1550473
REMARK  2 active torsions:
REMARK  status: ('A' for Active; 'I' for Inactive)
REMARK    1  A    between atoms: N_1  and  C_4
REMARK    2  A    between atoms: C_4  and  C_5
REMARK                            x       y       z     vdW  Elec       q    Type
REMARK                         _______ _______ _______ _____ _____    ______ ____
ROOT
ATOM      1  N   UNL     1       8.694 -15.404  -1.443  0.00  0.00    -0.354 N 
ATOM      2  N   UNL     1      10.024 -13.927  -2.631  0.00  0.00    -0.372 N 
ATOM      3  N   UNL     1       7.744 -13.788  -2.850  0.00  0.00    -0.372 N 
ATOM      4  C   UNL     1       8.809 -14.382  -2.301  0.00  0.00    +0.166 C 
ATOM      5  H   UNL     1       9.541 -15.830  -1.085  0.00  0.00    +0.163 HD
ATOM      6  H   UNL     1      10.143 -13.155  -3.273  0.00  0.00    +0.159 HD
ATOM      7  H   UNL     1      10.868 -14.325  -2.237  0.00  0.00    +0.159 HD
ATOM      8  H   UNL     1       6.800 -14.088  -2.647  0.00  0.00    +0.159 HD
ATOM      9  H   UNL     1       7.843 -13.021  -3.504  0.00  0.00    +0.159 HD
ENDROOT
BRANCH   1  10
ATOM     10  C   UNL     1       7.416 -15.939  -0.977  0.00  0.00    +0.151 C 
BRANCH  10  11
ATOM     11  C   UNL     1       7.281 -17.363  -1.443  0.00  0.00    -0.028 A 
ATOM     12  C   UNL     1       7.352 -18.422  -0.525  0.00  0.00    +0.005 A 
ATOM     13  C   UNL     1       7.075 -17.659  -2.799  0.00  0.00    +0.005 A 
ATOM     14  C   UNL     1       7.197 -19.742  -0.953  0.00  0.00    +0.000 A 
ATOM     15  C   UNL     1       6.921 -18.979  -3.222  0.00  0.00    +0.000 A 
ATOM     16  C   UNL     1       6.980 -20.020  -2.299  0.00  0.00    +0.000 A 
ENDBRANCH  10  11
ENDBRANCH   1  10
TORSDOF 2
ENDMDL
MODEL 9
REMARK VINA RESULT:    -4.515     13.808     15.125
REMARK INTER + INTRA:          -5.185
REMARK INTER:                  -5.022
REMARK INTRA:                  -0.163
REMARK UNBOUND:                -0.142
REMARK  Name = 1550473
REMARK  2 active torsions:
REMARK  status: ('A' for Active; 'I' for Inactive)
REMARK    1  A    between atoms: N_1  and  C_4
REMARK    2  A    between atoms: C_4  and  C_5
REMARK                            x       y       z     vdW  Elec       q    Type
REMARK                         _______ _______ _______ _____ _____    ______ ____
ROOT
ATOM      1  N   UNL     1      -6.389 -13.946   1.093  0.00  0.00    -0.354 N 
ATOM      2  N   UNL     1      -8.597 -14.504   0.675  0.00  0.00    -0.372 N 
ATOM      3  N   UNL     1      -7.696 -15.006   2.724  0.00  0.00    -0.372 N 
ATOM      4  C   UNL     1      -7.546 -14.483   1.503  0.00  0.00    +0.166 C 
ATOM      5  H   UNL     1      -6.331 -13.593   0.145  0.00  0.00    +0.163 HD
ATOM      6  H   UNL     1      -9.484 -14.899   0.957  0.00  0.00    +0.159 HD
ATOM      7  H   UNL     1      -8.550 -14.109  -0.257  0.00  0.00    +0.159 HD
ATOM      8  H   UNL     1      -6.939 -15.027   3.395  0.00  0.00    +0.159 HD
ATOM      9  H   UNL     1      -8.572 -15.417   3.021  0.00  0.00    +0.159 HD
ENDROOT
BRANCH   1  10
ATOM     10  C   UNL     1      -5.200 -13.825   1.936  0.00  0.00    +0.151 C 
BRANCH  10  11
ATOM     11  C   UNL     1      -4.906 -12.368   2.165  0.00  0.00    -0.028 A 
ATOM     12  C   UNL     1      -5.604 -11.647   3.145  0.00  0.00    +0.005 A 
ATOM     13  C   UNL     1      -3.928 -11.705   1.409  0.00  0.00    +0.005 A 
ATOM     14  C   UNL     1      -5.310 -10.301   3.378  0.00  0.00    +0.000 A 
ATOM     15  C   UNL     1      -3.638 -10.361   1.645  0.00  0.00    +0.000 A 
ATOM     16  C   UNL     1      -4.328  -9.660   2.631  0.00  0.00    +0.000 A 
ENDBRANCH  10  11
ENDBRANCH   1  10
TORSDOF 2
ENDMDL
