MODEL 1
REMARK VINA RESULT:    -5.195      0.000      0.000
REMARK INTER + INTRA:          -5.895
REMARK INTER:                  -5.802
REMARK INTRA:                  -0.093
REMARK UNBOUND:                -0.093
REMARK  Name = 1550473
REMARK  2 active torsions:
REMARK  status: ('A' for Active; 'I' for Inactive)
REMARK    1  A    between atoms: N_1  and  C_4
REMARK    2  A    between atoms: C_4  and  C_5
REMARK                            x       y       z     vdW  Elec       q    Type
REMARK                         _______ _______ _______ _____ _____    ______ ____
ROOT
ATOM      1  N   UNL     1       4.501  18.315   9.149  0.00  0.00    -0.354 N 
ATOM      2  N   UNL     1       3.431  20.322   9.583  0.00  0.00    -0.372 N 
ATOM      3  N   UNL     1       4.922  19.505  11.123  0.00  0.00    -0.372 N 
ATOM      4  C   UNL     1       4.293  19.367   9.951  0.00  0.00    +0.166 C 
ATOM      5  H   UNL     1       3.971  18.254   8.287  0.00  0.00    +0.163 HD
ATOM      6  H   UNL     1       3.255  21.129  10.166  0.00  0.00    +0.159 HD
ATOM      7  H   UNL     1       2.936  20.282   8.700  0.00  0.00    +0.159 HD
ATOM      8  H   UNL     1       5.580  18.816  11.462  0.00  0.00    +0.159 HD
ATOM      9  H   UNL     1       4.751  20.300  11.726  0.00  0.00    +0.159 HD
ENDROOT
BRANCH   1  10
ATOM     10  C   UNL     1       5.459  17.247   9.432  0.00  0.00    +0.151 C 
BRANCH  10  11
ATOM     11  C   UNL     1       5.139  16.058   8.569  0.00  0.00    -0.028 A 
ATOM     12  C   UNL     1       5.635  15.974   7.260  0.00  0.00    +0.005 A 
ATOM     13  C   UNL     1       4.345  15.009   9.057  0.00  0.00    +0.005 A 
ATOM     14  C   UNL     1       5.362  14.856   6.468  0.00  0.00    +0.000 A 
ATOM     15  C   UNL     1       4.074  13.894   8.263  0.00  0.00    +0.000 A 
ATOM     16  C   UNL     1       4.585  13.817   6.970  0.00  0.00    +0.000 A 
ENDBRANCH  10  11
ENDBRANCH   1  10
TORSDOF 2
ENDMDL
MODEL 2
REMARK VINA RESULT:    -5.194     32.282     33.463
REMARK INTER + INTRA:          -5.893
REMARK INTER:                  -5.776
REMARK INTRA:                  -0.117
REMARK UNBOUND:                -0.093
REMARK  Name = 1550473
REMARK  2 active torsions:
REMARK  status: ('A' for Active; 'I' for Inactive)
REMARK    1  A    between atoms: N_1  and  C_4
REMARK    2  A    between atoms: C_4  and  C_5
REMARK                            x       y       z     vdW  Elec       q    Type
REMARK                         _______ _______ _______ _____ _____    ______ ____
ROOT
ATOM      1  N   UNL     1      -1.359 -10.438  -9.092  0.00  0.00    -0.354 N 
ATOM      2  N   UNL     1      -1.544  -9.861  -6.856  0.00  0.00    -0.372 N 
ATOM      3  N   UNL     1      -0.431 -11.788  -7.416  0.00  0.00    -0.372 N 
ATOM      4  C   UNL     1      -1.109 -10.702  -7.802  0.00  0.00    +0.166 C 
ATOM      5  H   UNL     1      -1.905  -9.613  -9.317  0.00  0.00    +0.163 HD
ATOM      6  H   UNL     1      -1.368 -10.032  -5.875  0.00  0.00    +0.159 HD
ATOM      7  H   UNL     1      -2.049  -9.014  -7.087  0.00  0.00    +0.159 HD
ATOM      8  H   UNL     1      -0.081 -12.465  -8.081  0.00  0.00    +0.159 HD
ATOM      9  H   UNL     1      -0.255 -11.983  -6.439  0.00  0.00    +0.159 HD
ENDROOT
BRANCH   1  10
ATOM     10  C   UNL     1      -0.884 -11.260 -10.202  0.00  0.00    +0.151 C 
BRANCH  10  11
ATOM     11  C   UNL     1      -0.015 -10.421 -11.099  0.00  0.00    -0.028 A 
ATOM     12  C   UNL     1       0.703  -9.334 -10.579  0.00  0.00    +0.005 A 
ATOM     13  C   UNL     1       0.098 -10.712 -12.467  0.00  0.00    +0.005 A 
ATOM     14  C   UNL     1       1.533  -8.573 -11.406  0.00  0.00    +0.000 A 
ATOM     15  C   UNL     1       0.928  -9.949 -13.288  0.00  0.00    +0.000 A 
ATOM     16  C   UNL     1       1.647  -8.881 -12.757  0.00  0.00    +0.000 A 
ENDBRANCH  10  11
ENDBRANCH   1  10
TORSDOF 2
ENDMDL
MODEL 3
REMARK VINA RESULT:    -5.057     37.930     38.927
REMARK INTER + INTRA:          -5.741
REMARK INTER:                  -5.645
REMARK INTRA:                  -0.096
REMARK UNBOUND:                -0.093
REMARK  Name = 1550473
REMARK  2 active torsions:
REMARK  status: ('A' for Active; 'I' for Inactive)
REMARK    1  A    between atoms: N_1  and  C_4
REMARK    2  A    between atoms: C_4  and  C_5
REMARK                            x       y       z     vdW  Elec       q    Type
REMARK                         _______ _______ _______ _____ _____    ______ ____
ROOT
ATOM      1  N   UNL     1      -6.422 -14.517 -11.761  0.00  0.00    -0.354 N 
ATOM      2  N   UNL     1      -8.431 -13.677 -10.972  0.00  0.00    -0.372 N 
ATOM      3  N   UNL     1      -8.293 -15.904 -11.507  0.00  0.00    -0.372 N 
ATOM      4  C   UNL     1      -7.703 -14.707 -11.419  0.00  0.00    +0.166 C 
ATOM      5  H   UNL     1      -6.042 -13.579 -11.700  0.00  0.00    +0.163 HD
ATOM      6  H   UNL     1      -9.399 -13.791 -10.704  0.00  0.00    +0.159 HD
ATOM      7  H   UNL     1      -8.035 -12.750 -10.869  0.00  0.00    +0.159 HD
ATOM      8  H   UNL     1      -7.800 -16.721 -11.843  0.00  0.00    +0.159 HD
ATOM      9  H   UNL     1      -9.265 -16.036 -11.254  0.00  0.00    +0.159 HD
ENDROOT
BRANCH   1  10
ATOM     10  C   UNL     1      -5.527 -15.583 -12.208  0.00  0.00    +0.151 C 
BRANCH  10  11
ATOM     11  C   UNL     1      -4.103 -15.144 -12.012  0.00  0.00    -0.028 A 
ATOM     12  C   UNL     1      -3.558 -14.120 -12.800  0.00  0.00    +0.005 A 
ATOM     13  C   UNL     1      -3.294 -15.744 -11.035  0.00  0.00    +0.005 A 
ATOM     14  C   UNL     1      -2.244 -13.691 -12.597  0.00  0.00    +0.000 A 
ATOM     15  C   UNL     1      -1.982 -15.314 -10.836  0.00  0.00    +0.000 A 
ATOM     16  C   UNL     1      -1.458 -14.285 -11.616  0.00  0.00    +0.000 A 
ENDBRANCH  10  11
ENDBRANCH   1  10
TORSDOF 2
ENDMDL
MODEL 4
REMARK VINA RESULT:    -5.013     29.939     31.995
REMARK INTER + INTRA:          -5.692
REMARK INTER:                  -5.567
REMARK INTRA:                  -0.124
REMARK UNBOUND:                -0.093
REMARK  Name = 1550473
REMARK  2 active torsions:
REMARK  status: ('A' for Active; 'I' for Inactive)
REMARK    1  A    between atoms: N_1  and  C_4
REMARK    2  A    between atoms: C_4  and  C_5
REMARK                            x       y       z     vdW  Elec       q    Type
REMARK                         _______ _______ _______ _____ _____    ______ ____
ROOT
ATOM      1  N   UNL     1       1.119  -7.982  -8.591  0.00  0.00    -0.354 N 
ATOM      2  N   UNL     1       2.149  -6.694  -6.965  0.00  0.00    -0.372 N 
ATOM      3  N   UNL     1       0.697  -8.348  -6.315  0.00  0.00    -0.372 N 
ATOM      4  C   UNL     1       1.313  -7.685  -7.299  0.00  0.00    +0.166 C 
ATOM      5  H   UNL     1       1.593  -7.422  -9.290  0.00  0.00    +0.163 HD
ATOM      6  H   UNL     1       2.318  -6.449  -5.998  0.00  0.00    +0.159 HD
ATOM      7  H   UNL     1       2.657  -6.166  -7.664  0.00  0.00    +0.159 HD
ATOM      8  H   UNL     1       0.049  -9.102  -6.501  0.00  0.00    +0.159 HD
ATOM      9  H   UNL     1       0.844  -8.110  -5.342  0.00  0.00    +0.159 HD
ENDROOT
BRANCH   1  10
ATOM     10  C   UNL     1       0.271  -9.076  -9.060  0.00  0.00    +0.151 C 
BRANCH  10  11
ATOM     11  C   UNL     1       0.565  -9.339 -10.511  0.00  0.00    -0.028 A 
ATOM     12  C   UNL     1      -0.106 -10.359 -11.201  0.00  0.00    +0.005 A 
ATOM     13  C   UNL     1       1.510  -8.566 -11.204  0.00  0.00    +0.005 A 
ATOM     14  C   UNL     1       0.145 -10.583 -12.556  0.00  0.00    +0.000 A 
ATOM     15  C   UNL     1       1.758  -8.794 -12.558  0.00  0.00    +0.000 A 
ATOM     16  C   UNL     1       1.074  -9.801 -13.234  0.00  0.00    +0.000 A 
ENDBRANCH  10  11
ENDBRANCH   1  10
TORSDOF 2
ENDMDL
MODEL 5
REMARK VINA RESULT:    -5.003     38.263     38.951
REMARK INTER + INTRA:          -5.681
REMARK INTER:                  -5.564
REMARK INTRA:                  -0.117
REMARK UNBOUND:                -0.093
REMARK  Name = 1550473
REMARK  2 active torsions:
REMARK  status: ('A' for Active; 'I' for Inactive)
REMARK    1  A    between atoms: N_1  and  C_4
REMARK    2  A    between atoms: C_4  and  C_5
REMARK                            x       y       z     vdW  Elec       q    Type
REMARK                         _______ _______ _______ _____ _____    ______ ____
ROOT
ATOM      1  N   UNL     1      -6.569 -14.158 -11.529  0.00  0.00    -0.354 N 
ATOM      2  N   UNL     1      -8.756 -13.569 -11.045  0.00  0.00    -0.372 N 
ATOM      3  N   UNL     1      -8.222 -15.793 -11.230  0.00  0.00    -0.372 N 
ATOM      4  C   UNL     1      -7.835 -14.513 -11.272  0.00  0.00    +0.166 C 
ATOM      5  H   UNL     1      -6.347 -13.170 -11.577  0.00  0.00    +0.163 HD
ATOM      6  H   UNL     1      -9.719 -13.807 -10.845  0.00  0.00    +0.159 HD
ATOM      7  H   UNL     1      -8.521 -12.584 -11.048  0.00  0.00    +0.159 HD
ATOM      8  H   UNL     1      -7.576 -16.553 -11.398  0.00  0.00    +0.159 HD
ATOM      9  H   UNL     1      -9.183 -16.050 -11.043  0.00  0.00    +0.159 HD
ENDROOT
BRANCH   1  10
ATOM     10  C   UNL     1      -5.479 -15.110 -11.736  0.00  0.00    +0.151 C 
BRANCH  10  11
ATOM     11  C   UNL     1      -4.418 -14.464 -12.584  0.00  0.00    -0.028 A 
ATOM     12  C   UNL     1      -4.747 -13.888 -13.820  0.00  0.00    +0.005 A 
ATOM     13  C   UNL     1      -3.083 -14.420 -12.154  0.00  0.00    +0.005 A 
ATOM     14  C   UNL     1      -3.767 -13.261 -14.594  0.00  0.00    +0.000 A 
ATOM     15  C   UNL     1      -2.107 -13.794 -12.931  0.00  0.00    +0.000 A 
ATOM     16  C   UNL     1      -2.450 -13.213 -14.149  0.00  0.00    +0.000 A 
ENDBRANCH  10  11
ENDBRANCH   1  10
TORSDOF 2
ENDMDL
MODEL 6
REMARK VINA RESULT:    -4.971      4.901      6.516
REMARK INTER + INTRA:          -5.645
REMARK INTER:                  -5.528
REMARK INTRA:                  -0.117
REMARK UNBOUND:                -0.093
REMARK  Name = 1550473
REMARK  2 active torsions:
REMARK  status: ('A' for Active; 'I' for Inactive)
REMARK    1  A    between atoms: N_1  and  C_4
REMARK    2  A    between atoms: C_4  and  C_5
REMARK                            x       y       z     vdW  Elec       q    Type
REMARK                         _______ _______ _______ _____ _____    ______ ____
ROOT
ATOM      1  N   UNL     1       2.153  13.330   6.103  0.00  0.00    -0.354 N 
ATOM      2  N   UNL     1       2.457  15.217   4.795  0.00  0.00    -0.372 N 
ATOM      3  N   UNL     1       2.921  15.337   7.039  0.00  0.00    -0.372 N 
ATOM      4  C   UNL     1       2.509  14.617   5.990  0.00  0.00    +0.166 C 
ATOM      5  H   UNL     1       1.821  12.848   5.276  0.00  0.00    +0.163 HD
ATOM      6  H   UNL     1       2.722  16.186   4.678  0.00  0.00    +0.159 HD
ATOM      7  H   UNL     1       2.168  14.720   3.961  0.00  0.00    +0.159 HD
ATOM      8  H   UNL     1       2.977  14.944   7.969  0.00  0.00    +0.159 HD
ATOM      9  H   UNL     1       3.180  16.311   6.944  0.00  0.00    +0.159 HD
ENDROOT
BRANCH   1  10
ATOM     10  C   UNL     1       2.225  12.568   7.349  0.00  0.00    +0.151 C 
BRANCH  10  11
ATOM     11  C   UNL     1       1.705  11.179   7.105  0.00  0.00    -0.028 A 
ATOM     12  C   UNL     1       1.136  10.438   8.152  0.00  0.00    +0.005 A 
ATOM     13  C   UNL     1       1.773  10.599   5.829  0.00  0.00    +0.005 A 
ATOM     14  C   UNL     1       0.625   9.159   7.919  0.00  0.00    +0.000 A 
ATOM     15  C   UNL     1       1.263   9.321   5.602  0.00  0.00    +0.000 A 
ATOM     16  C   UNL     1       0.687   8.602   6.646  0.00  0.00    +0.000 A 
ENDBRANCH  10  11
ENDBRANCH   1  10
TORSDOF 2
ENDMDL
MODEL 7
REMARK VINA RESULT:    -4.925      8.710     10.541
REMARK INTER + INTRA:          -5.594
REMARK INTER:                  -5.485
REMARK INTRA:                  -0.109
REMARK UNBOUND:                -0.093
REMARK  Name = 1550473
REMARK  2 active torsions:
REMARK  status: ('A' for Active; 'I' for Inactive)
REMARK    1  A    between atoms: N_1  and  C_4
REMARK    2  A    between atoms: C_4  and  C_5
REMARK                            x       y       z     vdW  Elec       q    Type
REMARK                         _______ _______ _______ _____ _____    ______ ____
ROOT
ATOM      1  N   UNL     1       1.749   8.198   3.786  0.00  0.00    -0.354 N 
ATOM      2  N   UNL     1       2.924   7.758   1.840  0.00  0.00    -0.372 N 
ATOM      3  N   UNL     1       0.970   6.622   2.236  0.00  0.00    -0.372 N 
ATOM      4  C   UNL     1       1.871   7.527   2.633  0.00  0.00    +0.166 C 
ATOM      5  H   UNL     1       2.482   8.848   4.045  0.00  0.00    +0.163 HD
ATOM      6  H   UNL     1       3.041   7.269   0.962  0.00  0.00    +0.159 HD
ATOM      7  H   UNL     1       3.631   8.442   2.079  0.00  0.00    +0.159 HD
ATOM      8  H   UNL     1       0.155   6.398   2.792  0.00  0.00    +0.159 HD
ATOM      9  H   UNL     1       1.076   6.114   1.367  0.00  0.00    +0.159 HD
ENDROOT
BRANCH   1  10
ATOM     10  C   UNL     1       0.613   8.059   4.696  0.00  0.00    +0.151 C 
BRANCH  10  11
ATOM     11  C   UNL     1       0.829   8.948   5.890  0.00  0.00    -0.028 A 
ATOM     12  C   UNL     1       1.303  10.258   5.726  0.00  0.00    +0.005 A 
ATOM     13  C   UNL     1       0.555   8.489   7.187  0.00  0.00    +0.005 A 
ATOM     14  C   UNL     1       1.475  11.094   6.832  0.00  0.00    +0.000 A 
ATOM     15  C   UNL     1       0.729   9.327   8.289  0.00  0.00    +0.000 A 
ATOM     16  C   UNL     1       1.187  10.630   8.110  0.00  0.00    +0.000 A 
ENDBRANCH  10  11
ENDBRANCH   1  10
TORSDOF 2
ENDMDL
MODEL 8
REMARK VINA RESULT:    -4.880     30.587     32.514
REMARK INTER + INTRA:          -5.544
REMARK INTER:                  -5.402
REMARK INTRA:                  -0.141
REMARK UNBOUND:                -0.093
REMARK  Name = 1550473
REMARK  2 active torsions:
REMARK  status: ('A' for Active; 'I' for Inactive)
REMARK    1  A    between atoms: N_1  and  C_4
REMARK    2  A    between atoms: C_4  and  C_5
REMARK                            x       y       z     vdW  Elec       q    Type
REMARK                         _______ _______ _______ _____ _____    ______ ____
ROOT
ATOM      1  N   UNL     1       0.767 -10.818 -10.401  0.00  0.00    -0.354 N 
ATOM      2  N   UNL     1      -1.230 -11.952 -10.700  0.00  0.00    -0.372 N 
ATOM      3  N   UNL     1      -0.372 -10.737 -12.447  0.00  0.00    -0.372 N 
ATOM      4  C   UNL     1      -0.265 -11.160 -11.184  0.00  0.00    +0.166 C 
ATOM      5  H   UNL     1       0.775 -11.147  -9.443  0.00  0.00    +0.163 HD
ATOM      6  H   UNL     1      -2.019 -12.230 -11.268  0.00  0.00    +0.159 HD
ATOM      7  H   UNL     1      -1.196 -12.317  -9.756  0.00  0.00    +0.159 HD
ATOM      8  H   UNL     1       0.319 -10.132 -12.870  0.00  0.00    +0.159 HD
ATOM      9  H   UNL     1      -1.161 -10.994 -13.028  0.00  0.00    +0.159 HD
ENDROOT
BRANCH   1  10
ATOM     10  C   UNL     1       1.897 -10.004 -10.848  0.00  0.00    +0.151 C 
BRANCH  10  11
ATOM     11  C   UNL     1       2.075  -8.849  -9.902  0.00  0.00    -0.028 A 
ATOM     12  C   UNL     1       2.704  -7.670 -10.328  0.00  0.00    +0.005 A 
ATOM     13  C   UNL     1       1.610  -8.924  -8.580  0.00  0.00    +0.005 A 
ATOM     14  C   UNL     1       2.842  -6.586  -9.458  0.00  0.00    +0.000 A 
ATOM     15  C   UNL     1       1.751  -7.840  -7.714  0.00  0.00    +0.000 A 
ATOM     16  C   UNL     1       2.365  -6.670  -8.155  0.00  0.00    +0.000 A 
ENDBRANCH  10  11
ENDBRANCH   1  10
TORSDOF 2
ENDMDL
MODEL 9
REMARK VINA RESULT:    -4.878     33.934     35.759
REMARK INTER + INTRA:          -5.541
REMARK INTER:                  -5.385
REMARK INTRA:                  -0.156
REMARK UNBOUND:                -0.093
REMARK  Name = 1550473
REMARK  2 active torsions:
REMARK  status: ('A' for Active; 'I' for Inactive)
REMARK    1  A    between atoms: N_1  and  C_4
REMARK    2  A    between atoms: C_4  and  C_5
REMARK                            x       y       z     vdW  Elec       q    Type
REMARK                         _______ _______ _______ _____ _____    ______ ____
ROOT
ATOM      1  N   UNL     1      -0.437 -12.965 -12.731  0.00  0.00    -0.354 N 
ATOM      2  N   UNL     1       0.202 -14.971 -11.765  0.00  0.00    -0.372 N 
ATOM      3  N   UNL     1       1.583 -13.999 -13.318  0.00  0.00    -0.372 N 
ATOM      4  C   UNL     1       0.447 -13.965 -12.613  0.00  0.00    +0.166 C 
ATOM      5  H   UNL     1      -1.293 -13.013 -12.191  0.00  0.00    +0.163 HD
ATOM      6  H   UNL     1       0.852 -15.738 -11.652  0.00  0.00    +0.159 HD
ATOM      7  H   UNL     1      -0.633 -14.993 -11.192  0.00  0.00    +0.159 HD
ATOM      8  H   UNL     1       1.824 -13.274 -13.980  0.00  0.00    +0.159 HD
ATOM      9  H   UNL     1       2.240 -14.764 -13.228  0.00  0.00    +0.159 HD
ENDROOT
BRANCH   1  10
ATOM     10  C   UNL     1      -0.239 -11.796 -13.586  0.00  0.00    +0.151 C 
BRANCH  10  11
ATOM     11  C   UNL     1       0.319 -10.671 -12.759  0.00  0.00    -0.028 A 
ATOM     12  C   UNL     1      -0.080 -10.503 -11.425  0.00  0.00    +0.005 A 
ATOM     13  C   UNL     1       1.252  -9.774 -13.302  0.00  0.00    +0.005 A 
ATOM     14  C   UNL     1       0.460  -9.476 -10.647  0.00  0.00    +0.000 A 
ATOM     15  C   UNL     1       1.788  -8.750 -12.522  0.00  0.00    +0.000 A 
ATOM     16  C   UNL     1       1.394  -8.603 -11.194  0.00  0.00    +0.000 A 
ENDBRANCH  10  11
ENDBRANCH   1  10
TORSDOF 2
ENDMDL
