MODEL 1
REMARK VINA RESULT:    -6.399      0.000      0.000
REMARK INTER + INTRA:          -7.320
REMARK INTER:                  -7.148
REMARK INTRA:                  -0.173
REMARK UNBOUND:                -0.173
REMARK  Name = 1550473
REMARK  2 active torsions:
REMARK  status: ('A' for Active; 'I' for Inactive)
REMARK    1  A    between atoms: N_1  and  C_4
REMARK    2  A    between atoms: C_4  and  C_5
REMARK                            x       y       z     vdW  Elec       q    Type
REMARK                         _______ _______ _______ _____ _____    ______ ____
ROOT
ATOM      1  N   UNL     1      -0.560   0.816   0.045  0.00  0.00    -0.354 N 
ATOM      2  N   UNL     1       0.171   1.239   2.202  0.00  0.00    -0.372 N 
ATOM      3  N   UNL     1       0.563   2.805   0.571  0.00  0.00    -0.372 N 
ATOM      4  C   UNL     1       0.054   1.619   0.924  0.00  0.00    +0.166 C 
ATOM      5  H   UNL     1      -0.897  -0.083   0.369  0.00  0.00    +0.163 HD
ATOM      6  H   UNL     1       0.626   1.825   2.888  0.00  0.00    +0.159 HD
ATOM      7  H   UNL     1      -0.208   0.360   2.532  0.00  0.00    +0.159 HD
ATOM      8  H   UNL     1       0.513   3.147  -0.379  0.00  0.00    +0.159 HD
ATOM      9  H   UNL     1       1.032   3.401   1.241  0.00  0.00    +0.159 HD
ENDROOT
BRANCH   1  10
ATOM     10  C   UNL     1      -0.786   1.160  -1.358  0.00  0.00    +0.151 C 
BRANCH  10  11
ATOM     11  C   UNL     1       0.124   0.330  -2.220  0.00  0.00    -0.028 A 
ATOM     12  C   UNL     1       1.454   0.721  -2.434  0.00  0.00    +0.005 A 
ATOM     13  C   UNL     1      -0.336  -0.851  -2.822  0.00  0.00    +0.005 A 
ATOM     14  C   UNL     1       2.309  -0.065  -3.210  0.00  0.00    +0.000 A 
ATOM     15  C   UNL     1       0.520  -1.633  -3.598  0.00  0.00    +0.000 A 
ATOM     16  C   UNL     1       1.843  -1.241  -3.790  0.00  0.00    +0.000 A 
ENDBRANCH  10  11
ENDBRANCH   1  10
TORSDOF 2
ENDMDL
MODEL 2
REMARK VINA RESULT:    -5.931      4.147      5.902
REMARK INTER + INTRA:          -6.797
REMARK INTER:                  -6.651
REMARK INTRA:                  -0.146
REMARK UNBOUND:                -0.173
REMARK  Name = 1550473
REMARK  2 active torsions:
REMARK  status: ('A' for Active; 'I' for Inactive)
REMARK    1  A    between atoms: N_1  and  C_4
REMARK    2  A    between atoms: C_4  and  C_5
REMARK                            x       y       z     vdW  Elec       q    Type
REMARK                         _______ _______ _______ _____ _____    ______ ____
ROOT
ATOM      1  N   UNL     1       3.381  -0.833  -5.041  0.00  0.00    -0.354 N 
ATOM      2  N   UNL     1       2.555  -1.422  -7.123  0.00  0.00    -0.372 N 
ATOM      3  N   UNL     1       2.865  -3.062  -5.548  0.00  0.00    -0.372 N 
ATOM      4  C   UNL     1       2.939  -1.771  -5.889  0.00  0.00    +0.166 C 
ATOM      5  H   UNL     1       3.442   0.123  -5.370  0.00  0.00    +0.163 HD
ATOM      6  H   UNL     1       2.213  -2.107  -7.784  0.00  0.00    +0.159 HD
ATOM      7  H   UNL     1       2.573  -0.458  -7.434  0.00  0.00    +0.159 HD
ATOM      8  H   UNL     1       3.145  -3.391  -4.634  0.00  0.00    +0.159 HD
ATOM      9  H   UNL     1       2.537  -3.764  -6.200  0.00  0.00    +0.159 HD
ENDROOT
BRANCH   1  10
ATOM     10  C   UNL     1       3.773  -1.100  -3.658  0.00  0.00    +0.151 C 
BRANCH  10  11
ATOM     11  C   UNL     1       2.864  -0.339  -2.734  0.00  0.00    -0.028 A 
ATOM     12  C   UNL     1       1.482  -0.576  -2.739  0.00  0.00    +0.005 A 
ATOM     13  C   UNL     1       3.379   0.619  -1.846  0.00  0.00    +0.005 A 
ATOM     14  C   UNL     1       0.640   0.110  -1.860  0.00  0.00    +0.000 A 
ATOM     15  C   UNL     1       2.536   1.302  -0.971  0.00  0.00    +0.000 A 
ATOM     16  C   UNL     1       1.167   1.045  -0.976  0.00  0.00    +0.000 A 
ENDBRANCH  10  11
ENDBRANCH   1  10
TORSDOF 2
ENDMDL
MODEL 3
REMARK VINA RESULT:    -5.911     12.156     13.229
REMARK INTER + INTRA:          -6.774
REMARK INTER:                  -6.594
REMARK INTRA:                  -0.181
REMARK UNBOUND:                -0.173
REMARK  Name = 1550473
REMARK  2 active torsions:
REMARK  status: ('A' for Active; 'I' for Inactive)
REMARK    1  A    between atoms: N_1  and  C_4
REMARK    2  A    between atoms: C_4  and  C_5
REMARK                            x       y       z     vdW  Elec       q    Type
REMARK                         _______ _______ _______ _____ _____    ______ ____
ROOT
ATOM      1  N   UNL     1     -11.252   7.164  -6.184  0.00  0.00    -0.354 N 
ATOM      2  N   UNL     1     -13.313   6.285  -5.598  0.00  0.00    -0.372 N 
ATOM      3  N   UNL     1     -12.672   6.235  -7.801  0.00  0.00    -0.372 N 
ATOM      4  C   UNL     1     -12.399   6.567  -6.534  0.00  0.00    +0.166 C 
ATOM      5  H   UNL     1     -11.118   7.417  -5.212  0.00  0.00    +0.163 HD
ATOM      6  H   UNL     1     -14.186   5.832  -5.832  0.00  0.00    +0.159 HD
ATOM      7  H   UNL     1     -13.157   6.497  -4.620  0.00  0.00    +0.159 HD
ATOM      8  H   UNL     1     -12.026   6.426  -8.555  0.00  0.00    +0.159 HD
ATOM      9  H   UNL     1     -13.545   5.792  -8.056  0.00  0.00    +0.159 HD
ENDROOT
BRANCH   1  10
ATOM     10  C   UNL     1     -10.168   7.465  -7.118  0.00  0.00    +0.151 C 
BRANCH  10  11
ATOM     11  C   UNL     1      -9.074   6.448  -6.946  0.00  0.00    -0.028 A 
ATOM     12  C   UNL     1      -8.979   5.352  -7.815  0.00  0.00    +0.005 A 
ATOM     13  C   UNL     1      -8.127   6.578  -5.919  0.00  0.00    +0.005 A 
ATOM     14  C   UNL     1      -7.945   4.423  -7.675  0.00  0.00    +0.000 A 
ATOM     15  C   UNL     1      -7.096   5.648  -5.782  0.00  0.00    +0.000 A 
ATOM     16  C   UNL     1      -7.004   4.572  -6.661  0.00  0.00    +0.000 A 
ENDBRANCH  10  11
ENDBRANCH   1  10
TORSDOF 2
ENDMDL
MODEL 4
REMARK VINA RESULT:    -5.888     12.029     13.057
REMARK INTER + INTRA:          -6.749
REMARK INTER:                  -6.633
REMARK INTRA:                  -0.116
REMARK UNBOUND:                -0.173
REMARK  Name = 1550473
REMARK  2 active torsions:
REMARK  status: ('A' for Active; 'I' for Inactive)
REMARK    1  A    between atoms: N_1  and  C_4
REMARK    2  A    between atoms: C_4  and  C_5
REMARK                            x       y       z     vdW  Elec       q    Type
REMARK                         _______ _______ _______ _____ _____    ______ ____
ROOT
ATOM      1  N   UNL     1      -9.461   8.591  -6.947  0.00  0.00    -0.354 N 
ATOM      2  N   UNL     1      -9.438  10.866  -7.380  0.00  0.00    -0.372 N 
ATOM      3  N   UNL     1     -10.767   9.506  -8.665  0.00  0.00    -0.372 N 
ATOM      4  C   UNL     1      -9.890   9.638  -7.663  0.00  0.00    +0.166 C 
ATOM      5  H   UNL     1      -8.774   8.753  -6.221  0.00  0.00    +0.163 HD
ATOM      6  H   UNL     1      -9.746  11.676  -7.901  0.00  0.00    +0.159 HD
ATOM      7  H   UNL     1      -8.785  11.032  -6.623  0.00  0.00    +0.159 HD
ATOM      8  H   UNL     1     -11.142   8.606  -8.933  0.00  0.00    +0.159 HD
ATOM      9  H   UNL     1     -11.078  10.303  -9.205  0.00  0.00    +0.159 HD
ENDROOT
BRANCH   1  10
ATOM     10  C   UNL     1      -9.933   7.220  -7.140  0.00  0.00    +0.151 C 
BRANCH  10  11
ATOM     11  C   UNL     1      -8.815   6.267  -6.820  0.00  0.00    -0.028 A 
ATOM     12  C   UNL     1      -8.610   5.122  -7.604  0.00  0.00    +0.005 A 
ATOM     13  C   UNL     1      -7.954   6.505  -5.738  0.00  0.00    +0.005 A 
ATOM     14  C   UNL     1      -7.553   4.252  -7.326  0.00  0.00    +0.000 A 
ATOM     15  C   UNL     1      -6.901   5.633  -5.463  0.00  0.00    +0.000 A 
ATOM     16  C   UNL     1      -6.699   4.508  -6.259  0.00  0.00    +0.000 A 
ENDBRANCH  10  11
ENDBRANCH   1  10
TORSDOF 2
ENDMDL
MODEL 5
REMARK VINA RESULT:    -5.848      3.212      4.997
REMARK INTER + INTRA:          -6.704
REMARK INTER:                  -6.561
REMARK INTRA:                  -0.143
REMARK UNBOUND:                -0.173
REMARK  Name = 1550473
REMARK  2 active torsions:
REMARK  status: ('A' for Active; 'I' for Inactive)
REMARK    1  A    between atoms: N_1  and  C_4
REMARK    2  A    between atoms: C_4  and  C_5
REMARK                            x       y       z     vdW  Elec       q    Type
REMARK                         _______ _______ _______ _____ _____    ______ ____
ROOT
ATOM      1  N   UNL     1       1.382  -0.689  -4.012  0.00  0.00    -0.354 N 
ATOM      2  N   UNL     1       3.288  -0.876  -5.313  0.00  0.00    -0.372 N 
ATOM      3  N   UNL     1       3.154  -2.077  -3.362  0.00  0.00    -0.372 N 
ATOM      4  C   UNL     1       2.596  -1.214  -4.218  0.00  0.00    +0.166 C 
ATOM      5  H   UNL     1       1.027  -0.017  -4.683  0.00  0.00    +0.163 HD
ATOM      6  H   UNL     1       4.206  -1.259  -5.497  0.00  0.00    +0.159 HD
ATOM      7  H   UNL     1       2.913  -0.240  -6.005  0.00  0.00    +0.159 HD
ATOM      8  H   UNL     1       2.687  -2.368  -2.514  0.00  0.00    +0.159 HD
ATOM      9  H   UNL     1       4.077  -2.462  -3.523  0.00  0.00    +0.159 HD
ENDROOT
BRANCH   1  10
ATOM     10  C   UNL     1       0.524  -1.032  -2.879  0.00  0.00    +0.151 C 
BRANCH  10  11
ATOM     11  C   UNL     1       0.027   0.234  -2.237  0.00  0.00    -0.028 A 
ATOM     12  C   UNL     1      -0.790   0.182  -1.098  0.00  0.00    +0.005 A 
ATOM     13  C   UNL     1       0.374   1.489  -2.761  0.00  0.00    +0.005 A 
ATOM     14  C   UNL     1      -1.227   1.358  -0.485  0.00  0.00    +0.000 A 
ATOM     15  C   UNL     1      -0.066   2.661  -2.145  0.00  0.00    +0.000 A 
ATOM     16  C   UNL     1      -0.864   2.596  -1.006  0.00  0.00    +0.000 A 
ENDBRANCH  10  11
ENDBRANCH   1  10
TORSDOF 2
ENDMDL
MODEL 6
REMARK VINA RESULT:    -5.459     13.154     14.271
REMARK INTER + INTRA:          -6.270
REMARK INTER:                  -6.172
REMARK INTRA:                  -0.099
REMARK UNBOUND:                -0.173
REMARK  Name = 1550473
REMARK  2 active torsions:
REMARK  status: ('A' for Active; 'I' for Inactive)
REMARK    1  A    between atoms: N_1  and  C_4
REMARK    2  A    between atoms: C_4  and  C_5
REMARK                            x       y       z     vdW  Elec       q    Type
REMARK                         _______ _______ _______ _____ _____    ______ ____
ROOT
ATOM      1  N   UNL     1      -9.815   8.942  -7.559  0.00  0.00    -0.354 N 
ATOM      2  N   UNL     1      -9.505  11.236  -7.488  0.00  0.00    -0.372 N 
ATOM      3  N   UNL     1     -10.853  10.350  -9.119  0.00  0.00    -0.372 N 
ATOM      4  C   UNL     1     -10.061  10.161  -8.058  0.00  0.00    +0.166 C 
ATOM      5  H   UNL     1      -9.182   8.863  -6.772  0.00  0.00    +0.163 HD
ATOM      6  H   UNL     1      -9.675  12.169  -7.840  0.00  0.00    +0.159 HD
ATOM      7  H   UNL     1      -8.909  11.159  -6.672  0.00  0.00    +0.159 HD
ATOM      8  H   UNL     1     -11.299   9.579  -9.599  0.00  0.00    +0.159 HD
ATOM      9  H   UNL     1     -11.026  11.275  -9.493  0.00  0.00    +0.159 HD
ENDROOT
BRANCH   1  10
ATOM     10  C   UNL     1     -10.415   7.712  -8.073  0.00  0.00    +0.151 C 
BRANCH  10  11
ATOM     11  C   UNL     1     -10.244   6.619  -7.054  0.00  0.00    -0.028 A 
ATOM     12  C   UNL     1      -8.963   6.207  -6.660  0.00  0.00    +0.005 A 
ATOM     13  C   UNL     1     -11.360   5.996  -6.475  0.00  0.00    +0.005 A 
ATOM     14  C   UNL     1      -8.804   5.213  -5.691  0.00  0.00    +0.000 A 
ATOM     15  C   UNL     1     -11.197   5.003  -5.509  0.00  0.00    +0.000 A 
ATOM     16  C   UNL     1      -9.919   4.614  -5.116  0.00  0.00    +0.000 A 
ENDBRANCH  10  11
ENDBRANCH   1  10
TORSDOF 2
ENDMDL
MODEL 7
REMARK VINA RESULT:    -5.431      4.615      6.336
REMARK INTER + INTRA:          -6.238
REMARK INTER:                  -6.115
REMARK INTRA:                  -0.123
REMARK UNBOUND:                -0.173
REMARK  Name = 1550473
REMARK  2 active torsions:
REMARK  status: ('A' for Active; 'I' for Inactive)
REMARK    1  A    between atoms: N_1  and  C_4
REMARK    2  A    between atoms: C_4  and  C_5
REMARK                            x       y       z     vdW  Elec       q    Type
REMARK                         _______ _______ _______ _____ _____    ______ ____
ROOT
ATOM      1  N   UNL     1       2.381  -2.716  -5.797  0.00  0.00    -0.354 N 
ATOM      2  N   UNL     1       1.598  -3.662  -7.761  0.00  0.00    -0.372 N 
ATOM      3  N   UNL     1       2.381  -1.505  -7.804  0.00  0.00    -0.372 N 
ATOM      4  C   UNL     1       2.126  -2.619  -7.109  0.00  0.00    +0.166 C 
ATOM      5  H   UNL     1       2.137  -3.577  -5.322  0.00  0.00    +0.163 HD
ATOM      6  H   UNL     1       1.398  -3.620  -8.751  0.00  0.00    +0.159 HD
ATOM      7  H   UNL     1       1.398  -4.537  -7.293  0.00  0.00    +0.159 HD
ATOM      8  H   UNL     1       2.773  -0.681  -7.369  0.00  0.00    +0.159 HD
ATOM      9  H   UNL     1       2.176  -1.440  -8.793  0.00  0.00    +0.159 HD
ENDROOT
BRANCH   1  10
ATOM     10  C   UNL     1       3.005  -1.657  -5.005  0.00  0.00    +0.151 C 
BRANCH  10  11
ATOM     11  C   UNL     1       2.035  -1.196  -3.952  0.00  0.00    -0.028 A 
ATOM     12  C   UNL     1       0.718  -1.678  -3.937  0.00  0.00    +0.005 A 
ATOM     13  C   UNL     1       2.429  -0.282  -2.963  0.00  0.00    +0.005 A 
ATOM     14  C   UNL     1      -0.174  -1.273  -2.942  0.00  0.00    +0.000 A 
ATOM     15  C   UNL     1       1.535   0.121  -1.972  0.00  0.00    +0.000 A 
ATOM     16  C   UNL     1       0.234  -0.377  -1.960  0.00  0.00    +0.000 A 
ENDBRANCH  10  11
ENDBRANCH   1  10
TORSDOF 2
ENDMDL
MODEL 8
REMARK VINA RESULT:    -5.387     14.750     15.325
REMARK INTER + INTRA:          -6.189
REMARK INTER:                  -6.088
REMARK INTRA:                  -0.101
REMARK UNBOUND:                -0.173
REMARK  Name = 1550473
REMARK  2 active torsions:
REMARK  status: ('A' for Active; 'I' for Inactive)
REMARK    1  A    between atoms: N_1  and  C_4
REMARK    2  A    between atoms: C_4  and  C_5
REMARK                            x       y       z     vdW  Elec       q    Type
REMARK                         _______ _______ _______ _____ _____    ______ ____
ROOT
ATOM      1  N   UNL     1       5.135 -12.012   8.490  0.00  0.00    -0.354 N 
ATOM      2  N   UNL     1       5.754 -13.625  10.033  0.00  0.00    -0.372 N 
ATOM      3  N   UNL     1       4.916 -11.628  10.791  0.00  0.00    -0.372 N 
ATOM      4  C   UNL     1       5.263 -12.409   9.763  0.00  0.00    +0.166 C 
ATOM      5  H   UNL     1       5.445 -12.640   7.757  0.00  0.00    +0.163 HD
ATOM      6  H   UNL     1       5.860 -13.953  10.983  0.00  0.00    +0.159 HD
ATOM      7  H   UNL     1       6.020 -14.267   9.297  0.00  0.00    +0.159 HD
ATOM      8  H   UNL     1       4.545 -10.697  10.655  0.00  0.00    +0.159 HD
ATOM      9  H   UNL     1       5.025 -11.934  11.750  0.00  0.00    +0.159 HD
ENDROOT
BRANCH   1  10
ATOM     10  C   UNL     1       4.562 -10.729   8.088  0.00  0.00    +0.151 C 
BRANCH  10  11
ATOM     11  C   UNL     1       4.418 -10.703   6.591  0.00  0.00    -0.028 A 
ATOM     12  C   UNL     1       5.534 -10.903   5.765  0.00  0.00    +0.005 A 
ATOM     13  C   UNL     1       3.168 -10.485   5.992  0.00  0.00    +0.005 A 
ATOM     14  C   UNL     1       5.396 -10.909   4.375  0.00  0.00    +0.000 A 
ATOM     15  C   UNL     1       3.034 -10.490   4.604  0.00  0.00    +0.000 A 
ATOM     16  C   UNL     1       4.148 -10.705   3.796  0.00  0.00    +0.000 A 
ENDBRANCH  10  11
ENDBRANCH   1  10
TORSDOF 2
ENDMDL
MODEL 9
REMARK VINA RESULT:    -5.338     11.990     13.392
REMARK INTER + INTRA:          -6.134
REMARK INTER:                  -5.980
REMARK INTRA:                  -0.155
REMARK UNBOUND:                -0.173
REMARK  Name = 1550473
REMARK  2 active torsions:
REMARK  status: ('A' for Active; 'I' for Inactive)
REMARK    1  A    between atoms: N_1  and  C_4
REMARK    2  A    between atoms: C_4  and  C_5
REMARK                            x       y       z     vdW  Elec       q    Type
REMARK                         _______ _______ _______ _____ _____    ______ ____
ROOT
ATOM      1  N   UNL     1      -8.822   5.013  -5.144  0.00  0.00    -0.354 N 
ATOM      2  N   UNL     1      -6.706   5.954  -5.176  0.00  0.00    -0.372 N 
ATOM      3  N   UNL     1      -7.359   4.633  -6.936  0.00  0.00    -0.372 N 
ATOM      4  C   UNL     1      -7.643   5.192  -5.754  0.00  0.00    +0.166 C 
ATOM      5  H   UNL     1      -8.964   5.439  -4.236  0.00  0.00    +0.163 HD
ATOM      6  H   UNL     1      -5.808   6.110  -5.614  0.00  0.00    +0.159 HD
ATOM      7  H   UNL     1      -6.867   6.416  -4.290  0.00  0.00    +0.159 HD
ATOM      8  H   UNL     1      -8.021   4.043  -7.421  0.00  0.00    +0.159 HD
ATOM      9  H   UNL     1      -6.462   4.769  -7.384  0.00  0.00    +0.159 HD
ENDROOT
BRANCH   1  10
ATOM     10  C   UNL     1      -9.929   4.246  -5.714  0.00  0.00    +0.151 C 
BRANCH  10  11
ATOM     11  C   UNL     1     -11.082   5.173  -5.981  0.00  0.00    -0.028 A 
ATOM     12  C   UNL     1     -11.931   5.572  -4.938  0.00  0.00    +0.005 A 
ATOM     13  C   UNL     1     -11.328   5.661  -7.273  0.00  0.00    +0.005 A 
ATOM     14  C   UNL     1     -12.985   6.457  -5.179  0.00  0.00    +0.000 A 
ATOM     15  C   UNL     1     -12.382   6.544  -7.511  0.00  0.00    +0.000 A 
ATOM     16  C   UNL     1     -13.208   6.944  -6.463  0.00  0.00    +0.000 A 
ENDBRANCH  10  11
ENDBRANCH   1  10
TORSDOF 2
ENDMDL
