MODEL 1
REMARK VINA RESULT:    -5.354      0.000      0.000
REMARK INTER + INTRA:          -6.113
REMARK INTER:                  -5.980
REMARK INTRA:                  -0.133
REMARK UNBOUND:                -0.133
REMARK  Name = 1550473
REMARK  2 active torsions:
REMARK  status: ('A' for Active; 'I' for Inactive)
REMARK    1  A    between atoms: N_1  and  C_4
REMARK    2  A    between atoms: C_4  and  C_5
REMARK                            x       y       z     vdW  Elec       q    Type
REMARK                         _______ _______ _______ _____ _____    ______ ____
ROOT
ATOM      1  N   UNL     1      20.983   9.083  14.044  0.00  0.00    -0.354 N 
ATOM      2  N   UNL     1      20.105  11.090  13.295  0.00  0.00    -0.372 N 
ATOM      3  N   UNL     1      21.350  11.075  15.222  0.00  0.00    -0.372 N 
ATOM      4  C   UNL     1      20.819  10.404  14.195  0.00  0.00    +0.166 C 
ATOM      5  H   UNL     1      20.530   8.627  13.260  0.00  0.00    +0.163 HD
ATOM      6  H   UNL     1      19.967  12.088  13.380  0.00  0.00    +0.159 HD
ATOM      7  H   UNL     1      19.691  10.640  12.487  0.00  0.00    +0.159 HD
ATOM      8  H   UNL     1      21.895  10.614  15.939  0.00  0.00    +0.159 HD
ATOM      9  H   UNL     1      21.213  12.072  15.331  0.00  0.00    +0.159 HD
ENDROOT
BRANCH   1  10
ATOM     10  C   UNL     1      21.788   8.251  14.938  0.00  0.00    +0.151 C 
BRANCH  10  11
ATOM     11  C   UNL     1      21.180   6.878  15.012  0.00  0.00    -0.028 A 
ATOM     12  C   UNL     1      19.978   6.595  14.347  0.00  0.00    +0.005 A 
ATOM     13  C   UNL     1      21.804   5.854  15.741  0.00  0.00    +0.005 A 
ATOM     14  C   UNL     1      19.428   5.311  14.391  0.00  0.00    +0.000 A 
ATOM     15  C   UNL     1      21.251   4.574  15.784  0.00  0.00    +0.000 A 
ATOM     16  C   UNL     1      20.065   4.303  15.106  0.00  0.00    +0.000 A 
ENDBRANCH  10  11
ENDBRANCH   1  10
TORSDOF 2
ENDMDL
MODEL 2
REMARK VINA RESULT:    -5.187     31.016     32.123
REMARK INTER + INTRA:          -5.927
REMARK INTER:                  -5.805
REMARK INTRA:                  -0.122
REMARK UNBOUND:                -0.133
REMARK  Name = 1550473
REMARK  2 active torsions:
REMARK  status: ('A' for Active; 'I' for Inactive)
REMARK    1  A    between atoms: N_1  and  C_4
REMARK    2  A    between atoms: C_4  and  C_5
REMARK                            x       y       z     vdW  Elec       q    Type
REMARK                         _______ _______ _______ _____ _____    ______ ____
ROOT
ATOM      1  N   UNL     1      -5.118   7.492  -2.574  0.00  0.00    -0.354 N 
ATOM      2  N   UNL     1      -7.110   6.987  -1.504  0.00  0.00    -0.372 N 
ATOM      3  N   UNL     1      -6.657   9.174  -2.030  0.00  0.00    -0.372 N 
ATOM      4  C   UNL     1      -6.282   7.891  -2.043  0.00  0.00    +0.166 C 
ATOM      5  H   UNL     1      -4.879   6.508  -2.526  0.00  0.00    +0.163 HD
ATOM      6  H   UNL     1      -7.996   7.258  -1.099  0.00  0.00    +0.159 HD
ATOM      7  H   UNL     1      -6.888   5.999  -1.498  0.00  0.00    +0.159 HD
ATOM      8  H   UNL     1      -6.075   9.906  -2.416  0.00  0.00    +0.159 HD
ATOM      9  H   UNL     1      -7.534   9.466  -1.619  0.00  0.00    +0.159 HD
ENDROOT
BRANCH   1  10
ATOM     10  C   UNL     1      -4.171   8.389  -3.234  0.00  0.00    +0.151 C 
BRANCH  10  11
ATOM     11  C   UNL     1      -4.024   7.976  -4.672  0.00  0.00    -0.028 A 
ATOM     12  C   UNL     1      -2.760   7.951  -5.280  0.00  0.00    +0.005 A 
ATOM     13  C   UNL     1      -5.143   7.603  -5.431  0.00  0.00    +0.005 A 
ATOM     14  C   UNL     1      -2.619   7.539  -6.607  0.00  0.00    +0.000 A 
ATOM     15  C   UNL     1      -4.999   7.193  -6.756  0.00  0.00    +0.000 A 
ATOM     16  C   UNL     1      -3.736   7.159  -7.343  0.00  0.00    +0.000 A 
ENDBRANCH  10  11
ENDBRANCH   1  10
TORSDOF 2
ENDMDL
MODEL 3
REMARK VINA RESULT:    -5.119     53.049     53.879
REMARK INTER + INTRA:          -5.851
REMARK INTER:                  -5.729
REMARK INTRA:                  -0.121
REMARK UNBOUND:                -0.133
REMARK  Name = 1550473
REMARK  2 active torsions:
REMARK  status: ('A' for Active; 'I' for Inactive)
REMARK    1  A    between atoms: N_1  and  C_4
REMARK    2  A    between atoms: C_4  and  C_5
REMARK                            x       y       z     vdW  Elec       q    Type
REMARK                         _______ _______ _______ _____ _____    ______ ____
ROOT
ATOM      1  N   UNL     1     -14.086 -11.389 -21.972  0.00  0.00    -0.354 N 
ATOM      2  N   UNL     1     -13.537 -13.613 -21.631  0.00  0.00    -0.372 N 
ATOM      3  N   UNL     1     -12.688 -12.530 -23.466  0.00  0.00    -0.372 N 
ATOM      4  C   UNL     1     -13.439 -12.496 -22.361  0.00  0.00    +0.166 C 
ATOM      5  H   UNL     1     -14.665 -11.437 -21.140  0.00  0.00    +0.163 HD
ATOM      6  H   UNL     1     -13.058 -14.463 -21.897  0.00  0.00    +0.159 HD
ATOM      7  H   UNL     1     -14.079 -13.645 -20.775  0.00  0.00    +0.159 HD
ATOM      8  H   UNL     1     -12.578 -11.722 -24.064  0.00  0.00    +0.159 HD
ATOM      9  H   UNL     1     -12.209 -13.374 -23.756  0.00  0.00    +0.159 HD
ENDROOT
BRANCH   1  10
ATOM     10  C   UNL     1     -14.003 -10.106 -22.666  0.00  0.00    +0.151 C 
BRANCH  10  11
ATOM     11  C   UNL     1     -14.700  -9.057 -21.846  0.00  0.00    -0.028 A 
ATOM     12  C   UNL     1     -14.921  -9.255 -20.475  0.00  0.00    +0.005 A 
ATOM     13  C   UNL     1     -15.138  -7.859 -22.432  0.00  0.00    +0.005 A 
ATOM     14  C   UNL     1     -15.542  -8.268 -19.706  0.00  0.00    +0.000 A 
ATOM     15  C   UNL     1     -15.759  -6.876 -21.661  0.00  0.00    +0.000 A 
ATOM     16  C   UNL     1     -15.959  -7.080 -20.298  0.00  0.00    +0.000 A 
ENDBRANCH  10  11
ENDBRANCH   1  10
TORSDOF 2
ENDMDL
MODEL 4
REMARK VINA RESULT:    -5.077      4.711      6.544
REMARK INTER + INTRA:          -5.804
REMARK INTER:                  -5.684
REMARK INTRA:                  -0.119
REMARK UNBOUND:                -0.133
REMARK  Name = 1550473
REMARK  2 active torsions:
REMARK  status: ('A' for Active; 'I' for Inactive)
REMARK    1  A    between atoms: N_1  and  C_4
REMARK    2  A    between atoms: C_4  and  C_5
REMARK                            x       y       z     vdW  Elec       q    Type
REMARK                         _______ _______ _______ _____ _____    ______ ____
ROOT
ATOM      1  N   UNL     1      18.882   2.144  15.210  0.00  0.00    -0.354 N 
ATOM      2  N   UNL     1      16.913   0.925  15.166  0.00  0.00    -0.372 N 
ATOM      3  N   UNL     1      18.583   0.388  13.687  0.00  0.00    -0.372 N 
ATOM      4  C   UNL     1      18.140   1.159  14.686  0.00  0.00    +0.166 C 
ATOM      5  H   UNL     1      18.478   2.712  15.946  0.00  0.00    +0.163 HD
ATOM      6  H   UNL     1      16.331   0.187  14.792  0.00  0.00    +0.159 HD
ATOM      7  H   UNL     1      16.529   1.465  15.932  0.00  0.00    +0.159 HD
ATOM      8  H   UNL     1      19.498   0.517  13.276  0.00  0.00    +0.159 HD
ATOM      9  H   UNL     1      18.011  -0.348  13.292  0.00  0.00    +0.159 HD
ENDROOT
BRANCH   1  10
ATOM     10  C   UNL     1      20.251   2.445  14.796  0.00  0.00    +0.151 C 
BRANCH  10  11
ATOM     11  C   UNL     1      20.496   3.922  14.946  0.00  0.00    -0.028 A 
ATOM     12  C   UNL     1      21.562   4.391  15.727  0.00  0.00    +0.005 A 
ATOM     13  C   UNL     1      19.668   4.856  14.305  0.00  0.00    +0.005 A 
ATOM     14  C   UNL     1      21.808   5.761  15.842  0.00  0.00    +0.000 A 
ATOM     15  C   UNL     1      19.916   6.224  14.424  0.00  0.00    +0.000 A 
ATOM     16  C   UNL     1      20.987   6.676  15.190  0.00  0.00    +0.000 A 
ENDBRANCH  10  11
ENDBRANCH   1  10
TORSDOF 2
ENDMDL
MODEL 5
REMARK VINA RESULT:    -4.975     47.096     48.413
REMARK INTER + INTRA:          -5.689
REMARK INTER:                  -5.594
REMARK INTRA:                  -0.096
REMARK UNBOUND:                -0.133
REMARK  Name = 1550473
REMARK  2 active torsions:
REMARK  status: ('A' for Active; 'I' for Inactive)
REMARK    1  A    between atoms: N_1  and  C_4
REMARK    2  A    between atoms: C_4  and  C_5
REMARK                            x       y       z     vdW  Elec       q    Type
REMARK                         _______ _______ _______ _____ _____    ______ ____
ROOT
ATOM      1  N   UNL     1      -1.283 -10.032 -23.458  0.00  0.00    -0.354 N 
ATOM      2  N   UNL     1      -0.080  -8.143 -24.050  0.00  0.00    -0.372 N 
ATOM      3  N   UNL     1       0.425  -9.208 -22.082  0.00  0.00    -0.372 N 
ATOM      4  C   UNL     1      -0.319  -9.141 -23.190  0.00  0.00    +0.166 C 
ATOM      5  H   UNL     1      -1.832  -9.908 -24.301  0.00  0.00    +0.163 HD
ATOM      6  H   UNL     1       0.642  -7.458 -23.876  0.00  0.00    +0.159 HD
ATOM      7  H   UNL     1      -0.600  -8.048 -24.914  0.00  0.00    +0.159 HD
ATOM      8  H   UNL     1       0.291  -9.934 -21.390  0.00  0.00    +0.159 HD
ATOM      9  H   UNL     1       1.145  -8.525 -21.884  0.00  0.00    +0.159 HD
ENDROOT
BRANCH   1  10
ATOM     10  C   UNL     1      -1.587 -11.186 -22.614  0.00  0.00    +0.151 C 
BRANCH  10  11
ATOM     11  C   UNL     1      -2.877 -11.806 -23.076  0.00  0.00    -0.028 A 
ATOM     12  C   UNL     1      -2.963 -12.417 -24.336  0.00  0.00    +0.005 A 
ATOM     13  C   UNL     1      -4.016 -11.792 -22.256  0.00  0.00    +0.005 A 
ATOM     14  C   UNL     1      -4.152 -13.019 -24.753  0.00  0.00    +0.000 A 
ATOM     15  C   UNL     1      -5.202 -12.394 -22.676  0.00  0.00    +0.000 A 
ATOM     16  C   UNL     1      -5.269 -13.009 -23.924  0.00  0.00    +0.000 A 
ENDBRANCH  10  11
ENDBRANCH   1  10
TORSDOF 2
ENDMDL
MODEL 6
REMARK VINA RESULT:    -4.883     12.797     13.902
REMARK INTER + INTRA:          -5.587
REMARK INTER:                  -5.464
REMARK INTRA:                  -0.123
REMARK UNBOUND:                -0.133
REMARK  Name = 1550473
REMARK  2 active torsions:
REMARK  status: ('A' for Active; 'I' for Inactive)
REMARK    1  A    between atoms: N_1  and  C_4
REMARK    2  A    between atoms: C_4  and  C_5
REMARK                            x       y       z     vdW  Elec       q    Type
REMARK                         _______ _______ _______ _____ _____    ______ ____
ROOT
ATOM      1  N   UNL     1       9.022   1.500  18.269  0.00  0.00    -0.354 N 
ATOM      2  N   UNL     1       9.445  -0.571  19.216  0.00  0.00    -0.372 N 
ATOM      3  N   UNL     1      11.181   0.586  18.262  0.00  0.00    -0.372 N 
ATOM      4  C   UNL     1       9.882   0.519  18.575  0.00  0.00    +0.166 C 
ATOM      5  H   UNL     1       8.045   1.374  18.508  0.00  0.00    +0.163 HD
ATOM      6  H   UNL     1      10.071  -1.326  19.463  0.00  0.00    +0.159 HD
ATOM      7  H   UNL     1       8.476  -0.674  19.494  0.00  0.00    +0.159 HD
ATOM      8  H   UNL     1      11.573   1.380  17.773  0.00  0.00    +0.159 HD
ATOM      9  H   UNL     1      11.821  -0.164  18.490  0.00  0.00    +0.159 HD
ENDROOT
BRANCH   1  10
ATOM     10  C   UNL     1       9.407   2.752  17.620  0.00  0.00    +0.151 C 
BRANCH  10  11
ATOM     11  C   UNL     1       8.851   2.772  16.223  0.00  0.00    -0.028 A 
ATOM     12  C   UNL     1       9.161   3.823  15.349  0.00  0.00    +0.005 A 
ATOM     13  C   UNL     1       8.017   1.740  15.767  0.00  0.00    +0.005 A 
ATOM     14  C   UNL     1       8.669   3.827  14.041  0.00  0.00    +0.000 A 
ATOM     15  C   UNL     1       7.527   1.748  14.461  0.00  0.00    +0.000 A 
ATOM     16  C   UNL     1       7.855   2.790  13.598  0.00  0.00    +0.000 A 
ENDBRANCH  10  11
ENDBRANCH   1  10
TORSDOF 2
ENDMDL
MODEL 7
REMARK VINA RESULT:    -4.876     47.367     48.710
REMARK INTER + INTRA:          -5.580
REMARK INTER:                  -5.485
REMARK INTRA:                  -0.095
REMARK UNBOUND:                -0.133
REMARK  Name = 1550473
REMARK  2 active torsions:
REMARK  status: ('A' for Active; 'I' for Inactive)
REMARK    1  A    between atoms: N_1  and  C_4
REMARK    2  A    between atoms: C_4  and  C_5
REMARK                            x       y       z     vdW  Elec       q    Type
REMARK                         _______ _______ _______ _____ _____    ______ ____
ROOT
ATOM      1  N   UNL     1      -3.415 -12.261 -24.270  0.00  0.00    -0.354 N 
ATOM      2  N   UNL     1      -4.447 -13.284 -26.074  0.00  0.00    -0.372 N 
ATOM      3  N   UNL     1      -3.984 -14.533 -24.206  0.00  0.00    -0.372 N 
ATOM      4  C   UNL     1      -3.942 -13.355 -24.836  0.00  0.00    +0.166 C 
ATOM      5  H   UNL     1      -3.386 -11.405 -24.813  0.00  0.00    +0.163 HD
ATOM      6  H   UNL     1      -4.853 -14.092 -26.526  0.00  0.00    +0.159 HD
ATOM      7  H   UNL     1      -4.458 -12.416 -26.596  0.00  0.00    +0.159 HD
ATOM      8  H   UNL     1      -3.614 -14.655 -23.272  0.00  0.00    +0.159 HD
ATOM      9  H   UNL     1      -4.376 -15.356 -24.646  0.00  0.00    +0.159 HD
ENDROOT
BRANCH   1  10
ATOM     10  C   UNL     1      -2.888 -12.218 -22.908  0.00  0.00    +0.151 C 
BRANCH  10  11
ATOM     11  C   UNL     1      -2.073 -10.966 -22.735  0.00  0.00    -0.028 A 
ATOM     12  C   UNL     1      -2.695  -9.709 -22.720  0.00  0.00    +0.005 A 
ATOM     13  C   UNL     1      -0.680 -11.031 -22.580  0.00  0.00    +0.005 A 
ATOM     14  C   UNL     1      -1.942  -8.548 -22.529  0.00  0.00    +0.000 A 
ATOM     15  C   UNL     1       0.068  -9.869 -22.391  0.00  0.00    +0.000 A 
ATOM     16  C   UNL     1      -0.563  -8.628 -22.363  0.00  0.00    +0.000 A 
ENDBRANCH  10  11
ENDBRANCH   1  10
TORSDOF 2
ENDMDL
MODEL 8
REMARK VINA RESULT:    -4.770     41.454     42.445
REMARK INTER + INTRA:          -5.461
REMARK INTER:                  -5.354
REMARK INTRA:                  -0.107
REMARK UNBOUND:                -0.133
REMARK  Name = 1550473
REMARK  2 active torsions:
REMARK  status: ('A' for Active; 'I' for Inactive)
REMARK    1  A    between atoms: N_1  and  C_4
REMARK    2  A    between atoms: C_4  and  C_5
REMARK                            x       y       z     vdW  Elec       q    Type
REMARK                         _______ _______ _______ _____ _____    ______ ____
ROOT
ATOM      1  N   UNL     1      -7.144   4.144 -17.610  0.00  0.00    -0.354 N 
ATOM      2  N   UNL     1      -8.387   6.030 -17.100  0.00  0.00    -0.372 N 
ATOM      3  N   UNL     1      -7.861   4.560 -15.418  0.00  0.00    -0.372 N 
ATOM      4  C   UNL     1      -7.789   4.898 -16.710  0.00  0.00    +0.166 C 
ATOM      5  H   UNL     1      -7.151   4.440 -18.580  0.00  0.00    +0.163 HD
ATOM      6  H   UNL     1      -8.879   6.621 -16.443  0.00  0.00    +0.159 HD
ATOM      7  H   UNL     1      -8.354   6.347 -18.061  0.00  0.00    +0.159 HD
ATOM      8  H   UNL     1      -7.436   3.715 -15.061  0.00  0.00    +0.159 HD
ATOM      9  H   UNL     1      -8.359   5.133 -14.748  0.00  0.00    +0.159 HD
ENDROOT
BRANCH   1  10
ATOM     10  C   UNL     1      -6.414   2.921 -17.280  0.00  0.00    +0.151 C 
BRANCH  10  11
ATOM     11  C   UNL     1      -5.231   2.791 -18.199  0.00  0.00    -0.028 A 
ATOM     12  C   UNL     1      -5.294   1.959 -19.326  0.00  0.00    +0.005 A 
ATOM     13  C   UNL     1      -4.047   3.502 -17.952  0.00  0.00    +0.005 A 
ATOM     14  C   UNL     1      -4.206   1.861 -20.197  0.00  0.00    +0.000 A 
ATOM     15  C   UNL     1      -2.963   3.401 -18.823  0.00  0.00    +0.000 A 
ATOM     16  C   UNL     1      -3.043   2.582 -19.947  0.00  0.00    +0.000 A 
ENDBRANCH  10  11
ENDBRANCH   1  10
TORSDOF 2
ENDMDL
MODEL 9
REMARK VINA RESULT:    -4.672      1.549      2.318
REMARK INTER + INTRA:          -5.351
REMARK INTER:                  -5.253
REMARK INTRA:                  -0.098
REMARK UNBOUND:                -0.133
REMARK  Name = 1550473
REMARK  2 active torsions:
REMARK  status: ('A' for Active; 'I' for Inactive)
REMARK    1  A    between atoms: N_1  and  C_4
REMARK    2  A    between atoms: C_4  and  C_5
REMARK                            x       y       z     vdW  Elec       q    Type
REMARK                         _______ _______ _______ _____ _____    ______ ____
ROOT
ATOM      1  N   UNL     1      20.743   7.275  15.029  0.00  0.00    -0.354 N 
ATOM      2  N   UNL     1      20.221   9.521  14.815  0.00  0.00    -0.372 N 
ATOM      3  N   UNL     1      22.364   8.833  14.367  0.00  0.00    -0.372 N 
ATOM      4  C   UNL     1      21.115   8.528  14.738  0.00  0.00    +0.166 C 
ATOM      5  H   UNL     1      19.790   7.114  15.333  0.00  0.00    +0.163 HD
ATOM      6  H   UNL     1      20.472  10.476  14.598  0.00  0.00    +0.159 HD
ATOM      7  H   UNL     1      19.257   9.351  15.074  0.00  0.00    +0.159 HD
ATOM      8  H   UNL     1      23.088   8.131  14.296  0.00  0.00    +0.159 HD
ATOM      9  H   UNL     1      22.637   9.785  14.157  0.00  0.00    +0.159 HD
ENDROOT
BRANCH   1  10
ATOM     10  C   UNL     1      21.626   6.115  14.925  0.00  0.00    +0.151 C 
BRANCH  10  11
ATOM     11  C   UNL     1      21.145   5.045  15.865  0.00  0.00    -0.028 A 
ATOM     12  C   UNL     1      19.934   4.378  15.626  0.00  0.00    +0.005 A 
ATOM     13  C   UNL     1      21.897   4.688  16.995  0.00  0.00    +0.005 A 
ATOM     14  C   UNL     1      19.501   3.364  16.483  0.00  0.00    +0.000 A 
ATOM     15  C   UNL     1      21.461   3.675  17.849  0.00  0.00    +0.000 A 
ATOM     16  C   UNL     1      20.264   3.011  17.591  0.00  0.00    +0.000 A 
ENDBRANCH  10  11
ENDBRANCH   1  10
TORSDOF 2
ENDMDL
