MODEL 1
REMARK VINA RESULT:    -5.344      0.000      0.000
REMARK INTER + INTRA:          -6.112
REMARK INTER:                  -5.969
REMARK INTRA:                  -0.142
REMARK UNBOUND:                -0.142
REMARK  Name = 1550473
REMARK  2 active torsions:
REMARK  status: ('A' for Active; 'I' for Inactive)
REMARK    1  A    between atoms: N_1  and  C_4
REMARK    2  A    between atoms: C_4  and  C_5
REMARK                            x       y       z     vdW  Elec       q    Type
REMARK                         _______ _______ _______ _____ _____    ______ ____
ROOT
ATOM      1  N   UNL     1      10.078   6.304  11.821  0.00  0.00    -0.354 N 
ATOM      2  N   UNL     1      10.668   8.538  11.661  0.00  0.00    -0.372 N 
ATOM      3  N   UNL     1      10.721   7.521  13.718  0.00  0.00    -0.372 N 
ATOM      4  C   UNL     1      10.485   7.439  12.404  0.00  0.00    +0.166 C 
ATOM      5  H   UNL     1       9.887   6.315  10.826  0.00  0.00    +0.163 HD
ATOM      6  H   UNL     1      10.979   9.408  12.073  0.00  0.00    +0.159 HD
ATOM      7  H   UNL     1      10.522   8.534  10.659  0.00  0.00    +0.159 HD
ATOM      8  H   UNL     1      10.596   6.730  14.335  0.00  0.00    +0.159 HD
ATOM      9  H   UNL     1      11.021   8.386  14.150  0.00  0.00    +0.159 HD
ENDROOT
BRANCH   1  10
ATOM     10  C   UNL     1       9.900   5.039  12.531  0.00  0.00    +0.151 C 
BRANCH  10  11
ATOM     11  C   UNL     1      10.583   3.943  11.760  0.00  0.00    -0.028 A 
ATOM     12  C   UNL     1      11.206   4.217  10.534  0.00  0.00    +0.005 A 
ATOM     13  C   UNL     1      10.615   2.629  12.253  0.00  0.00    +0.005 A 
ATOM     14  C   UNL     1      11.866   3.205   9.832  0.00  0.00    +0.000 A 
ATOM     15  C   UNL     1      11.275   1.622  11.549  0.00  0.00    +0.000 A 
ATOM     16  C   UNL     1      11.902   1.911  10.340  0.00  0.00    +0.000 A 
ENDBRANCH  10  11
ENDBRANCH   1  10
TORSDOF 2
ENDMDL
MODEL 2
REMARK VINA RESULT:    -5.307      3.568      4.621
REMARK INTER + INTRA:          -6.070
REMARK INTER:                  -5.892
REMARK INTRA:                  -0.178
REMARK UNBOUND:                -0.142
REMARK  Name = 1550473
REMARK  2 active torsions:
REMARK  status: ('A' for Active; 'I' for Inactive)
REMARK    1  A    between atoms: N_1  and  C_4
REMARK    2  A    between atoms: C_4  and  C_5
REMARK                            x       y       z     vdW  Elec       q    Type
REMARK                         _______ _______ _______ _____ _____    ______ ____
ROOT
ATOM      1  N   UNL     1      14.267   3.944  10.179  0.00  0.00    -0.354 N 
ATOM      2  N   UNL     1      16.080   4.536  11.494  0.00  0.00    -0.372 N 
ATOM      3  N   UNL     1      15.999   2.423  10.603  0.00  0.00    -0.372 N 
ATOM      4  C   UNL     1      15.438   3.628  10.750  0.00  0.00    +0.166 C 
ATOM      5  H   UNL     1      13.880   4.864  10.354  0.00  0.00    +0.163 HD
ATOM      6  H   UNL     1      16.966   4.327  11.934  0.00  0.00    +0.159 HD
ATOM      7  H   UNL     1      15.713   5.470  11.629  0.00  0.00    +0.159 HD
ATOM      8  H   UNL     1      15.562   1.692  10.058  0.00  0.00    +0.159 HD
ATOM      9  H   UNL     1      16.880   2.192  11.045  0.00  0.00    +0.159 HD
ENDROOT
BRANCH   1  10
ATOM     10  C   UNL     1      13.514   3.046   9.306  0.00  0.00    +0.151 C 
BRANCH  10  11
ATOM     11  C   UNL     1      12.441   2.365  10.110  0.00  0.00    -0.028 A 
ATOM     12  C   UNL     1      11.326   3.085  10.564  0.00  0.00    +0.005 A 
ATOM     13  C   UNL     1      12.530   0.998  10.417  0.00  0.00    +0.005 A 
ATOM     14  C   UNL     1      10.315   2.446  11.285  0.00  0.00    +0.000 A 
ATOM     15  C   UNL     1      11.519   0.365  11.138  0.00  0.00    +0.000 A 
ATOM     16  C   UNL     1      10.410   1.088  11.569  0.00  0.00    +0.000 A 
ENDBRANCH  10  11
ENDBRANCH   1  10
TORSDOF 2
ENDMDL
MODEL 3
REMARK VINA RESULT:    -5.304      1.918      2.558
REMARK INTER + INTRA:          -6.066
REMARK INTER:                  -5.954
REMARK INTRA:                  -0.112
REMARK UNBOUND:                -0.142
REMARK  Name = 1550473
REMARK  2 active torsions:
REMARK  status: ('A' for Active; 'I' for Inactive)
REMARK    1  A    between atoms: N_1  and  C_4
REMARK    2  A    between atoms: C_4  and  C_5
REMARK                            x       y       z     vdW  Elec       q    Type
REMARK                         _______ _______ _______ _____ _____    ______ ____
ROOT
ATOM      1  N   UNL     1      12.537   5.517  11.717  0.00  0.00    -0.354 N 
ATOM      2  N   UNL     1      14.123   7.141  12.174  0.00  0.00    -0.372 N 
ATOM      3  N   UNL     1      12.519   7.572  10.592  0.00  0.00    -0.372 N 
ATOM      4  C   UNL     1      13.048   6.734  11.489  0.00  0.00    +0.166 C 
ATOM      5  H   UNL     1      13.002   4.917  12.388  0.00  0.00    +0.163 HD
ATOM      6  H   UNL     1      14.529   8.055  12.027  0.00  0.00    +0.159 HD
ATOM      7  H   UNL     1      14.559   6.557  12.878  0.00  0.00    +0.159 HD
ATOM      8  H   UNL     1      11.711   7.323  10.038  0.00  0.00    +0.159 HD
ATOM      9  H   UNL     1      12.918   8.487  10.421  0.00  0.00    +0.159 HD
ENDROOT
BRANCH   1  10
ATOM     10  C   UNL     1      11.337   4.998  11.063  0.00  0.00    +0.151 C 
BRANCH  10  11
ATOM     11  C   UNL     1      11.396   3.496  11.045  0.00  0.00    -0.028 A 
ATOM     12  C   UNL     1      10.387   2.736  11.655  0.00  0.00    +0.005 A 
ATOM     13  C   UNL     1      12.457   2.826  10.416  0.00  0.00    +0.005 A 
ATOM     14  C   UNL     1      10.427   1.340  11.613  0.00  0.00    +0.000 A 
ATOM     15  C   UNL     1      12.493   1.432  10.377  0.00  0.00    +0.000 A 
ATOM     16  C   UNL     1      11.477   0.690  10.973  0.00  0.00    +0.000 A 
ENDBRANCH  10  11
ENDBRANCH   1  10
TORSDOF 2
ENDMDL
MODEL 4
REMARK VINA RESULT:    -5.192      3.753      5.265
REMARK INTER + INTRA:          -5.942
REMARK INTER:                  -5.784
REMARK INTRA:                  -0.158
REMARK UNBOUND:                -0.142
REMARK  Name = 1550473
REMARK  2 active torsions:
REMARK  status: ('A' for Active; 'I' for Inactive)
REMARK    1  A    between atoms: N_1  and  C_4
REMARK    2  A    between atoms: C_4  and  C_5
REMARK                            x       y       z     vdW  Elec       q    Type
REMARK                         _______ _______ _______ _____ _____    ______ ____
ROOT
ATOM      1  N   UNL     1       5.918   5.743  13.062  0.00  0.00    -0.354 N 
ATOM      2  N   UNL     1       4.451   4.010  13.518  0.00  0.00    -0.372 N 
ATOM      3  N   UNL     1       5.144   5.359  15.240  0.00  0.00    -0.372 N 
ATOM      4  C   UNL     1       5.181   5.050  13.940  0.00  0.00    +0.166 C 
ATOM      5  H   UNL     1       5.927   5.440  12.095  0.00  0.00    +0.163 HD
ATOM      6  H   UNL     1       3.883   3.470  14.157  0.00  0.00    +0.159 HD
ATOM      7  H   UNL     1       4.426   3.737  12.543  0.00  0.00    +0.159 HD
ATOM      8  H   UNL     1       5.677   6.128  15.623  0.00  0.00    +0.159 HD
ATOM      9  H   UNL     1       4.591   4.823  15.897  0.00  0.00    +0.159 HD
ENDROOT
BRANCH   1  10
ATOM     10  C   UNL     1       6.706   6.925  13.409  0.00  0.00    +0.151 C 
BRANCH  10  11
ATOM     11  C   UNL     1       8.161   6.548  13.456  0.00  0.00    -0.028 A 
ATOM     12  C   UNL     1       8.654   5.507  12.654  0.00  0.00    +0.005 A 
ATOM     13  C   UNL     1       9.054   7.230  14.297  0.00  0.00    +0.005 A 
ATOM     14  C   UNL     1      10.011   5.177  12.676  0.00  0.00    +0.000 A 
ATOM     15  C   UNL     1      10.408   6.897  14.316  0.00  0.00    +0.000 A 
ATOM     16  C   UNL     1      10.886   5.872  13.503  0.00  0.00    +0.000 A 
ENDBRANCH  10  11
ENDBRANCH   1  10
TORSDOF 2
ENDMDL
MODEL 5
REMARK VINA RESULT:    -5.192      2.852      5.186
REMARK INTER + INTRA:          -5.941
REMARK INTER:                  -5.764
REMARK INTRA:                  -0.177
REMARK UNBOUND:                -0.142
REMARK  Name = 1550473
REMARK  2 active torsions:
REMARK  status: ('A' for Active; 'I' for Inactive)
REMARK    1  A    between atoms: N_1  and  C_4
REMARK    2  A    between atoms: C_4  and  C_5
REMARK                            x       y       z     vdW  Elec       q    Type
REMARK                         _______ _______ _______ _____ _____    ______ ____
ROOT
ATOM      1  N   UNL     1      11.232   4.653  13.439  0.00  0.00    -0.354 N 
ATOM      2  N   UNL     1      11.922   2.540  12.788  0.00  0.00    -0.372 N 
ATOM      3  N   UNL     1      11.182   4.007  11.187  0.00  0.00    -0.372 N 
ATOM      4  C   UNL     1      11.440   3.748  12.473  0.00  0.00    +0.166 C 
ATOM      5  H   UNL     1      11.420   4.385  14.398  0.00  0.00    +0.163 HD
ATOM      6  H   UNL     1      12.092   1.838  12.080  0.00  0.00    +0.159 HD
ATOM      7  H   UNL     1      12.151   2.290  13.742  0.00  0.00    +0.159 HD
ATOM      8  H   UNL     1      10.811   4.898  10.884  0.00  0.00    +0.159 HD
ATOM      9  H   UNL     1      11.335   3.314  10.465  0.00  0.00    +0.159 HD
ENDROOT
BRANCH   1  10
ATOM     10  C   UNL     1      10.761   6.015  13.195  0.00  0.00    +0.151 C 
BRANCH  10  11
ATOM     11  C   UNL     1       9.303   6.102  13.553  0.00  0.00    -0.028 A 
ATOM     12  C   UNL     1       8.908   6.432  14.857  0.00  0.00    +0.005 A 
ATOM     13  C   UNL     1       8.312   5.860  12.589  0.00  0.00    +0.005 A 
ATOM     14  C   UNL     1       7.554   6.542  15.182  0.00  0.00    +0.000 A 
ATOM     15  C   UNL     1       6.961   5.970  12.918  0.00  0.00    +0.000 A 
ATOM     16  C   UNL     1       6.582   6.314  14.214  0.00  0.00    +0.000 A 
ENDBRANCH  10  11
ENDBRANCH   1  10
TORSDOF 2
ENDMDL
MODEL 6
REMARK VINA RESULT:    -4.693      9.156     10.533
REMARK INTER + INTRA:          -5.385
REMARK INTER:                  -5.236
REMARK INTRA:                  -0.149
REMARK UNBOUND:                -0.142
REMARK  Name = 1550473
REMARK  2 active torsions:
REMARK  status: ('A' for Active; 'I' for Inactive)
REMARK    1  A    between atoms: N_1  and  C_4
REMARK    2  A    between atoms: C_4  and  C_5
REMARK                            x       y       z     vdW  Elec       q    Type
REMARK                         _______ _______ _______ _____ _____    ______ ____
ROOT
ATOM      1  N   UNL     1      18.579   3.479   3.708  0.00  0.00    -0.354 N 
ATOM      2  N   UNL     1      17.130   2.363   2.286  0.00  0.00    -0.372 N 
ATOM      3  N   UNL     1      16.864   4.622   2.591  0.00  0.00    -0.372 N 
ATOM      4  C   UNL     1      17.533   3.498   2.871  0.00  0.00    +0.166 C 
ATOM      5  H   UNL     1      19.024   2.590   3.902  0.00  0.00    +0.163 HD
ATOM      6  H   UNL     1      16.347   2.347   1.648  0.00  0.00    +0.159 HD
ATOM      7  H   UNL     1      17.606   1.484   2.447  0.00  0.00    +0.159 HD
ATOM      8  H   UNL     1      17.114   5.511   3.004  0.00  0.00    +0.159 HD
ATOM      9  H   UNL     1      16.070   4.624   1.964  0.00  0.00    +0.159 HD
ENDROOT
BRANCH   1  10
ATOM     10  C   UNL     1      19.130   4.669   4.354  0.00  0.00    +0.151 C 
BRANCH  10  11
ATOM     11  C   UNL     1      18.675   4.705   5.787  0.00  0.00    -0.028 A 
ATOM     12  C   UNL     1      18.602   5.922   6.481  0.00  0.00    +0.005 A 
ATOM     13  C   UNL     1      18.310   3.526   6.455  0.00  0.00    +0.005 A 
ATOM     14  C   UNL     1      18.151   5.959   7.802  0.00  0.00    +0.000 A 
ATOM     15  C   UNL     1      17.860   3.568   7.775  0.00  0.00    +0.000 A 
ATOM     16  C   UNL     1      17.779   4.784   8.447  0.00  0.00    +0.000 A 
ENDBRANCH  10  11
ENDBRANCH   1  10
TORSDOF 2
ENDMDL
MODEL 7
REMARK VINA RESULT:    -4.577     22.251     23.673
REMARK INTER + INTRA:          -5.254
REMARK INTER:                  -5.138
REMARK INTRA:                  -0.116
REMARK UNBOUND:                -0.142
REMARK  Name = 1550473
REMARK  2 active torsions:
REMARK  status: ('A' for Active; 'I' for Inactive)
REMARK    1  A    between atoms: N_1  and  C_4
REMARK    2  A    between atoms: C_4  and  C_5
REMARK                            x       y       z     vdW  Elec       q    Type
REMARK                         _______ _______ _______ _____ _____    ______ ____
ROOT
ATOM      1  N   UNL     1      28.676  19.200  15.855  0.00  0.00    -0.354 N 
ATOM      2  N   UNL     1      29.557  17.180  16.566  0.00  0.00    -0.372 N 
ATOM      3  N   UNL     1      30.959  18.730  15.619  0.00  0.00    -0.372 N 
ATOM      4  C   UNL     1      29.727  18.384  16.007  0.00  0.00    +0.166 C 
ATOM      5  H   UNL     1      27.763  18.867  16.142  0.00  0.00    +0.163 HD
ATOM      6  H   UNL     1      30.333  16.544  16.697  0.00  0.00    +0.159 HD
ATOM      7  H   UNL     1      28.652  16.868  16.895  0.00  0.00    +0.159 HD
ATOM      8  H   UNL     1      31.154  19.622  15.185  0.00  0.00    +0.159 HD
ATOM      9  H   UNL     1      31.746  18.102  15.731  0.00  0.00    +0.159 HD
ENDROOT
BRANCH   1  10
ATOM     10  C   UNL     1      28.763  20.553  15.307  0.00  0.00    +0.151 C 
BRANCH  10  11
ATOM     11  C   UNL     1      27.374  21.102  15.131  0.00  0.00    -0.028 A 
ATOM     12  C   UNL     1      27.129  22.476  15.271  0.00  0.00    +0.005 A 
ATOM     13  C   UNL     1      26.300  20.254  14.818  0.00  0.00    +0.005 A 
ATOM     14  C   UNL     1      25.844  22.990  15.078  0.00  0.00    +0.000 A 
ATOM     15  C   UNL     1      25.019  20.772  14.627  0.00  0.00    +0.000 A 
ATOM     16  C   UNL     1      24.792  22.140  14.755  0.00  0.00    +0.000 A 
ENDBRANCH  10  11
ENDBRANCH   1  10
TORSDOF 2
ENDMDL
MODEL 8
REMARK VINA RESULT:    -4.563      2.410      3.516
REMARK INTER + INTRA:          -5.239
REMARK INTER:                  -5.101
REMARK INTRA:                  -0.138
REMARK UNBOUND:                -0.142
REMARK  Name = 1550473
REMARK  2 active torsions:
REMARK  status: ('A' for Active; 'I' for Inactive)
REMARK    1  A    between atoms: N_1  and  C_4
REMARK    2  A    between atoms: C_4  and  C_5
REMARK                            x       y       z     vdW  Elec       q    Type
REMARK                         _______ _______ _______ _____ _____    ______ ____
ROOT
ATOM      1  N   UNL     1       8.386   6.938  14.449  0.00  0.00    -0.354 N 
ATOM      2  N   UNL     1       6.361   8.042  14.235  0.00  0.00    -0.372 N 
ATOM      3  N   UNL     1       8.265   9.275  14.575  0.00  0.00    -0.372 N 
ATOM      4  C   UNL     1       7.686   8.080  14.422  0.00  0.00    +0.166 C 
ATOM      5  H   UNL     1       7.883   6.063  14.357  0.00  0.00    +0.163 HD
ATOM      6  H   UNL     1       5.807   8.887  14.206  0.00  0.00    +0.159 HD
ATOM      7  H   UNL     1       5.867   7.168  14.097  0.00  0.00    +0.159 HD
ATOM      8  H   UNL     1       9.261   9.372  14.726  0.00  0.00    +0.159 HD
ATOM      9  H   UNL     1       7.726  10.132  14.561  0.00  0.00    +0.159 HD
ENDROOT
BRANCH   1  10
ATOM     10  C   UNL     1       9.839   6.873  14.593  0.00  0.00    +0.151 C 
BRANCH  10  11
ATOM     11  C   UNL     1      10.420   6.169  13.398  0.00  0.00    -0.028 A 
ATOM     12  C   UNL     1       9.853   4.975  12.930  0.00  0.00    +0.005 A 
ATOM     13  C   UNL     1      11.535   6.694  12.726  0.00  0.00    +0.005 A 
ATOM     14  C   UNL     1      10.373   4.336  11.802  0.00  0.00    +0.000 A 
ATOM     15  C   UNL     1      12.052   6.053  11.601  0.00  0.00    +0.000 A 
ATOM     16  C   UNL     1      11.470   4.875  11.138  0.00  0.00    +0.000 A 
ENDBRANCH  10  11
ENDBRANCH   1  10
TORSDOF 2
ENDMDL
MODEL 9
REMARK VINA RESULT:    -4.499      6.139      7.477
REMARK INTER + INTRA:          -5.168
REMARK INTER:                  -4.987
REMARK INTRA:                  -0.181
REMARK UNBOUND:                -0.142
REMARK  Name = 1550473
REMARK  2 active torsions:
REMARK  status: ('A' for Active; 'I' for Inactive)
REMARK    1  A    between atoms: N_1  and  C_4
REMARK    2  A    between atoms: C_4  and  C_5
REMARK                            x       y       z     vdW  Elec       q    Type
REMARK                         _______ _______ _______ _____ _____    ______ ____
ROOT
ATOM      1  N   UNL     1      15.706   2.776   9.252  0.00  0.00    -0.354 N 
ATOM      2  N   UNL     1      13.403   2.541   9.292  0.00  0.00    -0.372 N 
ATOM      3  N   UNL     1      14.450   3.508  11.090  0.00  0.00    -0.372 N 
ATOM      4  C   UNL     1      14.535   2.944   9.880  0.00  0.00    +0.166 C 
ATOM      5  H   UNL     1      15.707   2.314   8.350  0.00  0.00    +0.163 HD
ATOM      6  H   UNL     1      12.504   2.659   9.740  0.00  0.00    +0.159 HD
ATOM      7  H   UNL     1      13.401   2.122   8.370  0.00  0.00    +0.159 HD
ATOM      8  H   UNL     1      15.269   3.828  11.590  0.00  0.00    +0.159 HD
ATOM      9  H   UNL     1      13.561   3.623  11.560  0.00  0.00    +0.159 HD
ENDROOT
BRANCH   1  10
ATOM     10  C   UNL     1      16.991   3.228   9.783  0.00  0.00    +0.151 C 
BRANCH  10  11
ATOM     11  C   UNL     1      17.399   4.490   9.073  0.00  0.00    -0.028 A 
ATOM     12  C   UNL     1      17.177   5.743   9.664  0.00  0.00    +0.005 A 
ATOM     13  C   UNL     1      18.013   4.440   7.812  0.00  0.00    +0.005 A 
ATOM     14  C   UNL     1      17.582   6.913   9.019  0.00  0.00    +0.000 A 
ATOM     15  C   UNL     1      18.415   5.611   7.171  0.00  0.00    +0.000 A 
ATOM     16  C   UNL     1      18.202   6.847   7.776  0.00  0.00    +0.000 A 
ENDBRANCH  10  11
ENDBRANCH   1  10
TORSDOF 2
ENDMDL
