MODEL 1
REMARK VINA RESULT:    -5.860      0.000      0.000
REMARK INTER + INTRA:          -6.685
REMARK INTER:                  -6.545
REMARK INTRA:                  -0.139
REMARK UNBOUND:                -0.139
REMARK  Name = 1550473
REMARK  2 active torsions:
REMARK  status: ('A' for Active; 'I' for Inactive)
REMARK    1  A    between atoms: N_1  and  C_4
REMARK    2  A    between atoms: C_4  and  C_5
REMARK                            x       y       z     vdW  Elec       q    Type
REMARK                         _______ _______ _______ _____ _____    ______ ____
ROOT
ATOM      1  N   UNL     1      21.809  22.945  25.971  0.00  0.00    -0.354 N 
ATOM      2  N   UNL     1      24.071  23.321  26.293  0.00  0.00    -0.372 N 
ATOM      3  N   UNL     1      22.709  25.102  25.810  0.00  0.00    -0.372 N 
ATOM      4  C   UNL     1      22.847  23.789  26.022  0.00  0.00    +0.166 C 
ATOM      5  H   UNL     1      21.985  21.956  26.111  0.00  0.00    +0.163 HD
ATOM      6  H   UNL     1      24.873  23.934  26.341  0.00  0.00    +0.159 HD
ATOM      7  H   UNL     1      24.237  22.339  26.478  0.00  0.00    +0.159 HD
ATOM      8  H   UNL     1      21.812  25.518  25.595  0.00  0.00    +0.159 HD
ATOM      9  H   UNL     1      23.501  25.731  25.842  0.00  0.00    +0.159 HD
ENDROOT
BRANCH   1  10
ATOM     10  C   UNL     1      20.427  23.361  25.737  0.00  0.00    +0.151 C 
BRANCH  10  11
ATOM     11  C   UNL     1      19.538  22.711  26.761  0.00  0.00    -0.028 A 
ATOM     12  C   UNL     1      18.288  22.192  26.392  0.00  0.00    +0.005 A 
ATOM     13  C   UNL     1      19.942  22.605  28.101  0.00  0.00    +0.005 A 
ATOM     14  C   UNL     1      17.475  21.562  27.337  0.00  0.00    +0.000 A 
ATOM     15  C   UNL     1      19.127  21.976  29.041  0.00  0.00    +0.000 A 
ATOM     16  C   UNL     1      17.894  21.452  28.658  0.00  0.00    +0.000 A 
ENDBRANCH  10  11
ENDBRANCH   1  10
TORSDOF 2
ENDMDL
MODEL 2
REMARK VINA RESULT:    -5.380      1.171      1.692
REMARK INTER + INTRA:          -6.148
REMARK INTER:                  -6.000
REMARK INTRA:                  -0.148
REMARK UNBOUND:                -0.139
REMARK  Name = 1550473
REMARK  2 active torsions:
REMARK  status: ('A' for Active; 'I' for Inactive)
REMARK    1  A    between atoms: N_1  and  C_4
REMARK    2  A    between atoms: C_4  and  C_5
REMARK                            x       y       z     vdW  Elec       q    Type
REMARK                         _______ _______ _______ _____ _____    ______ ____
ROOT
ATOM      1  N   UNL     1      21.771  22.929  26.015  0.00  0.00    -0.354 N 
ATOM      2  N   UNL     1      24.027  23.342  26.336  0.00  0.00    -0.372 N 
ATOM      3  N   UNL     1      22.674  25.058  25.638  0.00  0.00    -0.372 N 
ATOM      4  C   UNL     1      22.808  23.776  25.993  0.00  0.00    +0.166 C 
ATOM      5  H   UNL     1      21.944  21.962  26.265  0.00  0.00    +0.163 HD
ATOM      6  H   UNL     1      24.828  23.959  26.333  0.00  0.00    +0.159 HD
ATOM      7  H   UNL     1      24.189  22.386  26.630  0.00  0.00    +0.159 HD
ATOM      8  H   UNL     1      21.782  25.447  25.362  0.00  0.00    +0.159 HD
ATOM      9  H   UNL     1      23.466  25.688  25.616  0.00  0.00    +0.159 HD
ENDROOT
BRANCH   1  10
ATOM     10  C   UNL     1      20.394  23.315  25.711  0.00  0.00    +0.151 C 
BRANCH  10  11
ATOM     11  C   UNL     1      19.592  23.315  26.984  0.00  0.00    -0.028 A 
ATOM     12  C   UNL     1      20.022  22.578  28.097  0.00  0.00    +0.005 A 
ATOM     13  C   UNL     1      18.404  24.055  27.084  0.00  0.00    +0.005 A 
ATOM     14  C   UNL     1      19.293  22.602  29.288  0.00  0.00    +0.000 A 
ATOM     15  C   UNL     1      17.679  24.076  28.276  0.00  0.00    +0.000 A 
ATOM     16  C   UNL     1      18.125  23.351  29.378  0.00  0.00    +0.000 A 
ENDBRANCH  10  11
ENDBRANCH   1  10
TORSDOF 2
ENDMDL
MODEL 3
REMARK VINA RESULT:    -5.075      2.054      2.759
REMARK INTER + INTRA:          -5.807
REMARK INTER:                  -5.710
REMARK INTRA:                  -0.097
REMARK UNBOUND:                -0.139
REMARK  Name = 1550473
REMARK  2 active torsions:
REMARK  status: ('A' for Active; 'I' for Inactive)
REMARK    1  A    between atoms: N_1  and  C_4
REMARK    2  A    between atoms: C_4  and  C_5
REMARK                            x       y       z     vdW  Elec       q    Type
REMARK                         _______ _______ _______ _____ _____    ______ ____
ROOT
ATOM      1  N   UNL     1      19.612  24.881  27.568  0.00  0.00    -0.354 N 
ATOM      2  N   UNL     1      19.622  27.021  26.683  0.00  0.00    -0.372 N 
ATOM      3  N   UNL     1      21.365  25.611  26.195  0.00  0.00    -0.372 N 
ATOM      4  C   UNL     1      20.202  25.823  26.820  0.00  0.00    +0.166 C 
ATOM      5  H   UNL     1      18.746  25.114  28.041  0.00  0.00    +0.163 HD
ATOM      6  H   UNL     1      20.042  27.750  26.122  0.00  0.00    +0.159 HD
ATOM      7  H   UNL     1      18.734  27.236  27.119  0.00  0.00    +0.159 HD
ATOM      8  H   UNL     1      21.857  24.730  26.264  0.00  0.00    +0.159 HD
ATOM      9  H   UNL     1      21.807  26.332  25.639  0.00  0.00    +0.159 HD
ENDROOT
BRANCH   1  10
ATOM     10  C   UNL     1      20.134  23.526  27.739  0.00  0.00    +0.151 C 
BRANCH  10  11
ATOM     11  C   UNL     1      19.178  22.735  28.588  0.00  0.00    -0.028 A 
ATOM     12  C   UNL     1      18.535  21.601  28.070  0.00  0.00    +0.005 A 
ATOM     13  C   UNL     1      18.914  23.111  29.915  0.00  0.00    +0.005 A 
ATOM     14  C   UNL     1      17.670  20.848  28.868  0.00  0.00    +0.000 A 
ATOM     15  C   UNL     1      18.049  22.357  30.708  0.00  0.00    +0.000 A 
ATOM     16  C   UNL     1      17.429  21.225  30.185  0.00  0.00    +0.000 A 
ENDBRANCH  10  11
ENDBRANCH   1  10
TORSDOF 2
ENDMDL
MODEL 4
REMARK VINA RESULT:    -5.061      1.883      3.062
REMARK INTER + INTRA:          -5.792
REMARK INTER:                  -5.674
REMARK INTRA:                  -0.117
REMARK UNBOUND:                -0.139
REMARK  Name = 1550473
REMARK  2 active torsions:
REMARK  status: ('A' for Active; 'I' for Inactive)
REMARK    1  A    between atoms: N_1  and  C_4
REMARK    2  A    between atoms: C_4  and  C_5
REMARK                            x       y       z     vdW  Elec       q    Type
REMARK                         _______ _______ _______ _____ _____    ______ ____
ROOT
ATOM      1  N   UNL     1      19.094  22.559  26.810  0.00  0.00    -0.354 N 
ATOM      2  N   UNL     1      19.278  22.502  24.502  0.00  0.00    -0.372 N 
ATOM      3  N   UNL     1      21.115  23.087  25.747  0.00  0.00    -0.372 N 
ATOM      4  C   UNL     1      19.830  22.717  25.702  0.00  0.00    +0.166 C 
ATOM      5  H   UNL     1      18.118  22.307  26.708  0.00  0.00    +0.163 HD
ATOM      6  H   UNL     1      19.809  22.610  23.649  0.00  0.00    +0.159 HD
ATOM      7  H   UNL     1      18.314  22.205  24.405  0.00  0.00    +0.159 HD
ATOM      8  H   UNL     1      21.589  23.271  26.620  0.00  0.00    +0.159 HD
ATOM      9  H   UNL     1      21.660  23.212  24.903  0.00  0.00    +0.159 HD
ENDROOT
BRANCH   1  10
ATOM     10  C   UNL     1      19.615  22.717  28.167  0.00  0.00    +0.151 C 
BRANCH  10  11
ATOM     11  C   UNL     1      18.672  22.057  29.135  0.00  0.00    -0.028 A 
ATOM     12  C   UNL     1      18.080  20.824  28.824  0.00  0.00    +0.005 A 
ATOM     13  C   UNL     1      18.371  22.657  30.367  0.00  0.00    +0.005 A 
ATOM     14  C   UNL     1      17.227  20.197  29.736  0.00  0.00    +0.000 A 
ATOM     15  C   UNL     1      17.518  22.028  31.274  0.00  0.00    +0.000 A 
ATOM     16  C   UNL     1      16.949  20.797  30.959  0.00  0.00    +0.000 A 
ENDBRANCH  10  11
ENDBRANCH   1  10
TORSDOF 2
ENDMDL
MODEL 5
REMARK VINA RESULT:    -4.832      1.968      3.070
REMARK INTER + INTRA:          -5.536
REMARK INTER:                  -5.378
REMARK INTRA:                  -0.158
REMARK UNBOUND:                -0.139
REMARK  Name = 1550473
REMARK  2 active torsions:
REMARK  status: ('A' for Active; 'I' for Inactive)
REMARK    1  A    between atoms: N_1  and  C_4
REMARK    2  A    between atoms: C_4  and  C_5
REMARK                            x       y       z     vdW  Elec       q    Type
REMARK                         _______ _______ _______ _____ _____    ______ ____
ROOT
ATOM      1  N   UNL     1      22.541  24.996  25.828  0.00  0.00    -0.354 N 
ATOM      2  N   UNL     1      24.729  24.822  25.089  0.00  0.00    -0.372 N 
ATOM      3  N   UNL     1      23.966  23.328  26.653  0.00  0.00    -0.372 N 
ATOM      4  C   UNL     1      23.731  24.381  25.863  0.00  0.00    +0.166 C 
ATOM      5  H   UNL     1      22.437  25.807  25.230  0.00  0.00    +0.163 HD
ATOM      6  H   UNL     1      25.637  24.377  25.091  0.00  0.00    +0.159 HD
ATOM      7  H   UNL     1      24.608  25.606  24.458  0.00  0.00    +0.159 HD
ATOM      8  H   UNL     1      23.256  22.950  27.266  0.00  0.00    +0.159 HD
ATOM      9  H   UNL     1      24.871  22.876  26.679  0.00  0.00    +0.159 HD
ENDROOT
BRANCH   1  10
ATOM     10  C   UNL     1      21.373  24.561  26.592  0.00  0.00    +0.151 C 
BRANCH  10  11
ATOM     11  C   UNL     1      20.367  23.958  25.650  0.00  0.00    -0.028 A 
ATOM     12  C   UNL     1      20.125  24.542  24.398  0.00  0.00    +0.005 A 
ATOM     13  C   UNL     1      19.657  22.800  26.002  0.00  0.00    +0.005 A 
ATOM     14  C   UNL     1      19.212  23.966  23.511  0.00  0.00    +0.000 A 
ATOM     15  C   UNL     1      18.746  22.229  25.114  0.00  0.00    +0.000 A 
ATOM     16  C   UNL     1      18.526  22.810  23.868  0.00  0.00    +0.000 A 
ENDBRANCH  10  11
ENDBRANCH   1  10
TORSDOF 2
ENDMDL
MODEL 6
REMARK VINA RESULT:    -4.737      9.990     11.158
REMARK INTER + INTRA:          -5.430
REMARK INTER:                  -5.326
REMARK INTRA:                  -0.104
REMARK UNBOUND:                -0.139
REMARK  Name = 1550473
REMARK  2 active torsions:
REMARK  status: ('A' for Active; 'I' for Inactive)
REMARK    1  A    between atoms: N_1  and  C_4
REMARK    2  A    between atoms: C_4  and  C_5
REMARK                            x       y       z     vdW  Elec       q    Type
REMARK                         _______ _______ _______ _____ _____    ______ ____
ROOT
ATOM      1  N   UNL     1      13.821  26.288  35.305  0.00  0.00    -0.354 N 
ATOM      2  N   UNL     1      12.785  28.350  35.501  0.00  0.00    -0.372 N 
ATOM      3  N   UNL     1      12.934  27.376  33.429  0.00  0.00    -0.372 N 
ATOM      4  C   UNL     1      13.187  27.324  34.741  0.00  0.00    +0.166 C 
ATOM      5  H   UNL     1      14.009  26.323  36.301  0.00  0.00    +0.163 HD
ATOM      6  H   UNL     1      12.301  29.144  35.104  0.00  0.00    +0.159 HD
ATOM      7  H   UNL     1      12.933  28.361  36.503  0.00  0.00    +0.159 HD
ATOM      8  H   UNL     1      13.217  26.637  32.799  0.00  0.00    +0.159 HD
ATOM      9  H   UNL     1      12.461  28.168  33.011  0.00  0.00    +0.159 HD
ENDROOT
BRANCH   1  10
ATOM     10  C   UNL     1      14.252  25.097  34.575  0.00  0.00    +0.151 C 
BRANCH  10  11
ATOM     11  C   UNL     1      15.216  24.320  35.428  0.00  0.00    -0.028 A 
ATOM     12  C   UNL     1      14.891  23.993  36.753  0.00  0.00    +0.005 A 
ATOM     13  C   UNL     1      16.454  23.902  34.916  0.00  0.00    +0.005 A 
ATOM     14  C   UNL     1      15.774  23.246  37.536  0.00  0.00    +0.000 A 
ATOM     15  C   UNL     1      17.333  23.157  35.702  0.00  0.00    +0.000 A 
ATOM     16  C   UNL     1      16.991  22.827  37.011  0.00  0.00    +0.000 A 
ENDBRANCH  10  11
ENDBRANCH   1  10
TORSDOF 2
ENDMDL
MODEL 7
REMARK VINA RESULT:    -4.643      1.927      3.067
REMARK INTER + INTRA:          -5.325
REMARK INTER:                  -5.184
REMARK INTRA:                  -0.140
REMARK UNBOUND:                -0.139
REMARK  Name = 1550473
REMARK  2 active torsions:
REMARK  status: ('A' for Active; 'I' for Inactive)
REMARK    1  A    between atoms: N_1  and  C_4
REMARK    2  A    between atoms: C_4  and  C_5
REMARK                            x       y       z     vdW  Elec       q    Type
REMARK                         _______ _______ _______ _____ _____    ______ ____
ROOT
ATOM      1  N   UNL     1      19.455  24.127  28.224  0.00  0.00    -0.354 N 
ATOM      2  N   UNL     1      19.772  26.117  27.082  0.00  0.00    -0.372 N 
ATOM      3  N   UNL     1      21.268  24.406  26.765  0.00  0.00    -0.372 N 
ATOM      4  C   UNL     1      20.165  24.869  27.364  0.00  0.00    +0.166 C 
ATOM      5  H   UNL     1      18.645  24.547  28.667  0.00  0.00    +0.163 HD
ATOM      6  H   UNL     1      20.286  26.700  26.435  0.00  0.00    +0.159 HD
ATOM      7  H   UNL     1      18.937  26.518  27.491  0.00  0.00    +0.159 HD
ATOM      8  H   UNL     1      21.621  23.475  26.940  0.00  0.00    +0.159 HD
ATOM      9  H   UNL     1      21.802  24.978  26.123  0.00  0.00    +0.159 HD
ENDROOT
BRANCH   1  10
ATOM     10  C   UNL     1      19.767  22.739  28.557  0.00  0.00    +0.151 C 
BRANCH  10  11
ATOM     11  C   UNL     1      18.520  21.909  28.424  0.00  0.00    -0.028 A 
ATOM     12  C   UNL     1      18.122  21.051  29.460  0.00  0.00    +0.005 A 
ATOM     13  C   UNL     1      17.728  21.981  27.268  0.00  0.00    +0.005 A 
ATOM     14  C   UNL     1      16.947  20.303  29.350  0.00  0.00    +0.000 A 
ATOM     15  C   UNL     1      16.557  21.232  27.161  0.00  0.00    +0.000 A 
ATOM     16  C   UNL     1      16.165  20.395  28.203  0.00  0.00    +0.000 A 
ENDBRANCH  10  11
ENDBRANCH   1  10
TORSDOF 2
ENDMDL
MODEL 8
REMARK VINA RESULT:    -4.320      2.679      3.561
REMARK INTER + INTRA:          -4.965
REMARK INTER:                  -4.815
REMARK INTRA:                  -0.149
REMARK UNBOUND:                -0.139
REMARK  Name = 1550473
REMARK  2 active torsions:
REMARK  status: ('A' for Active; 'I' for Inactive)
REMARK    1  A    between atoms: N_1  and  C_4
REMARK    2  A    between atoms: C_4  and  C_5
REMARK                            x       y       z     vdW  Elec       q    Type
REMARK                         _______ _______ _______ _____ _____    ______ ____
ROOT
ATOM      1  N   UNL     1      19.472  23.519  23.619  0.00  0.00    -0.354 N 
ATOM      2  N   UNL     1      19.911  25.489  22.484  0.00  0.00    -0.372 N 
ATOM      3  N   UNL     1      17.736  24.962  22.989  0.00  0.00    -0.372 N 
ATOM      4  C   UNL     1      19.034  24.644  23.038  0.00  0.00    +0.166 C 
ATOM      5  H   UNL     1      20.465  23.320  23.596  0.00  0.00    +0.163 HD
ATOM      6  H   UNL     1      19.611  26.347  22.041  0.00  0.00    +0.159 HD
ATOM      7  H   UNL     1      20.908  25.311  22.503  0.00  0.00    +0.159 HD
ATOM      8  H   UNL     1      17.023  24.363  23.383  0.00  0.00    +0.159 HD
ATOM      9  H   UNL     1      17.415  25.811  22.540  0.00  0.00    +0.159 HD
ENDROOT
BRANCH   1  10
ATOM     10  C   UNL     1      18.604  22.558  24.298  0.00  0.00    +0.151 C 
BRANCH  10  11
ATOM     11  C   UNL     1      18.987  22.491  25.750  0.00  0.00    -0.028 A 
ATOM     12  C   UNL     1      20.219  23.001  26.186  0.00  0.00    +0.005 A 
ATOM     13  C   UNL     1      18.120  21.925  26.697  0.00  0.00    +0.005 A 
ATOM     14  C   UNL     1      20.563  22.966  27.539  0.00  0.00    +0.000 A 
ATOM     15  C   UNL     1      18.468  21.891  28.048  0.00  0.00    +0.000 A 
ATOM     16  C   UNL     1      19.688  22.414  28.469  0.00  0.00    +0.000 A 
ENDBRANCH  10  11
ENDBRANCH   1  10
TORSDOF 2
ENDMDL
MODEL 9
REMARK VINA RESULT:    -4.264     42.611     43.662
REMARK INTER + INTRA:          -4.902
REMARK INTER:                  -4.779
REMARK INTRA:                  -0.123
REMARK UNBOUND:                -0.139
REMARK  Name = 1550473
REMARK  2 active torsions:
REMARK  status: ('A' for Active; 'I' for Inactive)
REMARK    1  A    between atoms: N_1  and  C_4
REMARK    2  A    between atoms: C_4  and  C_5
REMARK                            x       y       z     vdW  Elec       q    Type
REMARK                         _______ _______ _______ _____ _____    ______ ____
ROOT
ATOM      1  N   UNL     1       4.372  -7.467  -0.767  0.00  0.00    -0.354 N 
ATOM      2  N   UNL     1       4.371  -9.777  -0.939  0.00  0.00    -0.372 N 
ATOM      3  N   UNL     1       4.261  -8.820   1.144  0.00  0.00    -0.372 N 
ATOM      4  C   UNL     1       4.335  -8.673  -0.183  0.00  0.00    +0.166 C 
ATOM      5  H   UNL     1       4.458  -7.423  -1.776  0.00  0.00    +0.163 HD
ATOM      6  H   UNL     1       4.341 -10.700  -0.528  0.00  0.00    +0.159 HD
ATOM      7  H   UNL     1       4.411  -9.729  -1.950  0.00  0.00    +0.159 HD
ATOM      8  H   UNL     1       4.236  -8.027   1.770  0.00  0.00    +0.159 HD
ATOM      9  H   UNL     1       4.242  -9.736   1.575  0.00  0.00    +0.159 HD
ENDROOT
BRANCH   1  10
ATOM     10  C   UNL     1       4.283  -6.203  -0.038  0.00  0.00    +0.151 C 
BRANCH  10  11
ATOM     11  C   UNL     1       3.779  -5.134  -0.967  0.00  0.00    -0.028 A 
ATOM     12  C   UNL     1       3.886  -5.291  -2.357  0.00  0.00    +0.005 A 
ATOM     13  C   UNL     1       3.187  -3.965  -0.465  0.00  0.00    +0.005 A 
ATOM     14  C   UNL     1       3.390  -4.312  -3.221  0.00  0.00    +0.000 A 
ATOM     15  C   UNL     1       2.694  -2.990  -1.331  0.00  0.00    +0.000 A 
ATOM     16  C   UNL     1       2.793  -3.164  -2.709  0.00  0.00    +0.000 A 
ENDBRANCH  10  11
ENDBRANCH   1  10
TORSDOF 2
ENDMDL
