MODEL 1
REMARK VINA RESULT:    -5.534      0.000      0.000
REMARK INTER + INTRA:          -6.332
REMARK INTER:                  -6.181
REMARK INTRA:                  -0.151
REMARK UNBOUND:                -0.151
REMARK  Name = 1550473
REMARK  2 active torsions:
REMARK  status: ('A' for Active; 'I' for Inactive)
REMARK    1  A    between atoms: N_1  and  C_4
REMARK    2  A    between atoms: C_4  and  C_5
REMARK                            x       y       z     vdW  Elec       q    Type
REMARK                         _______ _______ _______ _____ _____    ______ ____
ROOT
ATOM      1  N   UNL     1     -12.654   5.418  -7.906  0.00  0.00    -0.354 N 
ATOM      2  N   UNL     1     -12.443   5.165 -10.198  0.00  0.00    -0.372 N 
ATOM      3  N   UNL     1     -14.511   5.631  -9.319  0.00  0.00    -0.372 N 
ATOM      4  C   UNL     1     -13.207   5.407  -9.126  0.00  0.00    +0.166 C 
ATOM      5  H   UNL     1     -11.665   5.211  -7.823  0.00  0.00    +0.163 HD
ATOM      6  H   UNL     1     -12.831   5.154 -11.132  0.00  0.00    +0.159 HD
ATOM      7  H   UNL     1     -11.446   5.004 -10.117  0.00  0.00    +0.159 HD
ATOM      8  H   UNL     1     -15.142   5.813  -8.551  0.00  0.00    +0.159 HD
ATOM      9  H   UNL     1     -14.920   5.612 -10.245  0.00  0.00    +0.159 HD
ENDROOT
BRANCH   1  10
ATOM     10  C   UNL     1     -13.387   5.724  -6.678  0.00  0.00    +0.151 C 
BRANCH  10  11
ATOM     11  C   UNL     1     -13.343   4.527  -5.769  0.00  0.00    -0.028 A 
ATOM     12  C   UNL     1     -14.272   4.389  -4.727  0.00  0.00    +0.005 A 
ATOM     13  C   UNL     1     -12.378   3.523  -5.948  0.00  0.00    +0.005 A 
ATOM     14  C   UNL     1     -14.250   3.263  -3.901  0.00  0.00    +0.000 A 
ATOM     15  C   UNL     1     -12.359   2.401  -5.120  0.00  0.00    +0.000 A 
ATOM     16  C   UNL     1     -13.296   2.270  -4.098  0.00  0.00    +0.000 A 
ENDBRANCH  10  11
ENDBRANCH   1  10
TORSDOF 2
ENDMDL
MODEL 2
REMARK VINA RESULT:    -5.259     19.553     20.689
REMARK INTER + INTRA:          -6.024
REMARK INTER:                  -5.840
REMARK INTRA:                  -0.184
REMARK UNBOUND:                -0.151
REMARK  Name = 1550473
REMARK  2 active torsions:
REMARK  status: ('A' for Active; 'I' for Inactive)
REMARK    1  A    between atoms: N_1  and  C_4
REMARK    2  A    between atoms: C_4  and  C_5
REMARK                            x       y       z     vdW  Elec       q    Type
REMARK                         _______ _______ _______ _____ _____    ______ ____
ROOT
ATOM      1  N   UNL     1       4.642  -3.408  -1.158  0.00  0.00    -0.354 N 
ATOM      2  N   UNL     1       4.325  -3.626   1.125  0.00  0.00    -0.372 N 
ATOM      3  N   UNL     1       2.493  -3.646  -0.255  0.00  0.00    -0.372 N 
ATOM      4  C   UNL     1       3.819  -3.558  -0.112  0.00  0.00    +0.166 C 
ATOM      5  H   UNL     1       5.636  -3.317  -0.980  0.00  0.00    +0.163 HD
ATOM      6  H   UNL     1       3.730  -3.743   1.934  0.00  0.00    +0.159 HD
ATOM      7  H   UNL     1       5.322  -3.581   1.297  0.00  0.00    +0.159 HD
ATOM      8  H   UNL     1       2.048  -3.596  -1.162  0.00  0.00    +0.159 HD
ATOM      9  H   UNL     1       1.879  -3.752   0.543  0.00  0.00    +0.159 HD
ENDROOT
BRANCH   1  10
ATOM     10  C   UNL     1       4.197  -3.377  -2.551  0.00  0.00    +0.151 C 
BRANCH  10  11
ATOM     11  C   UNL     1       4.372  -4.744  -3.152  0.00  0.00    -0.028 A 
ATOM     12  C   UNL     1       5.655  -5.269  -3.367  0.00  0.00    +0.005 A 
ATOM     13  C   UNL     1       3.258  -5.522  -3.505  0.00  0.00    +0.005 A 
ATOM     14  C   UNL     1       5.817  -6.551  -3.899  0.00  0.00    +0.000 A 
ATOM     15  C   UNL     1       3.425  -6.801  -4.036  0.00  0.00    +0.000 A 
ATOM     16  C   UNL     1       4.704  -7.316  -4.230  0.00  0.00    +0.000 A 
ENDBRANCH  10  11
ENDBRANCH   1  10
TORSDOF 2
ENDMDL
MODEL 3
REMARK VINA RESULT:    -5.177     18.383     19.562
REMARK INTER + INTRA:          -5.933
REMARK INTER:                  -5.805
REMARK INTRA:                  -0.128
REMARK UNBOUND:                -0.151
REMARK  Name = 1550473
REMARK  2 active torsions:
REMARK  status: ('A' for Active; 'I' for Inactive)
REMARK    1  A    between atoms: N_1  and  C_4
REMARK    2  A    between atoms: C_4  and  C_5
REMARK                            x       y       z     vdW  Elec       q    Type
REMARK                         _______ _______ _______ _____ _____    ______ ____
ROOT
ATOM      1  N   UNL     1       1.479  -6.393  -0.568  0.00  0.00    -0.354 N 
ATOM      2  N   UNL     1       3.455  -5.202  -0.763  0.00  0.00    -0.372 N 
ATOM      3  N   UNL     1       1.498  -4.055  -0.418  0.00  0.00    -0.372 N 
ATOM      4  C   UNL     1       2.129  -5.222  -0.582  0.00  0.00    +0.166 C 
ATOM      5  H   UNL     1       2.010  -7.241  -0.728  0.00  0.00    +0.163 HD
ATOM      6  H   UNL     1       3.973  -4.334  -0.774  0.00  0.00    +0.159 HD
ATOM      7  H   UNL     1       3.990  -6.054  -0.877  0.00  0.00    +0.159 HD
ATOM      8  H   UNL     1       0.497  -4.001  -0.283  0.00  0.00    +0.159 HD
ATOM      9  H   UNL     1       1.998  -3.174  -0.438  0.00  0.00    +0.159 HD
ENDROOT
BRANCH   1  10
ATOM     10  C   UNL     1       0.044  -6.529  -0.324  0.00  0.00    +0.151 C 
BRANCH  10  11
ATOM     11  C   UNL     1      -0.178  -7.559   0.748  0.00  0.00    -0.028 A 
ATOM     12  C   UNL     1      -0.391  -8.903   0.411  0.00  0.00    +0.005 A 
ATOM     13  C   UNL     1      -0.168  -7.198   2.105  0.00  0.00    +0.005 A 
ATOM     14  C   UNL     1      -0.567  -9.866   1.408  0.00  0.00    +0.000 A 
ATOM     15  C   UNL     1      -0.345  -8.162   3.097  0.00  0.00    +0.000 A 
ATOM     16  C   UNL     1      -0.542  -9.496   2.749  0.00  0.00    +0.000 A 
ENDBRANCH  10  11
ENDBRANCH   1  10
TORSDOF 2
ENDMDL
MODEL 4
REMARK VINA RESULT:    -5.111     15.531     17.142
REMARK INTER + INTRA:          -5.860
REMARK INTER:                  -5.686
REMARK INTRA:                  -0.173
REMARK UNBOUND:                -0.151
REMARK  Name = 1550473
REMARK  2 active torsions:
REMARK  status: ('A' for Active; 'I' for Inactive)
REMARK    1  A    between atoms: N_1  and  C_4
REMARK    2  A    between atoms: C_4  and  C_5
REMARK                            x       y       z     vdW  Elec       q    Type
REMARK                         _______ _______ _______ _____ _____    ______ ____
ROOT
ATOM      1  N   UNL     1       0.129   2.894 -13.348  0.00  0.00    -0.354 N 
ATOM      2  N   UNL     1      -1.964   3.649 -12.706  0.00  0.00    -0.372 N 
ATOM      3  N   UNL     1      -1.663   2.914 -14.859  0.00  0.00    -0.372 N 
ATOM      4  C   UNL     1      -1.153   3.147 -13.645  0.00  0.00    +0.166 C 
ATOM      5  H   UNL     1       0.461   3.121 -12.418  0.00  0.00    +0.163 HD
ATOM      6  H   UNL     1      -2.937   3.847 -12.899  0.00  0.00    +0.159 HD
ATOM      7  H   UNL     1      -1.641   3.832 -11.764  0.00  0.00    +0.159 HD
ATOM      8  H   UNL     1      -1.102   2.541 -15.613  0.00  0.00    +0.159 HD
ATOM      9  H   UNL     1      -2.631   3.117 -15.075  0.00  0.00    +0.159 HD
ENDROOT
BRANCH   1  10
ATOM     10  C   UNL     1       1.081   2.297 -14.283  0.00  0.00    +0.151 C 
BRANCH  10  11
ATOM     11  C   UNL     1       2.048   3.354 -14.741  0.00  0.00    -0.028 A 
ATOM     12  C   UNL     1       3.293   3.500 -14.113  0.00  0.00    +0.005 A 
ATOM     13  C   UNL     1       1.726   4.208 -15.807  0.00  0.00    +0.005 A 
ATOM     14  C   UNL     1       4.203   4.462 -14.559  0.00  0.00    +0.000 A 
ATOM     15  C   UNL     1       2.637   5.168 -16.248  0.00  0.00    +0.000 A 
ATOM     16  C   UNL     1       3.877   5.293 -15.625  0.00  0.00    +0.000 A 
ENDBRANCH  10  11
ENDBRANCH   1  10
TORSDOF 2
ENDMDL
MODEL 5
REMARK VINA RESULT:    -5.000     18.375     19.900
REMARK INTER + INTRA:          -5.735
REMARK INTER:                  -5.607
REMARK INTRA:                  -0.129
REMARK UNBOUND:                -0.151
REMARK  Name = 1550473
REMARK  2 active torsions:
REMARK  status: ('A' for Active; 'I' for Inactive)
REMARK    1  A    between atoms: N_1  and  C_4
REMARK    2  A    between atoms: C_4  and  C_5
REMARK                            x       y       z     vdW  Elec       q    Type
REMARK                         _______ _______ _______ _____ _____    ______ ____
ROOT
ATOM      1  N   UNL     1       2.702  -3.423  -2.176  0.00  0.00    -0.354 N 
ATOM      2  N   UNL     1       0.513  -2.872  -1.657  0.00  0.00    -0.372 N 
ATOM      3  N   UNL     1       1.543  -4.551  -0.480  0.00  0.00    -0.372 N 
ATOM      4  C   UNL     1       1.601  -3.621  -1.439  0.00  0.00    +0.166 C 
ATOM      5  H   UNL     1       2.671  -2.723  -2.908  0.00  0.00    +0.163 HD
ATOM      6  H   UNL     1      -0.331  -2.997  -1.114  0.00  0.00    +0.159 HD
ATOM      7  H   UNL     1       0.500  -2.142  -2.359  0.00  0.00    +0.159 HD
ATOM      8  H   UNL     1       2.328  -5.153  -0.270  0.00  0.00    +0.159 HD
ATOM      9  H   UNL     1       0.704  -4.698   0.066  0.00  0.00    +0.159 HD
ENDROOT
BRANCH   1  10
ATOM     10  C   UNL     1       3.956  -4.148  -1.983  0.00  0.00    +0.151 C 
BRANCH  10  11
ATOM     11  C   UNL     1       4.673  -4.249  -3.301  0.00  0.00    -0.028 A 
ATOM     12  C   UNL     1       5.789  -5.087  -3.443  0.00  0.00    +0.005 A 
ATOM     13  C   UNL     1       4.239  -3.513  -4.414  0.00  0.00    +0.005 A 
ATOM     14  C   UNL     1       6.437  -5.204  -4.675  0.00  0.00    +0.000 A 
ATOM     15  C   UNL     1       4.889  -3.632  -5.642  0.00  0.00    +0.000 A 
ATOM     16  C   UNL     1       5.986  -4.479  -5.773  0.00  0.00    +0.000 A 
ENDBRANCH  10  11
ENDBRANCH   1  10
TORSDOF 2
ENDMDL
MODEL 6
REMARK VINA RESULT:    -4.897     17.852     19.332
REMARK INTER + INTRA:          -5.620
REMARK INTER:                  -5.528
REMARK INTRA:                  -0.092
REMARK UNBOUND:                -0.151
REMARK  Name = 1550473
REMARK  2 active torsions:
REMARK  status: ('A' for Active; 'I' for Inactive)
REMARK    1  A    between atoms: N_1  and  C_4
REMARK    2  A    between atoms: C_4  and  C_5
REMARK                            x       y       z     vdW  Elec       q    Type
REMARK                         _______ _______ _______ _____ _____    ______ ____
ROOT
ATOM      1  N   UNL     1       1.720  -5.402  -1.133  0.00  0.00    -0.354 N 
ATOM      2  N   UNL     1       2.814  -3.619  -0.140  0.00  0.00    -0.372 N 
ATOM      3  N   UNL     1       0.840  -3.233  -1.243  0.00  0.00    -0.372 N 
ATOM      4  C   UNL     1       1.782  -4.095  -0.846  0.00  0.00    +0.166 C 
ATOM      5  H   UNL     1       2.482  -5.998  -0.829  0.00  0.00    +0.163 HD
ATOM      6  H   UNL     1       2.886  -2.638   0.095  0.00  0.00    +0.159 HD
ATOM      7  H   UNL     1       3.551  -4.224   0.202  0.00  0.00    +0.159 HD
ATOM      8  H   UNL     1       0.038  -3.528  -1.784  0.00  0.00    +0.159 HD
ATOM      9  H   UNL     1       0.900  -2.246  -1.028  0.00  0.00    +0.159 HD
ENDROOT
BRANCH   1  10
ATOM     10  C   UNL     1       0.612  -6.031  -1.850  0.00  0.00    +0.151 C 
BRANCH  10  11
ATOM     11  C   UNL     1       0.893  -7.501  -1.997  0.00  0.00    -0.028 A 
ATOM     12  C   UNL     1       0.234  -8.436  -1.185  0.00  0.00    +0.005 A 
ATOM     13  C   UNL     1       1.812  -7.965  -2.950  0.00  0.00    +0.005 A 
ATOM     14  C   UNL     1       0.472  -9.803  -1.341  0.00  0.00    +0.000 A 
ATOM     15  C   UNL     1       2.047  -9.332  -3.102  0.00  0.00    +0.000 A 
ATOM     16  C   UNL     1       1.375 -10.250  -2.300  0.00  0.00    +0.000 A 
ENDBRANCH  10  11
ENDBRANCH   1  10
TORSDOF 2
ENDMDL
MODEL 7
REMARK VINA RESULT:    -4.758     19.007     20.651
REMARK INTER + INTRA:          -5.465
REMARK INTER:                  -5.343
REMARK INTRA:                  -0.123
REMARK UNBOUND:                -0.151
REMARK  Name = 1550473
REMARK  2 active torsions:
REMARK  status: ('A' for Active; 'I' for Inactive)
REMARK    1  A    between atoms: N_1  and  C_4
REMARK    2  A    between atoms: C_4  and  C_5
REMARK                            x       y       z     vdW  Elec       q    Type
REMARK                         _______ _______ _______ _____ _____    ______ ____
ROOT
ATOM      1  N   UNL     1       0.551  -8.117  -0.283  0.00  0.00    -0.354 N 
ATOM      2  N   UNL     1       0.900  -5.944   0.439  0.00  0.00    -0.372 N 
ATOM      3  N   UNL     1      -1.217  -6.583  -0.174  0.00  0.00    -0.372 N 
ATOM      4  C   UNL     1       0.073  -6.895  -0.012  0.00  0.00    +0.166 C 
ATOM      5  H   UNL     1       1.544  -8.282  -0.168  0.00  0.00    +0.163 HD
ATOM      6  H   UNL     1       0.568  -5.014   0.656  0.00  0.00    +0.159 HD
ATOM      7  H   UNL     1       1.884  -6.125   0.597  0.00  0.00    +0.159 HD
ATOM      8  H   UNL     1      -1.891  -7.253  -0.517  0.00  0.00    +0.159 HD
ATOM      9  H   UNL     1      -1.566  -5.654   0.026  0.00  0.00    +0.159 HD
ENDROOT
BRANCH   1  10
ATOM     10  C   UNL     1      -0.275  -9.238  -0.727  0.00  0.00    +0.151 C 
BRANCH  10  11
ATOM     11  C   UNL     1       0.565 -10.170  -1.557  0.00  0.00    -0.028 A 
ATOM     12  C   UNL     1       1.431  -9.664  -2.538  0.00  0.00    +0.005 A 
ATOM     13  C   UNL     1       0.505 -11.558  -1.362  0.00  0.00    +0.005 A 
ATOM     14  C   UNL     1       2.234 -10.527  -3.288  0.00  0.00    +0.000 A 
ATOM     15  C   UNL     1       1.308 -12.416  -2.113  0.00  0.00    +0.000 A 
ATOM     16  C   UNL     1       2.174 -11.900  -3.074  0.00  0.00    +0.000 A 
ENDBRANCH  10  11
ENDBRANCH   1  10
TORSDOF 2
ENDMDL
MODEL 8
REMARK VINA RESULT:    -4.676     18.528     19.568
REMARK INTER + INTRA:          -5.373
REMARK INTER:                  -5.251
REMARK INTRA:                  -0.122
REMARK UNBOUND:                -0.151
REMARK  Name = 1550473
REMARK  2 active torsions:
REMARK  status: ('A' for Active; 'I' for Inactive)
REMARK    1  A    between atoms: N_1  and  C_4
REMARK    2  A    between atoms: C_4  and  C_5
REMARK                            x       y       z     vdW  Elec       q    Type
REMARK                         _______ _______ _______ _____ _____    ______ ____
ROOT
ATOM      1  N   UNL     1       0.893  -7.543  -1.084  0.00  0.00    -0.354 N 
ATOM      2  N   UNL     1       2.539  -5.958  -1.464  0.00  0.00    -0.372 N 
ATOM      3  N   UNL     1       0.391  -5.254  -1.069  0.00  0.00    -0.372 N 
ATOM      4  C   UNL     1       1.261  -6.260  -1.203  0.00  0.00    +0.166 C 
ATOM      5  H   UNL     1       1.595  -8.260  -1.227  0.00  0.00    +0.163 HD
ATOM      6  H   UNL     1       2.847  -4.999  -1.556  0.00  0.00    +0.159 HD
ATOM      7  H   UNL     1       3.247  -6.676  -1.561  0.00  0.00    +0.159 HD
ATOM      8  H   UNL     1      -0.589  -5.415  -0.877  0.00  0.00    +0.159 HD
ATOM      9  H   UNL     1       0.678  -4.288  -1.169  0.00  0.00    +0.159 HD
ENDROOT
BRANCH   1  10
ATOM     10  C   UNL     1      -0.462  -7.977  -0.747  0.00  0.00    +0.151 C 
BRANCH  10  11
ATOM     11  C   UNL     1      -0.488  -8.440   0.683  0.00  0.00    -0.028 A 
ATOM     12  C   UNL     1      -0.318  -7.524   1.731  0.00  0.00    +0.005 A 
ATOM     13  C   UNL     1      -0.688  -9.793   0.997  0.00  0.00    +0.005 A 
ATOM     14  C   UNL     1      -0.373  -7.949   3.061  0.00  0.00    +0.000 A 
ATOM     15  C   UNL     1      -0.741 -10.214   2.326  0.00  0.00    +0.000 A 
ATOM     16  C   UNL     1      -0.586  -9.291   3.357  0.00  0.00    +0.000 A 
ENDBRANCH  10  11
ENDBRANCH   1  10
TORSDOF 2
ENDMDL
MODEL 9
REMARK VINA RESULT:    -4.670      3.204      4.553
REMARK INTER + INTRA:          -5.367
REMARK INTER:                  -5.236
REMARK INTRA:                  -0.131
REMARK UNBOUND:                -0.151
REMARK  Name = 1550473
REMARK  2 active torsions:
REMARK  status: ('A' for Active; 'I' for Inactive)
REMARK    1  A    between atoms: N_1  and  C_4
REMARK    2  A    between atoms: C_4  and  C_5
REMARK                            x       y       z     vdW  Elec       q    Type
REMARK                         _______ _______ _______ _____ _____    ______ ____
ROOT
ATOM      1  N   UNL     1     -13.744   2.493  -4.439  0.00  0.00    -0.354 N 
ATOM      2  N   UNL     1     -13.426   0.260  -4.963  0.00  0.00    -0.372 N 
ATOM      3  N   UNL     1     -15.554   1.118  -5.009  0.00  0.00    -0.372 N 
ATOM      4  C   UNL     1     -14.247   1.305  -4.800  0.00  0.00    +0.166 C 
ATOM      5  H   UNL     1     -12.748   2.562  -4.267  0.00  0.00    +0.163 HD
ATOM      6  H   UNL     1     -13.776  -0.648  -5.239  0.00  0.00    +0.159 HD
ATOM      7  H   UNL     1     -12.425   0.343  -4.835  0.00  0.00    +0.159 HD
ATOM      8  H   UNL     1     -16.227   1.865  -4.897  0.00  0.00    +0.159 HD
ATOM      9  H   UNL     1     -15.925   0.213  -5.273  0.00  0.00    +0.159 HD
ENDROOT
BRANCH   1  10
ATOM     10  C   UNL     1     -14.545   3.707  -4.287  0.00  0.00    +0.151 C 
BRANCH  10  11
ATOM     11  C   UNL     1     -14.106   4.716  -5.313  0.00  0.00    -0.028 A 
ATOM     12  C   UNL     1     -14.738   5.965  -5.399  0.00  0.00    +0.005 A 
ATOM     13  C   UNL     1     -13.055   4.431  -6.198  0.00  0.00    +0.005 A 
ATOM     14  C   UNL     1     -14.312   6.913  -6.331  0.00  0.00    +0.000 A 
ATOM     15  C   UNL     1     -12.633   5.380  -7.128  0.00  0.00    +0.000 A 
ATOM     16  C   UNL     1     -13.260   6.622  -7.193  0.00  0.00    +0.000 A 
ENDBRANCH  10  11
ENDBRANCH   1  10
TORSDOF 2
ENDMDL
