MODEL 1
REMARK VINA RESULT:    -5.219      0.000      0.000
REMARK INTER + INTRA:          -5.970
REMARK INTER:                  -5.829
REMARK INTRA:                  -0.142
REMARK UNBOUND:                -0.142
REMARK  Name = 1550473
REMARK  2 active torsions:
REMARK  status: ('A' for Active; 'I' for Inactive)
REMARK    1  A    between atoms: N_1  and  C_4
REMARK    2  A    between atoms: C_4  and  C_5
REMARK                            x       y       z     vdW  Elec       q    Type
REMARK                         _______ _______ _______ _____ _____    ______ ____
ROOT
ATOM      1  N   UNL     1      11.978   2.717  -8.102  0.00  0.00    -0.354 N 
ATOM      2  N   UNL     1      12.949   0.828  -7.179  0.00  0.00    -0.372 N 
ATOM      3  N   UNL     1      11.089   1.721  -6.176  0.00  0.00    -0.372 N 
ATOM      4  C   UNL     1      11.997   1.768  -7.156  0.00  0.00    +0.166 C 
ATOM      5  H   UNL     1      12.712   2.716  -8.800  0.00  0.00    +0.163 HD
ATOM      6  H   UNL     1      12.987   0.097  -6.482  0.00  0.00    +0.159 HD
ATOM      7  H   UNL     1      13.655   0.802  -7.906  0.00  0.00    +0.159 HD
ATOM      8  H   UNL     1      10.348   2.405  -6.098  0.00  0.00    +0.159 HD
ATOM      9  H   UNL     1      11.117   1.004  -5.461  0.00  0.00    +0.159 HD
ENDROOT
BRANCH   1  10
ATOM     10  C   UNL     1      10.953   3.755  -8.198  0.00  0.00    +0.151 C 
BRANCH  10  11
ATOM     11  C   UNL     1      11.591   5.098  -7.973  0.00  0.00    -0.028 A 
ATOM     12  C   UNL     1      12.986   5.220  -7.900  0.00  0.00    +0.005 A 
ATOM     13  C   UNL     1      10.806   6.253  -7.837  0.00  0.00    +0.005 A 
ATOM     14  C   UNL     1      13.581   6.472  -7.721  0.00  0.00    +0.000 A 
ATOM     15  C   UNL     1      11.403   7.501  -7.657  0.00  0.00    +0.000 A 
ATOM     16  C   UNL     1      12.790   7.610  -7.602  0.00  0.00    +0.000 A 
ENDBRANCH  10  11
ENDBRANCH   1  10
TORSDOF 2
ENDMDL
MODEL 2
REMARK VINA RESULT:    -5.023     17.637     18.738
REMARK INTER + INTRA:          -5.751
REMARK INTER:                  -5.578
REMARK INTRA:                  -0.174
REMARK UNBOUND:                -0.142
REMARK  Name = 1550473
REMARK  2 active torsions:
REMARK  status: ('A' for Active; 'I' for Inactive)
REMARK    1  A    between atoms: N_1  and  C_4
REMARK    2  A    between atoms: C_4  and  C_5
REMARK                            x       y       z     vdW  Elec       q    Type
REMARK                         _______ _______ _______ _____ _____    ______ ____
ROOT
ATOM      1  N   UNL     1      -2.957   2.248  -0.306  0.00  0.00    -0.354 N 
ATOM      2  N   UNL     1      -0.962   3.359  -0.694  0.00  0.00    -0.372 N 
ATOM      3  N   UNL     1      -2.701   3.656  -2.162  0.00  0.00    -0.372 N 
ATOM      4  C   UNL     1      -2.221   3.081  -1.054  0.00  0.00    +0.166 C 
ATOM      5  H   UNL     1      -2.526   1.821   0.505  0.00  0.00    +0.163 HD
ATOM      6  H   UNL     1      -0.384   3.986  -1.236  0.00  0.00    +0.159 HD
ATOM      7  H   UNL     1      -0.549   2.966   0.143  0.00  0.00    +0.159 HD
ATOM      8  H   UNL     1      -3.641   3.484  -2.491  0.00  0.00    +0.159 HD
ATOM      9  H   UNL     1      -2.134   4.278  -2.724  0.00  0.00    +0.159 HD
ENDROOT
BRANCH   1  10
ATOM     10  C   UNL     1      -4.356   1.922  -0.581  0.00  0.00    +0.151 C 
BRANCH  10  11
ATOM     11  C   UNL     1      -5.227   2.593   0.444  0.00  0.00    -0.028 A 
ATOM     12  C   UNL     1      -5.778   3.859   0.192  0.00  0.00    +0.005 A 
ATOM     13  C   UNL     1      -5.511   1.967   1.667  0.00  0.00    +0.005 A 
ATOM     14  C   UNL     1      -6.612   4.470   1.131  0.00  0.00    +0.000 A 
ATOM     15  C   UNL     1      -6.344   2.581   2.603  0.00  0.00    +0.000 A 
ATOM     16  C   UNL     1      -6.896   3.831   2.334  0.00  0.00    +0.000 A 
ENDBRANCH  10  11
ENDBRANCH   1  10
TORSDOF 2
ENDMDL
MODEL 3
REMARK VINA RESULT:    -4.873      1.761      2.583
REMARK INTER + INTRA:          -5.584
REMARK INTER:                  -5.426
REMARK INTRA:                  -0.159
REMARK UNBOUND:                -0.142
REMARK  Name = 1550473
REMARK  2 active torsions:
REMARK  status: ('A' for Active; 'I' for Inactive)
REMARK    1  A    between atoms: N_1  and  C_4
REMARK    2  A    between atoms: C_4  and  C_5
REMARK                            x       y       z     vdW  Elec       q    Type
REMARK                         _______ _______ _______ _____ _____    ______ ____
ROOT
ATOM      1  N   UNL     1      10.678   4.816  -8.616  0.00  0.00    -0.354 N 
ATOM      2  N   UNL     1      12.112   3.012  -8.846  0.00  0.00    -0.372 N 
ATOM      3  N   UNL     1      11.793   3.915  -6.762  0.00  0.00    -0.372 N 
ATOM      4  C   UNL     1      11.519   3.927  -8.070  0.00  0.00    +0.166 C 
ATOM      5  H   UNL     1      10.536   4.791  -9.619  0.00  0.00    +0.163 HD
ATOM      6  H   UNL     1      12.749   2.326  -8.463  0.00  0.00    +0.159 HD
ATOM      7  H   UNL     1      11.933   2.960  -9.842  0.00  0.00    +0.159 HD
ATOM      8  H   UNL     1      11.382   4.583  -6.123  0.00  0.00    +0.159 HD
ATOM      9  H   UNL     1      12.436   3.244  -6.360  0.00  0.00    +0.159 HD
ENDROOT
BRANCH   1  10
ATOM     10  C   UNL     1       9.940   5.819  -7.851  0.00  0.00    +0.151 C 
BRANCH  10  11
ATOM     11  C   UNL     1      10.455   7.186  -8.206  0.00  0.00    -0.028 A 
ATOM     12  C   UNL     1      11.737   7.590  -7.804  0.00  0.00    +0.005 A 
ATOM     13  C   UNL     1       9.670   8.080  -8.950  0.00  0.00    +0.005 A 
ATOM     14  C   UNL     1      12.228   8.849  -8.160  0.00  0.00    +0.000 A 
ATOM     15  C   UNL     1      10.164   9.335  -9.303  0.00  0.00    +0.000 A 
ATOM     16  C   UNL     1      11.444   9.719  -8.909  0.00  0.00    +0.000 A 
ENDBRANCH  10  11
ENDBRANCH   1  10
TORSDOF 2
ENDMDL
MODEL 4
REMARK VINA RESULT:    -4.448     24.805     25.877
REMARK INTER + INTRA:          -5.110
REMARK INTER:                  -4.996
REMARK INTRA:                  -0.113
REMARK UNBOUND:                -0.142
REMARK  Name = 1550473
REMARK  2 active torsions:
REMARK  status: ('A' for Active; 'I' for Inactive)
REMARK    1  A    between atoms: N_1  and  C_4
REMARK    2  A    between atoms: C_4  and  C_5
REMARK                            x       y       z     vdW  Elec       q    Type
REMARK                         _______ _______ _______ _____ _____    ______ ____
ROOT
ATOM      1  N   UNL     1      -8.480   5.965   6.327  0.00  0.00    -0.354 N 
ATOM      2  N   UNL     1      -7.926   6.392   4.120  0.00  0.00    -0.372 N 
ATOM      3  N   UNL     1      -8.940   8.043   5.348  0.00  0.00    -0.372 N 
ATOM      4  C   UNL     1      -8.454   6.800   5.280  0.00  0.00    +0.166 C 
ATOM      5  H   UNL     1      -8.123   5.024   6.202  0.00  0.00    +0.163 HD
ATOM      6  H   UNL     1      -7.888   7.001   3.313  0.00  0.00    +0.159 HD
ATOM      7  H   UNL     1      -7.528   5.467   4.011  0.00  0.00    +0.159 HD
ATOM      8  H   UNL     1      -9.357   8.410   6.193  0.00  0.00    +0.159 HD
ATOM      9  H   UNL     1      -8.922   8.664   4.548  0.00  0.00    +0.159 HD
ENDROOT
BRANCH   1  10
ATOM     10  C   UNL     1      -8.984   6.328   7.650  0.00  0.00    +0.151 C 
BRANCH  10  11
ATOM     11  C   UNL     1      -8.444   5.359   8.665  0.00  0.00    -0.028 A 
ATOM     12  C   UNL     1      -8.134   5.787   9.964  0.00  0.00    +0.005 A 
ATOM     13  C   UNL     1      -8.246   4.009   8.336  0.00  0.00    +0.005 A 
ATOM     14  C   UNL     1      -7.661   4.880  10.916  0.00  0.00    +0.000 A 
ATOM     15  C   UNL     1      -7.772   3.107   9.288  0.00  0.00    +0.000 A 
ATOM     16  C   UNL     1      -7.482   3.543  10.579  0.00  0.00    +0.000 A 
ENDBRANCH  10  11
ENDBRANCH   1  10
TORSDOF 2
ENDMDL
MODEL 5
REMARK VINA RESULT:    -4.084     25.544     26.438
REMARK INTER + INTRA:          -4.703
REMARK INTER:                  -4.562
REMARK INTRA:                  -0.141
REMARK UNBOUND:                -0.142
REMARK  Name = 1550473
REMARK  2 active torsions:
REMARK  status: ('A' for Active; 'I' for Inactive)
REMARK    1  A    between atoms: N_1  and  C_4
REMARK    2  A    between atoms: C_4  and  C_5
REMARK                            x       y       z     vdW  Elec       q    Type
REMARK                         _______ _______ _______ _____ _____    ______ ____
ROOT
ATOM      1  N   UNL     1      -9.082   7.395   7.723  0.00  0.00    -0.354 N 
ATOM      2  N   UNL     1      -8.944   8.453   5.667  0.00  0.00    -0.372 N 
ATOM      3  N   UNL     1      -7.843   9.367   7.462  0.00  0.00    -0.372 N 
ATOM      4  C   UNL     1      -8.622   8.400   6.966  0.00  0.00    +0.166 C 
ATOM      5  H   UNL     1      -9.693   6.710   7.294  0.00  0.00    +0.163 HD
ATOM      6  H   UNL     1      -8.609   9.198   5.070  0.00  0.00    +0.159 HD
ATOM      7  H   UNL     1      -9.517   7.742   5.231  0.00  0.00    +0.159 HD
ATOM      8  H   UNL     1      -7.569   9.388   8.435  0.00  0.00    +0.159 HD
ATOM      9  H   UNL     1      -7.508  10.127   6.883  0.00  0.00    +0.159 HD
ENDROOT
BRANCH   1  10
ATOM     10  C   UNL     1      -8.747   7.215   9.134  0.00  0.00    +0.151 C 
BRANCH  10  11
ATOM     11  C   UNL     1      -8.330   5.788   9.362  0.00  0.00    -0.028 A 
ATOM     12  C   UNL     1      -7.854   5.377  10.616  0.00  0.00    +0.005 A 
ATOM     13  C   UNL     1      -8.414   4.841   8.330  0.00  0.00    +0.005 A 
ATOM     14  C   UNL     1      -7.495   4.046  10.837  0.00  0.00    +0.000 A 
ATOM     15  C   UNL     1      -8.053   3.512   8.554  0.00  0.00    +0.000 A 
ATOM     16  C   UNL     1      -7.596   3.115   9.808  0.00  0.00    +0.000 A 
ENDBRANCH  10  11
ENDBRANCH   1  10
TORSDOF 2
ENDMDL
MODEL 6
REMARK VINA RESULT:    -3.990     36.208     37.078
REMARK INTER + INTRA:          -4.598
REMARK INTER:                  -4.461
REMARK INTRA:                  -0.137
REMARK UNBOUND:                -0.142
REMARK  Name = 1550473
REMARK  2 active torsions:
REMARK  status: ('A' for Active; 'I' for Inactive)
REMARK    1  A    between atoms: N_1  and  C_4
REMARK    2  A    between atoms: C_4  and  C_5
REMARK                            x       y       z     vdW  Elec       q    Type
REMARK                         _______ _______ _______ _____ _____    ______ ____
ROOT
ATOM      1  N   UNL     1       4.331   5.655  29.212  0.00  0.00    -0.354 N 
ATOM      2  N   UNL     1       4.016   7.945  29.056  0.00  0.00    -0.372 N 
ATOM      3  N   UNL     1       2.287   6.636  29.807  0.00  0.00    -0.372 N 
ATOM      4  C   UNL     1       3.544   6.730  29.360  0.00  0.00    +0.166 C 
ATOM      5  H   UNL     1       5.264   5.790  28.839  0.00  0.00    +0.163 HD
ATOM      6  H   UNL     1       3.447   8.774  29.161  0.00  0.00    +0.159 HD
ATOM      7  H   UNL     1       4.964   8.081  28.727  0.00  0.00    +0.159 HD
ATOM      8  H   UNL     1       1.870   5.747  30.048  0.00  0.00    +0.159 HD
ATOM      9  H   UNL     1       1.698   7.453  29.908  0.00  0.00    +0.159 HD
ENDROOT
BRANCH   1  10
ATOM     10  C   UNL     1       3.932   4.294  29.565  0.00  0.00    +0.151 C 
BRANCH  10  11
ATOM     11  C   UNL     1       4.437   3.345  28.514  0.00  0.00    -0.028 A 
ATOM     12  C   UNL     1       4.152   1.975  28.595  0.00  0.00    +0.005 A 
ATOM     13  C   UNL     1       5.198   3.811  27.431  0.00  0.00    +0.005 A 
ATOM     14  C   UNL     1       4.596   1.097  27.603  0.00  0.00    +0.000 A 
ATOM     15  C   UNL     1       5.641   2.932  26.443  0.00  0.00    +0.000 A 
ATOM     16  C   UNL     1       5.337   1.575  26.528  0.00  0.00    +0.000 A 
ENDBRANCH  10  11
ENDBRANCH   1  10
TORSDOF 2
ENDMDL
MODEL 7
REMARK VINA RESULT:    -3.969     25.705     26.855
REMARK INTER + INTRA:          -4.574
REMARK INTER:                  -4.436
REMARK INTRA:                  -0.138
REMARK UNBOUND:                -0.142
REMARK  Name = 1550473
REMARK  2 active torsions:
REMARK  status: ('A' for Active; 'I' for Inactive)
REMARK    1  A    between atoms: N_1  and  C_4
REMARK    2  A    between atoms: C_4  and  C_5
REMARK                            x       y       z     vdW  Elec       q    Type
REMARK                         _______ _______ _______ _____ _____    ______ ____
ROOT
ATOM      1  N   UNL     1       7.392  -4.441  16.975  0.00  0.00    -0.354 N 
ATOM      2  N   UNL     1       5.196  -5.131  17.231  0.00  0.00    -0.372 N 
ATOM      3  N   UNL     1       5.636  -3.294  15.929  0.00  0.00    -0.372 N 
ATOM      4  C   UNL     1       6.088  -4.281  16.708  0.00  0.00    +0.166 C 
ATOM      5  H   UNL     1       7.667  -5.192  17.597  0.00  0.00    +0.163 HD
ATOM      6  H   UNL     1       4.206  -5.038  17.045  0.00  0.00    +0.159 HD
ATOM      7  H   UNL     1       5.478  -5.908  17.816  0.00  0.00    +0.159 HD
ATOM      8  H   UNL     1       6.258  -2.616  15.508  0.00  0.00    +0.159 HD
ATOM      9  H   UNL     1       4.648  -3.177  15.740  0.00  0.00    +0.159 HD
ENDROOT
BRANCH   1  10
ATOM     10  C   UNL     1       8.449  -3.603  16.412  0.00  0.00    +0.151 C 
BRANCH  10  11
ATOM     11  C   UNL     1       9.278  -3.040  17.533  0.00  0.00    -0.028 A 
ATOM     12  C   UNL     1       9.835  -1.756  17.432  0.00  0.00    +0.005 A 
ATOM     13  C   UNL     1       9.506  -3.783  18.702  0.00  0.00    +0.005 A 
ATOM     14  C   UNL     1      10.580  -1.221  18.485  0.00  0.00    +0.000 A 
ATOM     15  C   UNL     1      10.251  -3.245  19.751  0.00  0.00    +0.000 A 
ATOM     16  C   UNL     1      10.786  -1.963  19.644  0.00  0.00    +0.000 A 
ENDBRANCH  10  11
ENDBRANCH   1  10
TORSDOF 2
ENDMDL
MODEL 8
REMARK VINA RESULT:    -3.923     11.803     12.953
REMARK INTER + INTRA:          -4.523
REMARK INTER:                  -4.392
REMARK INTRA:                  -0.132
REMARK UNBOUND:                -0.142
REMARK  Name = 1550473
REMARK  2 active torsions:
REMARK  status: ('A' for Active; 'I' for Inactive)
REMARK    1  A    between atoms: N_1  and  C_4
REMARK    2  A    between atoms: C_4  and  C_5
REMARK                            x       y       z     vdW  Elec       q    Type
REMARK                         _______ _______ _______ _____ _____    ______ ____
ROOT
ATOM      1  N   UNL     1       0.445   4.200 -15.012  0.00  0.00    -0.354 N 
ATOM      2  N   UNL     1      -0.469   2.747 -16.566  0.00  0.00    -0.372 N 
ATOM      3  N   UNL     1       1.814   2.884 -16.385  0.00  0.00    -0.372 N 
ATOM      4  C   UNL     1       0.606   3.286 -15.978  0.00  0.00    +0.166 C 
ATOM      5  H   UNL     1      -0.497   4.485 -14.770  0.00  0.00    +0.163 HD
ATOM      6  H   UNL     1      -0.379   2.053 -17.296  0.00  0.00    +0.159 HD
ATOM      7  H   UNL     1      -1.410   2.999 -16.291  0.00  0.00    +0.159 HD
ATOM      8  H   UNL     1       2.665   3.257 -15.985  0.00  0.00    +0.159 HD
ATOM      9  H   UNL     1       1.925   2.199 -17.122  0.00  0.00    +0.159 HD
ENDROOT
BRANCH   1  10
ATOM     10  C   UNL     1       1.548   4.809 -14.271  0.00  0.00    +0.151 C 
BRANCH  10  11
ATOM     11  C   UNL     1       1.322   4.605 -12.798  0.00  0.00    -0.028 A 
ATOM     12  C   UNL     1       1.876   5.492 -11.863  0.00  0.00    +0.005 A 
ATOM     13  C   UNL     1       0.551   3.530 -12.331  0.00  0.00    +0.005 A 
ATOM     14  C   UNL     1       1.642   5.320 -10.497  0.00  0.00    +0.000 A 
ATOM     15  C   UNL     1       0.320   3.361 -10.966  0.00  0.00    +0.000 A 
ATOM     16  C   UNL     1       0.863   4.258 -10.049  0.00  0.00    +0.000 A 
ENDBRANCH  10  11
ENDBRANCH   1  10
TORSDOF 2
ENDMDL
MODEL 9
REMARK VINA RESULT:    -3.866     22.047     22.935
REMARK INTER + INTRA:          -4.460
REMARK INTER:                  -4.309
REMARK INTRA:                  -0.150
REMARK UNBOUND:                -0.142
REMARK  Name = 1550473
REMARK  2 active torsions:
REMARK  status: ('A' for Active; 'I' for Inactive)
REMARK    1  A    between atoms: N_1  and  C_4
REMARK    2  A    between atoms: C_4  and  C_5
REMARK                            x       y       z     vdW  Elec       q    Type
REMARK                         _______ _______ _______ _____ _____    ______ ____
ROOT
ATOM      1  N   UNL     1       0.425  -8.269   6.708  0.00  0.00    -0.354 N 
ATOM      2  N   UNL     1      -0.220 -10.468   6.372  0.00  0.00    -0.372 N 
ATOM      3  N   UNL     1      -1.833  -8.838   6.442  0.00  0.00    -0.372 N 
ATOM      4  C   UNL     1      -0.541  -9.176   6.510  0.00  0.00    +0.166 C 
ATOM      5  H   UNL     1       1.383  -8.594   6.780  0.00  0.00    +0.163 HD
ATOM      6  H   UNL     1      -0.926 -11.175   6.217  0.00  0.00    +0.159 HD
ATOM      7  H   UNL     1       0.742 -10.784   6.398  0.00  0.00    +0.159 HD
ATOM      8  H   UNL     1      -2.142  -7.880   6.544  0.00  0.00    +0.159 HD
ATOM      9  H   UNL     1      -2.556  -9.532   6.300  0.00  0.00    +0.159 HD
ENDROOT
BRANCH   1  10
ATOM     10  C   UNL     1       0.187  -6.831   6.817  0.00  0.00    +0.151 C 
BRANCH  10  11
ATOM     11  C   UNL     1       0.611  -6.365   8.182  0.00  0.00    -0.028 A 
ATOM     12  C   UNL     1       0.069  -5.196   8.736  0.00  0.00    +0.005 A 
ATOM     13  C   UNL     1       1.551  -7.091   8.930  0.00  0.00    +0.005 A 
ATOM     14  C   UNL     1       0.440  -4.779  10.016  0.00  0.00    +0.000 A 
ATOM     15  C   UNL     1       1.920  -6.671  10.208  0.00  0.00    +0.000 A 
ATOM     16  C   UNL     1       1.362  -5.516  10.752  0.00  0.00    +0.000 A 
ENDBRANCH  10  11
ENDBRANCH   1  10
TORSDOF 2
ENDMDL
