MODEL 1
REMARK VINA RESULT:    -5.650      0.000      0.000
REMARK INTER + INTRA:          -6.447
REMARK INTER:                  -6.311
REMARK INTRA:                  -0.136
REMARK UNBOUND:                -0.136
REMARK  Name = 1550473
REMARK  2 active torsions:
REMARK  status: ('A' for Active; 'I' for Inactive)
REMARK    1  A    between atoms: N_1  and  C_4
REMARK    2  A    between atoms: C_4  and  C_5
REMARK                            x       y       z     vdW  Elec       q    Type
REMARK                         _______ _______ _______ _____ _____    ______ ____
ROOT
ATOM      1  N   UNL     1      -7.746   4.944  -3.690  0.00  0.00    -0.354 N 
ATOM      2  N   UNL     1      -8.605   3.715  -1.925  0.00  0.00    -0.372 N 
ATOM      3  N   UNL     1     -10.053   4.859  -3.287  0.00  0.00    -0.372 N 
ATOM      4  C   UNL     1      -8.798   4.515  -2.980  0.00  0.00    +0.166 C 
ATOM      5  H   UNL     1      -6.818   4.672  -3.388  0.00  0.00    +0.163 HD
ATOM      6  H   UNL     1      -9.379   3.373  -1.372  0.00  0.00    +0.159 HD
ATOM      7  H   UNL     1      -7.679   3.407  -1.652  0.00  0.00    +0.159 HD
ATOM      8  H   UNL     1     -10.267   5.466  -4.068  0.00  0.00    +0.159 HD
ATOM      9  H   UNL     1     -10.841   4.537  -2.739  0.00  0.00    +0.159 HD
ENDROOT
BRANCH   1  10
ATOM     10  C   UNL     1      -7.853   5.775  -4.889  0.00  0.00    +0.151 C 
BRANCH  10  11
ATOM     11  C   UNL     1      -6.717   6.761  -4.905  0.00  0.00    -0.028 A 
ATOM     12  C   UNL     1      -5.800   6.808  -3.845  0.00  0.00    +0.005 A 
ATOM     13  C   UNL     1      -6.550   7.647  -5.980  0.00  0.00    +0.005 A 
ATOM     14  C   UNL     1      -4.728   7.703  -3.874  0.00  0.00    +0.000 A 
ATOM     15  C   UNL     1      -5.479   8.540  -6.005  0.00  0.00    +0.000 A 
ATOM     16  C   UNL     1      -4.567   8.566  -4.953  0.00  0.00    +0.000 A 
ENDBRANCH  10  11
ENDBRANCH   1  10
TORSDOF 2
ENDMDL
MODEL 2
REMARK VINA RESULT:    -5.615      1.504      2.226
REMARK INTER + INTRA:          -6.407
REMARK INTER:                  -6.248
REMARK INTRA:                  -0.159
REMARK UNBOUND:                -0.136
REMARK  Name = 1550473
REMARK  2 active torsions:
REMARK  status: ('A' for Active; 'I' for Inactive)
REMARK    1  A    between atoms: N_1  and  C_4
REMARK    2  A    between atoms: C_4  and  C_5
REMARK                            x       y       z     vdW  Elec       q    Type
REMARK                         _______ _______ _______ _____ _____    ______ ____
ROOT
ATOM      1  N   UNL     1      -8.155   4.647  -4.513  0.00  0.00    -0.354 N 
ATOM      2  N   UNL     1      -8.798   2.831  -5.799  0.00  0.00    -0.372 N 
ATOM      3  N   UNL     1     -10.130   4.699  -5.773  0.00  0.00    -0.372 N 
ATOM      4  C   UNL     1      -9.026   4.072  -5.354  0.00  0.00    +0.166 C 
ATOM      5  H   UNL     1      -7.352   4.107  -4.209  0.00  0.00    +0.163 HD
ATOM      6  H   UNL     1      -9.435   2.373  -6.436  0.00  0.00    +0.159 HD
ATOM      7  H   UNL     1      -7.971   2.311  -5.530  0.00  0.00    +0.159 HD
ATOM      8  H   UNL     1     -10.363   5.635  -5.470  0.00  0.00    +0.159 HD
ATOM      9  H   UNL     1     -10.786   4.253  -6.402  0.00  0.00    +0.159 HD
ENDROOT
BRANCH   1  10
ATOM     10  C   UNL     1      -8.282   6.014  -4.013  0.00  0.00    +0.151 C 
BRANCH  10  11
ATOM     11  C   UNL     1      -7.135   6.836  -4.532  0.00  0.00    -0.028 A 
ATOM     12  C   UNL     1      -7.259   7.555  -5.730  0.00  0.00    +0.005 A 
ATOM     13  C   UNL     1      -5.923   6.905  -3.828  0.00  0.00    +0.005 A 
ATOM     14  C   UNL     1      -6.204   8.343  -6.197  0.00  0.00    +0.000 A 
ATOM     15  C   UNL     1      -4.872   7.692  -4.298  0.00  0.00    +0.000 A 
ATOM     16  C   UNL     1      -5.014   8.413  -5.481  0.00  0.00    +0.000 A 
ENDBRANCH  10  11
ENDBRANCH   1  10
TORSDOF 2
ENDMDL
MODEL 3
REMARK VINA RESULT:    -5.202     26.736     28.340
REMARK INTER + INTRA:          -5.946
REMARK INTER:                  -5.824
REMARK INTRA:                  -0.122
REMARK UNBOUND:                -0.136
REMARK  Name = 1550473
REMARK  2 active torsions:
REMARK  status: ('A' for Active; 'I' for Inactive)
REMARK    1  A    between atoms: N_1  and  C_4
REMARK    2  A    between atoms: C_4  and  C_5
REMARK                            x       y       z     vdW  Elec       q    Type
REMARK                         _______ _______ _______ _____ _____    ______ ____
ROOT
ATOM      1  N   UNL     1      15.169  11.454   9.485  0.00  0.00    -0.354 N 
ATOM      2  N   UNL     1      15.017  11.729   7.190  0.00  0.00    -0.372 N 
ATOM      3  N   UNL     1      16.265   9.991   8.019  0.00  0.00    -0.372 N 
ATOM      4  C   UNL     1      15.486  11.054   8.246  0.00  0.00    +0.166 C 
ATOM      5  H   UNL     1      14.599  12.286   9.591  0.00  0.00    +0.163 HD
ATOM      6  H   UNL     1      15.237  11.449   6.244  0.00  0.00    +0.159 HD
ATOM      7  H   UNL     1      14.410  12.533   7.298  0.00  0.00    +0.159 HD
ATOM      8  H   UNL     1      16.657   9.443   8.773  0.00  0.00    +0.159 HD
ATOM      9  H   UNL     1      16.506   9.702   7.079  0.00  0.00    +0.159 HD
ENDROOT
BRANCH   1  10
ATOM     10  C   UNL     1      15.584  10.757  10.701  0.00  0.00    +0.151 C 
BRANCH  10  11
ATOM     11  C   UNL     1      16.042  11.769  11.715  0.00  0.00    -0.028 A 
ATOM     12  C   UNL     1      15.319  12.954  11.915  0.00  0.00    +0.005 A 
ATOM     13  C   UNL     1      17.196  11.546  12.482  0.00  0.00    +0.005 A 
ATOM     14  C   UNL     1      15.727  13.880  12.878  0.00  0.00    +0.000 A 
ATOM     15  C   UNL     1      17.601  12.474  13.441  0.00  0.00    +0.000 A 
ATOM     16  C   UNL     1      16.865  13.640  13.641  0.00  0.00    +0.000 A 
ENDBRANCH  10  11
ENDBRANCH   1  10
TORSDOF 2
ENDMDL
MODEL 4
REMARK VINA RESULT:    -5.182     28.014     29.182
REMARK INTER + INTRA:          -5.923
REMARK INTER:                  -5.742
REMARK INTRA:                  -0.181
REMARK UNBOUND:                -0.136
REMARK  Name = 1550473
REMARK  2 active torsions:
REMARK  status: ('A' for Active; 'I' for Inactive)
REMARK    1  A    between atoms: N_1  and  C_4
REMARK    2  A    between atoms: C_4  and  C_5
REMARK                            x       y       z     vdW  Elec       q    Type
REMARK                         _______ _______ _______ _____ _____    ______ ____
ROOT
ATOM      1  N   UNL     1      17.833   9.464  11.788  0.00  0.00    -0.354 N 
ATOM      2  N   UNL     1      17.179   7.326  12.393  0.00  0.00    -0.372 N 
ATOM      3  N   UNL     1      16.075   8.380  10.680  0.00  0.00    -0.372 N 
ATOM      4  C   UNL     1      17.031   8.405  11.614  0.00  0.00    +0.166 C 
ATOM      5  H   UNL     1      18.518   9.432  12.533  0.00  0.00    +0.163 HD
ATOM      6  H   UNL     1      16.592   6.511  12.283  0.00  0.00    +0.159 HD
ATOM      7  H   UNL     1      17.896   7.279  13.107  0.00  0.00    +0.159 HD
ATOM      8  H   UNL     1      15.908   9.164  10.064  0.00  0.00    +0.159 HD
ATOM      9  H   UNL     1      15.469   7.578  10.562  0.00  0.00    +0.159 HD
ENDROOT
BRANCH   1  10
ATOM     10  C   UNL     1      17.790  10.667  10.957  0.00  0.00    +0.151 C 
BRANCH  10  11
ATOM     11  C   UNL     1      17.022  11.737  11.683  0.00  0.00    -0.028 A 
ATOM     12  C   UNL     1      17.560  12.348  12.825  0.00  0.00    +0.005 A 
ATOM     13  C   UNL     1      15.760  12.149  11.230  0.00  0.00    +0.005 A 
ATOM     14  C   UNL     1      16.861  13.364  13.482  0.00  0.00    +0.000 A 
ATOM     15  C   UNL     1      15.064  13.163  11.889  0.00  0.00    +0.000 A 
ATOM     16  C   UNL     1      15.616  13.772  13.014  0.00  0.00    +0.000 A 
ENDBRANCH  10  11
ENDBRANCH   1  10
TORSDOF 2
ENDMDL
MODEL 5
REMARK VINA RESULT:    -5.129     26.891     28.135
REMARK INTER + INTRA:          -5.865
REMARK INTER:                  -5.757
REMARK INTRA:                  -0.108
REMARK UNBOUND:                -0.136
REMARK  Name = 1550473
REMARK  2 active torsions:
REMARK  status: ('A' for Active; 'I' for Inactive)
REMARK    1  A    between atoms: N_1  and  C_4
REMARK    2  A    between atoms: C_4  and  C_5
REMARK                            x       y       z     vdW  Elec       q    Type
REMARK                         _______ _______ _______ _____ _____    ______ ____
ROOT
ATOM      1  N   UNL     1      16.670  -5.360   4.238  0.00  0.00    -0.354 N 
ATOM      2  N   UNL     1      15.769  -6.594   2.497  0.00  0.00    -0.372 N 
ATOM      3  N   UNL     1      17.917  -7.034   3.173  0.00  0.00    -0.372 N 
ATOM      4  C   UNL     1      16.794  -6.322   3.314  0.00  0.00    +0.166 C 
ATOM      5  H   UNL     1      15.803  -4.836   4.274  0.00  0.00    +0.163 HD
ATOM      6  H   UNL     1      15.832  -7.317   1.793  0.00  0.00    +0.159 HD
ATOM      7  H   UNL     1      14.887  -6.101   2.566  0.00  0.00    +0.159 HD
ATOM      8  H   UNL     1      18.729  -6.873   3.754  0.00  0.00    +0.159 HD
ATOM      9  H   UNL     1      18.004  -7.754   2.466  0.00  0.00    +0.159 HD
ENDROOT
BRANCH   1  10
ATOM     10  C   UNL     1      17.707  -5.022   5.211  0.00  0.00    +0.151 C 
BRANCH  10  11
ATOM     11  C   UNL     1      17.151  -4.031   6.197  0.00  0.00    -0.028 A 
ATOM     12  C   UNL     1      16.397  -2.934   5.755  0.00  0.00    +0.005 A 
ATOM     13  C   UNL     1      17.371  -4.187   7.574  0.00  0.00    +0.005 A 
ATOM     14  C   UNL     1      15.856  -2.030   6.672  0.00  0.00    +0.000 A 
ATOM     15  C   UNL     1      16.829  -3.282   8.486  0.00  0.00    +0.000 A 
ATOM     16  C   UNL     1      16.069  -2.205   8.035  0.00  0.00    +0.000 A 
ENDBRANCH  10  11
ENDBRANCH   1  10
TORSDOF 2
ENDMDL
MODEL 6
REMARK VINA RESULT:    -4.981      3.494      4.698
REMARK INTER + INTRA:          -5.699
REMARK INTER:                  -5.597
REMARK INTRA:                  -0.102
REMARK UNBOUND:                -0.136
REMARK  Name = 1550473
REMARK  2 active torsions:
REMARK  status: ('A' for Active; 'I' for Inactive)
REMARK    1  A    between atoms: N_1  and  C_4
REMARK    2  A    between atoms: C_4  and  C_5
REMARK                            x       y       z     vdW  Elec       q    Type
REMARK                         _______ _______ _______ _____ _____    ______ ____
ROOT
ATOM      1  N   UNL     1      -3.576   7.779  -2.472  0.00  0.00    -0.354 N 
ATOM      2  N   UNL     1      -1.678   6.832  -1.542  0.00  0.00    -0.372 N 
ATOM      3  N   UNL     1      -3.516   7.169  -0.210  0.00  0.00    -0.372 N 
ATOM      4  C   UNL     1      -2.937   7.266  -1.411  0.00  0.00    +0.166 C 
ATOM      5  H   UNL     1      -3.072   7.854  -3.348  0.00  0.00    +0.163 HD
ATOM      6  H   UNL     1      -1.172   6.437  -0.760  0.00  0.00    +0.159 HD
ATOM      7  H   UNL     1      -1.192   6.866  -2.429  0.00  0.00    +0.159 HD
ATOM      8  H   UNL     1      -4.463   7.484  -0.044  0.00  0.00    +0.159 HD
ATOM      9  H   UNL     1      -3.022   6.787   0.587  0.00  0.00    +0.159 HD
ENDROOT
BRANCH   1  10
ATOM     10  C   UNL     1      -4.966   8.231  -2.449  0.00  0.00    +0.151 C 
BRANCH  10  11
ATOM     11  C   UNL     1      -5.602   7.929  -3.778  0.00  0.00    -0.028 A 
ATOM     12  C   UNL     1      -5.293   8.700  -4.907  0.00  0.00    +0.005 A 
ATOM     13  C   UNL     1      -6.511   6.868  -3.915  0.00  0.00    +0.005 A 
ATOM     14  C   UNL     1      -5.860   8.402  -6.148  0.00  0.00    +0.000 A 
ATOM     15  C   UNL     1      -7.076   6.574  -5.156  0.00  0.00    +0.000 A 
ATOM     16  C   UNL     1      -6.749   7.339  -6.273  0.00  0.00    +0.000 A 
ENDBRANCH  10  11
ENDBRANCH   1  10
TORSDOF 2
ENDMDL
MODEL 7
REMARK VINA RESULT:    -4.941     27.864     29.203
REMARK INTER + INTRA:          -5.655
REMARK INTER:                  -5.550
REMARK INTRA:                  -0.105
REMARK UNBOUND:                -0.136
REMARK  Name = 1550473
REMARK  2 active torsions:
REMARK  status: ('A' for Active; 'I' for Inactive)
REMARK    1  A    between atoms: N_1  and  C_4
REMARK    2  A    between atoms: C_4  and  C_5
REMARK                            x       y       z     vdW  Elec       q    Type
REMARK                         _______ _______ _______ _____ _____    ______ ____
ROOT
ATOM      1  N   UNL     1      18.560   0.341   8.857  0.00  0.00    -0.354 N 
ATOM      2  N   UNL     1      19.707   2.349   8.724  0.00  0.00    -0.372 N 
ATOM      3  N   UNL     1      18.964   1.630  10.772  0.00  0.00    -0.372 N 
ATOM      4  C   UNL     1      19.069   1.427   9.455  0.00  0.00    +0.166 C 
ATOM      5  H   UNL     1      18.647   0.261   7.851  0.00  0.00    +0.163 HD
ATOM      6  H   UNL     1      20.104   3.177   9.148  0.00  0.00    +0.159 HD
ATOM      7  H   UNL     1      19.832   2.244   7.725  0.00  0.00    +0.159 HD
ATOM      8  H   UNL     1      18.489   0.975  11.379  0.00  0.00    +0.159 HD
ATOM      9  H   UNL     1      19.344   2.458  11.213  0.00  0.00    +0.159 HD
ENDROOT
BRANCH   1  10
ATOM     10  C   UNL     1      17.895  -0.748   9.570  0.00  0.00    +0.151 C 
BRANCH  10  11
ATOM     11  C   UNL     1      17.426  -1.772   8.573  0.00  0.00    -0.028 A 
ATOM     12  C   UNL     1      17.725  -3.131   8.754  0.00  0.00    +0.005 A 
ATOM     13  C   UNL     1      16.677  -1.391   7.449  0.00  0.00    +0.005 A 
ATOM     14  C   UNL     1      17.263  -4.086   7.845  0.00  0.00    +0.000 A 
ATOM     15  C   UNL     1      16.219  -2.348   6.543  0.00  0.00    +0.000 A 
ATOM     16  C   UNL     1      16.510  -3.695   6.743  0.00  0.00    +0.000 A 
ENDBRANCH  10  11
ENDBRANCH   1  10
TORSDOF 2
ENDMDL
MODEL 8
REMARK VINA RESULT:    -4.914     26.883     28.047
REMARK INTER + INTRA:          -5.624
REMARK INTER:                  -5.567
REMARK INTRA:                  -0.057
REMARK UNBOUND:                -0.136
REMARK  Name = 1550473
REMARK  2 active torsions:
REMARK  status: ('A' for Active; 'I' for Inactive)
REMARK    1  A    between atoms: N_1  and  C_4
REMARK    2  A    between atoms: C_4  and  C_5
REMARK                            x       y       z     vdW  Elec       q    Type
REMARK                         _______ _______ _______ _____ _____    ______ ____
ROOT
ATOM      1  N   UNL     1      16.721  -4.478   4.168  0.00  0.00    -0.354 N 
ATOM      2  N   UNL     1      17.039  -3.578   2.058  0.00  0.00    -0.372 N 
ATOM      3  N   UNL     1      18.821  -3.682   3.499  0.00  0.00    -0.372 N 
ATOM      4  C   UNL     1      17.528  -3.918   3.257  0.00  0.00    +0.166 C 
ATOM      5  H   UNL     1      15.743  -4.603   3.934  0.00  0.00    +0.163 HD
ATOM      6  H   UNL     1      17.624  -3.157   1.349  0.00  0.00    +0.159 HD
ATOM      7  H   UNL     1      16.072  -3.746   1.810  0.00  0.00    +0.159 HD
ATOM      8  H   UNL     1      19.250  -3.910   4.386  0.00  0.00    +0.159 HD
ATOM      9  H   UNL     1      19.421  -3.251   2.807  0.00  0.00    +0.159 HD
ENDROOT
BRANCH   1  10
ATOM     10  C   UNL     1      17.166  -4.934   5.484  0.00  0.00    +0.151 C 
BRANCH  10  11
ATOM     11  C   UNL     1      16.853  -3.874   6.503  0.00  0.00    -0.028 A 
ATOM     12  C   UNL     1      16.076  -2.760   6.156  0.00  0.00    +0.005 A 
ATOM     13  C   UNL     1      17.326  -3.981   7.820  0.00  0.00    +0.005 A 
ATOM     14  C   UNL     1      15.760  -1.790   7.110  0.00  0.00    +0.000 A 
ATOM     15  C   UNL     1      17.008  -3.010   8.770  0.00  0.00    +0.000 A 
ATOM     16  C   UNL     1      16.223  -1.916   8.415  0.00  0.00    +0.000 A 
ENDBRANCH  10  11
ENDBRANCH   1  10
TORSDOF 2
ENDMDL
MODEL 9
REMARK VINA RESULT:    -4.887     27.664     28.934
REMARK INTER + INTRA:          -5.594
REMARK INTER:                  -5.465
REMARK INTRA:                  -0.130
REMARK UNBOUND:                -0.136
REMARK  Name = 1550473
REMARK  2 active torsions:
REMARK  status: ('A' for Active; 'I' for Inactive)
REMARK    1  A    between atoms: N_1  and  C_4
REMARK    2  A    between atoms: C_4  and  C_5
REMARK                            x       y       z     vdW  Elec       q    Type
REMARK                         _______ _______ _______ _____ _____    ______ ____
ROOT
ATOM      1  N   UNL     1      17.563  -1.009  10.409  0.00  0.00    -0.354 N 
ATOM      2  N   UNL     1      16.720  -0.184  12.402  0.00  0.00    -0.372 N 
ATOM      3  N   UNL     1      18.487   0.896  11.413  0.00  0.00    -0.372 N 
ATOM      4  C   UNL     1      17.598  -0.103  11.395  0.00  0.00    +0.166 C 
ATOM      5  H   UNL     1      16.884  -1.760  10.468  0.00  0.00    +0.163 HD
ATOM      6  H   UNL     1      16.719   0.488  13.157  0.00  0.00    +0.159 HD
ATOM      7  H   UNL     1      16.013  -0.908  12.435  0.00  0.00    +0.159 HD
ATOM      8  H   UNL     1      19.180   1.009  10.686  0.00  0.00    +0.159 HD
ATOM      9  H   UNL     1      18.510   1.571  12.167  0.00  0.00    +0.159 HD
ENDROOT
BRANCH   1  10
ATOM     10  C   UNL     1      18.440  -0.979   9.239  0.00  0.00    +0.151 C 
BRANCH  10  11
ATOM     11  C   UNL     1      17.728  -1.613   8.076  0.00  0.00    -0.028 A 
ATOM     12  C   UNL     1      18.453  -2.103   6.979  0.00  0.00    +0.005 A 
ATOM     13  C   UNL     1      16.330  -1.731   8.066  0.00  0.00    +0.005 A 
ATOM     14  C   UNL     1      17.794  -2.718   5.912  0.00  0.00    +0.000 A 
ATOM     15  C   UNL     1      15.676  -2.345   6.998  0.00  0.00    +0.000 A 
ATOM     16  C   UNL     1      16.409  -2.841   5.922  0.00  0.00    +0.000 A 
ENDBRANCH  10  11
ENDBRANCH   1  10
TORSDOF 2
ENDMDL
