MODEL 1
REMARK VINA RESULT:    -5.962      0.000      0.000
REMARK INTER + INTRA:          -6.760
REMARK INTER:                  -6.659
REMARK INTRA:                  -0.101
REMARK UNBOUND:                -0.101
REMARK  Name = 1550473
REMARK  2 active torsions:
REMARK  status: ('A' for Active; 'I' for Inactive)
REMARK    1  A    between atoms: N_1  and  C_4
REMARK    2  A    between atoms: C_4  and  C_5
REMARK                            x       y       z     vdW  Elec       q    Type
REMARK                         _______ _______ _______ _____ _____    ______ ____
ROOT
ATOM      1  N   UNL     1      13.711  -7.340  -4.707  0.00  0.00    -0.354 N 
ATOM      2  N   UNL     1      11.529  -7.478  -5.471  0.00  0.00    -0.372 N 
ATOM      3  N   UNL     1      12.884  -9.321  -5.646  0.00  0.00    -0.372 N 
ATOM      4  C   UNL     1      12.723  -8.048  -5.270  0.00  0.00    +0.166 C 
ATOM      5  H   UNL     1      13.535  -6.370  -4.473  0.00  0.00    +0.163 HD
ATOM      6  H   UNL     1      10.764  -7.988  -5.891  0.00  0.00    +0.159 HD
ATOM      7  H   UNL     1      11.342  -6.522  -5.194  0.00  0.00    +0.159 HD
ATOM      8  H   UNL     1      13.763  -9.808  -5.527  0.00  0.00    +0.159 HD
ATOM      9  H   UNL     1      12.134  -9.845  -6.078  0.00  0.00    +0.159 HD
ENDROOT
BRANCH   1  10
ATOM     10  C   UNL     1      15.032  -7.883  -4.396  0.00  0.00    +0.151 C 
BRANCH  10  11
ATOM     11  C   UNL     1      15.851  -6.823  -3.713  0.00  0.00    -0.028 A 
ATOM     12  C   UNL     1      16.424  -7.065  -2.456  0.00  0.00    +0.005 A 
ATOM     13  C   UNL     1      16.062  -5.575  -4.320  0.00  0.00    +0.005 A 
ATOM     14  C   UNL     1      17.209  -6.091  -1.834  0.00  0.00    +0.000 A 
ATOM     15  C   UNL     1      16.846  -4.605  -3.696  0.00  0.00    +0.000 A 
ATOM     16  C   UNL     1      17.422  -4.864  -2.454  0.00  0.00    +0.000 A 
ENDBRANCH  10  11
ENDBRANCH   1  10
TORSDOF 2
ENDMDL
MODEL 2
REMARK VINA RESULT:    -5.740     17.935     19.226
REMARK INTER + INTRA:          -6.512
REMARK INTER:                  -6.334
REMARK INTRA:                  -0.178
REMARK UNBOUND:                -0.101
REMARK  Name = 1550473
REMARK  2 active torsions:
REMARK  status: ('A' for Active; 'I' for Inactive)
REMARK    1  A    between atoms: N_1  and  C_4
REMARK    2  A    between atoms: C_4  and  C_5
REMARK                            x       y       z     vdW  Elec       q    Type
REMARK                         _______ _______ _______ _____ _____    ______ ____
ROOT
ATOM      1  N   UNL     1      14.681  -5.289  13.294  0.00  0.00    -0.354 N 
ATOM      2  N   UNL     1      13.005  -5.137  11.702  0.00  0.00    -0.372 N 
ATOM      3  N   UNL     1      12.685  -6.495  13.523  0.00  0.00    -0.372 N 
ATOM      4  C   UNL     1      13.467  -5.643  12.852  0.00  0.00    +0.166 C 
ATOM      5  H   UNL     1      15.237  -4.663  12.723  0.00  0.00    +0.163 HD
ATOM      6  H   UNL     1      12.091  -5.383  11.345  0.00  0.00    +0.159 HD
ATOM      7  H   UNL     1      13.544  -4.475  11.157  0.00  0.00    +0.159 HD
ATOM      8  H   UNL     1      12.977  -6.918  14.394  0.00  0.00    +0.159 HD
ATOM      9  H   UNL     1      11.772  -6.763  13.176  0.00  0.00    +0.159 HD
ENDROOT
BRANCH   1  10
ATOM     10  C   UNL     1      15.254  -5.742  14.560  0.00  0.00    +0.151 C 
BRANCH  10  11
ATOM     11  C   UNL     1      15.167  -4.627  15.565  0.00  0.00    -0.028 A 
ATOM     12  C   UNL     1      14.058  -4.524  16.418  0.00  0.00    +0.005 A 
ATOM     13  C   UNL     1      16.191  -3.675  15.674  0.00  0.00    +0.005 A 
ATOM     14  C   UNL     1      13.990  -3.506  17.373  0.00  0.00    +0.000 A 
ATOM     15  C   UNL     1      16.119  -2.660  16.628  0.00  0.00    +0.000 A 
ATOM     16  C   UNL     1      15.020  -2.577  17.479  0.00  0.00    +0.000 A 
ENDBRANCH  10  11
ENDBRANCH   1  10
TORSDOF 2
ENDMDL
MODEL 3
REMARK VINA RESULT:    -5.740     19.451     20.366
REMARK INTER + INTRA:          -6.512
REMARK INTER:                  -6.402
REMARK INTRA:                  -0.110
REMARK UNBOUND:                -0.101
REMARK  Name = 1550473
REMARK  2 active torsions:
REMARK  status: ('A' for Active; 'I' for Inactive)
REMARK    1  A    between atoms: N_1  and  C_4
REMARK    2  A    between atoms: C_4  and  C_5
REMARK                            x       y       z     vdW  Elec       q    Type
REMARK                         _______ _______ _______ _____ _____    ______ ____
ROOT
ATOM      1  N   UNL     1      -1.277   0.002   3.618  0.00  0.00    -0.354 N 
ATOM      2  N   UNL     1      -0.074   1.151   5.230  0.00  0.00    -0.372 N 
ATOM      3  N   UNL     1      -0.916  -0.921   5.742  0.00  0.00    -0.372 N 
ATOM      4  C   UNL     1      -0.764   0.067   4.855  0.00  0.00    +0.166 C 
ATOM      5  H   UNL     1      -1.152   0.798   3.003  0.00  0.00    +0.163 HD
ATOM      6  H   UNL     1       0.328   1.227   6.155  0.00  0.00    +0.159 HD
ATOM      7  H   UNL     1       0.089   1.925   4.598  0.00  0.00    +0.159 HD
ATOM      8  H   UNL     1      -1.432  -1.763   5.522  0.00  0.00    +0.159 HD
ATOM      9  H   UNL     1      -0.532  -0.859   6.676  0.00  0.00    +0.159 HD
ENDROOT
BRANCH   1  10
ATOM     10  C   UNL     1      -1.998  -1.155   3.093  0.00  0.00    +0.151 C 
BRANCH  10  11
ATOM     11  C   UNL     1      -2.828  -0.723   1.915  0.00  0.00    -0.028 A 
ATOM     12  C   UNL     1      -4.138  -1.198   1.754  0.00  0.00    +0.005 A 
ATOM     13  C   UNL     1      -2.312   0.166   0.960  0.00  0.00    +0.005 A 
ATOM     14  C   UNL     1      -4.919  -0.773   0.677  0.00  0.00    +0.000 A 
ATOM     15  C   UNL     1      -3.095   0.587  -0.115  0.00  0.00    +0.000 A 
ATOM     16  C   UNL     1      -4.400   0.119  -0.255  0.00  0.00    +0.000 A 
ENDBRANCH  10  11
ENDBRANCH   1  10
TORSDOF 2
ENDMDL
MODEL 4
REMARK VINA RESULT:    -5.541     11.826     13.185
REMARK INTER + INTRA:          -6.290
REMARK INTER:                  -6.164
REMARK INTRA:                  -0.126
REMARK UNBOUND:                -0.101
REMARK  Name = 1550473
REMARK  2 active torsions:
REMARK  status: ('A' for Active; 'I' for Inactive)
REMARK    1  A    between atoms: N_1  and  C_4
REMARK    2  A    between atoms: C_4  and  C_5
REMARK                            x       y       z     vdW  Elec       q    Type
REMARK                         _______ _______ _______ _____ _____    ______ ____
ROOT
ATOM      1  N   UNL     1       2.563  -8.691   2.308  0.00  0.00    -0.354 N 
ATOM      2  N   UNL     1       1.113  -9.361   3.985  0.00  0.00    -0.372 N 
ATOM      3  N   UNL     1       0.725 -10.067   1.836  0.00  0.00    -0.372 N 
ATOM      4  C   UNL     1       1.475  -9.370   2.697  0.00  0.00    +0.166 C 
ATOM      5  H   UNL     1       3.071  -8.158   3.004  0.00  0.00    +0.163 HD
ATOM      6  H   UNL     1       0.299  -9.867   4.308  0.00  0.00    +0.159 HD
ATOM      7  H   UNL     1       1.649  -8.865   4.686  0.00  0.00    +0.159 HD
ATOM      8  H   UNL     1       0.942 -10.108   0.849  0.00  0.00    +0.159 HD
ATOM      9  H   UNL     1      -0.100 -10.570   2.139  0.00  0.00    +0.159 HD
ENDROOT
BRANCH   1  10
ATOM     10  C   UNL     1       3.074  -8.679   0.938  0.00  0.00    +0.151 C 
BRANCH  10  11
ATOM     11  C   UNL     1       3.877  -7.426   0.725  0.00  0.00    -0.028 A 
ATOM     12  C   UNL     1       4.261  -7.038  -0.568  0.00  0.00    +0.005 A 
ATOM     13  C   UNL     1       4.252  -6.618   1.809  0.00  0.00    +0.005 A 
ATOM     14  C   UNL     1       4.981  -5.858  -0.770  0.00  0.00    +0.000 A 
ATOM     15  C   UNL     1       4.972  -5.442   1.603  0.00  0.00    +0.000 A 
ATOM     16  C   UNL     1       5.334  -5.061   0.314  0.00  0.00    +0.000 A 
ENDBRANCH  10  11
ENDBRANCH   1  10
TORSDOF 2
ENDMDL
MODEL 5
REMARK VINA RESULT:    -5.454     22.852     24.260
REMARK INTER + INTRA:          -6.193
REMARK INTER:                  -6.075
REMARK INTRA:                  -0.118
REMARK UNBOUND:                -0.101
REMARK  Name = 1550473
REMARK  2 active torsions:
REMARK  status: ('A' for Active; 'I' for Inactive)
REMARK    1  A    between atoms: N_1  and  C_4
REMARK    2  A    between atoms: C_4  and  C_5
REMARK                            x       y       z     vdW  Elec       q    Type
REMARK                         _______ _______ _______ _____ _____    ______ ____
ROOT
ATOM      1  N   UNL     1      20.243   7.977  15.489  0.00  0.00    -0.354 N 
ATOM      2  N   UNL     1      22.028   9.424  15.784  0.00  0.00    -0.372 N 
ATOM      3  N   UNL     1      21.354   8.914  13.651  0.00  0.00    -0.372 N 
ATOM      4  C   UNL     1      21.197   8.762  14.970  0.00  0.00    +0.166 C 
ATOM      5  H   UNL     1      20.195   7.881  16.497  0.00  0.00    +0.163 HD
ATOM      6  H   UNL     1      22.754  10.026  15.421  0.00  0.00    +0.159 HD
ATOM      7  H   UNL     1      21.948   9.362  16.792  0.00  0.00    +0.159 HD
ATOM      8  H   UNL     1      20.763   8.437  12.982  0.00  0.00    +0.159 HD
ATOM      9  H   UNL     1      22.083   9.503  13.268  0.00  0.00    +0.159 HD
ENDROOT
BRANCH   1  10
ATOM     10  C   UNL     1      19.253   7.255  14.691  0.00  0.00    +0.151 C 
BRANCH  10  11
ATOM     11  C   UNL     1      19.201   5.825  15.151  0.00  0.00    -0.028 A 
ATOM     12  C   UNL     1      18.719   5.505  16.429  0.00  0.00    +0.005 A 
ATOM     13  C   UNL     1      19.625   4.784  14.311  0.00  0.00    +0.005 A 
ATOM     14  C   UNL     1      18.642   4.173  16.845  0.00  0.00    +0.000 A 
ATOM     15  C   UNL     1      19.547   3.456  14.731  0.00  0.00    +0.000 A 
ATOM     16  C   UNL     1      19.053   3.151  15.997  0.00  0.00    +0.000 A 
ENDBRANCH  10  11
ENDBRANCH   1  10
TORSDOF 2
ENDMDL
MODEL 6
REMARK VINA RESULT:    -5.318      1.425      2.128
REMARK INTER + INTRA:          -6.041
REMARK INTER:                  -5.903
REMARK INTRA:                  -0.138
REMARK UNBOUND:                -0.101
REMARK  Name = 1550473
REMARK  2 active torsions:
REMARK  status: ('A' for Active; 'I' for Inactive)
REMARK    1  A    between atoms: N_1  and  C_4
REMARK    2  A    between atoms: C_4  and  C_5
REMARK                            x       y       z     vdW  Elec       q    Type
REMARK                         _______ _______ _______ _____ _____    ______ ____
ROOT
ATOM      1  N   UNL     1      14.231  -7.791  -4.584  0.00  0.00    -0.354 N 
ATOM      2  N   UNL     1      13.084  -9.482  -5.676  0.00  0.00    -0.372 N 
ATOM      3  N   UNL     1      12.335  -7.323  -5.880  0.00  0.00    -0.372 N 
ATOM      4  C   UNL     1      13.222  -8.185  -5.374  0.00  0.00    +0.166 C 
ATOM      5  H   UNL     1      14.852  -8.498  -4.208  0.00  0.00    +0.163 HD
ATOM      6  H   UNL     1      12.335  -9.808  -6.272  0.00  0.00    +0.159 HD
ATOM      7  H   UNL     1      13.734 -10.181  -5.336  0.00  0.00    +0.159 HD
ATOM      8  H   UNL     1      12.380  -6.331  -5.685  0.00  0.00    +0.159 HD
ATOM      9  H   UNL     1      11.572  -7.632  -6.469  0.00  0.00    +0.159 HD
ENDROOT
BRANCH   1  10
ATOM     10  C   UNL     1      14.501  -6.397  -4.238  0.00  0.00    +0.151 C 
BRANCH  10  11
ATOM     11  C   UNL     1      15.941  -6.086  -4.542  0.00  0.00    -0.028 A 
ATOM     12  C   UNL     1      16.727  -6.993  -5.267  0.00  0.00    +0.005 A 
ATOM     13  C   UNL     1      16.522  -4.883  -4.113  0.00  0.00    +0.005 A 
ATOM     14  C   UNL     1      18.056  -6.691  -5.576  0.00  0.00    +0.000 A 
ATOM     15  C   UNL     1      17.850  -4.586  -4.423  0.00  0.00    +0.000 A 
ATOM     16  C   UNL     1      18.615  -5.489  -5.156  0.00  0.00    +0.000 A 
ENDBRANCH  10  11
ENDBRANCH   1  10
TORSDOF 2
ENDMDL
MODEL 7
REMARK VINA RESULT:    -5.274     11.876     12.917
REMARK INTER + INTRA:          -5.992
REMARK INTER:                  -5.844
REMARK INTRA:                  -0.148
REMARK UNBOUND:                -0.101
REMARK  Name = 1550473
REMARK  2 active torsions:
REMARK  status: ('A' for Active; 'I' for Inactive)
REMARK    1  A    between atoms: N_1  and  C_4
REMARK    2  A    between atoms: C_4  and  C_5
REMARK                            x       y       z     vdW  Elec       q    Type
REMARK                         _______ _______ _______ _____ _____    ______ ____
ROOT
ATOM      1  N   UNL     1       2.964  -9.912   0.823  0.00  0.00    -0.354 N 
ATOM      2  N   UNL     1       1.150 -10.905  -0.218  0.00  0.00    -0.372 N 
ATOM      3  N   UNL     1       0.884 -10.051   1.895  0.00  0.00    -0.372 N 
ATOM      4  C   UNL     1       1.677 -10.282   0.843  0.00  0.00    +0.166 C 
ATOM      5  H   UNL     1       3.519 -10.143   0.008  0.00  0.00    +0.163 HD
ATOM      6  H   UNL     1       0.181 -11.194  -0.234  0.00  0.00    +0.159 HD
ATOM      7  H   UNL     1       1.695 -11.094  -1.051  0.00  0.00    +0.159 HD
ATOM      8  H   UNL     1       1.223  -9.590   2.729  0.00  0.00    +0.159 HD
ATOM      9  H   UNL     1      -0.085 -10.343   1.902  0.00  0.00    +0.159 HD
ENDROOT
BRANCH   1  10
ATOM     10  C   UNL     1       3.620  -9.180   1.906  0.00  0.00    +0.151 C 
BRANCH  10  11
ATOM     11  C   UNL     1       4.044  -7.829   1.399  0.00  0.00    -0.028 A 
ATOM     12  C   UNL     1       4.411  -6.815   2.296  0.00  0.00    +0.005 A 
ATOM     13  C   UNL     1       4.087  -7.559   0.022  0.00  0.00    +0.005 A 
ATOM     14  C   UNL     1       4.834  -5.570   1.824  0.00  0.00    +0.000 A 
ATOM     15  C   UNL     1       4.509  -6.314  -0.444  0.00  0.00    +0.000 A 
ATOM     16  C   UNL     1       4.884  -5.320   0.457  0.00  0.00    +0.000 A 
ENDBRANCH  10  11
ENDBRANCH   1  10
TORSDOF 2
ENDMDL
MODEL 8
REMARK VINA RESULT:    -5.092      3.762      5.785
REMARK INTER + INTRA:          -5.788
REMARK INTER:                  -5.681
REMARK INTRA:                  -0.107
REMARK UNBOUND:                -0.101
REMARK  Name = 1550473
REMARK  2 active torsions:
REMARK  status: ('A' for Active; 'I' for Inactive)
REMARK    1  A    between atoms: N_1  and  C_4
REMARK    2  A    between atoms: C_4  and  C_5
REMARK                            x       y       z     vdW  Elec       q    Type
REMARK                         _______ _______ _______ _____ _____    ______ ____
ROOT
ATOM      1  N   UNL     1      13.748  -9.244  -5.326  0.00  0.00    -0.354 N 
ATOM      2  N   UNL     1      11.759  -8.058  -5.378  0.00  0.00    -0.372 N 
ATOM      3  N   UNL     1      13.685  -7.027  -6.081  0.00  0.00    -0.372 N 
ATOM      4  C   UNL     1      13.079  -8.115  -5.596  0.00  0.00    +0.166 C 
ATOM      5  H   UNL     1      13.236 -10.025  -4.931  0.00  0.00    +0.163 HD
ATOM      6  H   UNL     1      11.227  -7.221  -5.575  0.00  0.00    +0.159 HD
ATOM      7  H   UNL     1      11.242  -8.854  -5.026  0.00  0.00    +0.159 HD
ATOM      8  H   UNL     1      14.679  -7.003  -6.262  0.00  0.00    +0.159 HD
ATOM      9  H   UNL     1      13.171  -6.176  -6.274  0.00  0.00    +0.159 HD
ENDROOT
BRANCH   1  10
ATOM     10  C   UNL     1      15.176  -9.428  -5.578  0.00  0.00    +0.151 C 
BRANCH  10  11
ATOM     11  C   UNL     1      15.426 -10.860  -5.964  0.00  0.00    -0.028 A 
ATOM     12  C   UNL     1      15.227 -11.286  -7.285  0.00  0.00    +0.005 A 
ATOM     13  C   UNL     1      15.868 -11.794  -5.014  0.00  0.00    +0.005 A 
ATOM     14  C   UNL     1      15.488 -12.609  -7.651  0.00  0.00    +0.000 A 
ATOM     15  C   UNL     1      16.127 -13.114  -5.384  0.00  0.00    +0.000 A 
ATOM     16  C   UNL     1      15.939 -13.520  -6.703  0.00  0.00    +0.000 A 
ENDBRANCH  10  11
ENDBRANCH   1  10
TORSDOF 2
ENDMDL
MODEL 9
REMARK VINA RESULT:    -5.079     28.155     30.248
REMARK INTER + INTRA:          -5.773
REMARK INTER:                  -5.653
REMARK INTRA:                  -0.120
REMARK UNBOUND:                -0.101
REMARK  Name = 1550473
REMARK  2 active torsions:
REMARK  status: ('A' for Active; 'I' for Inactive)
REMARK    1  A    between atoms: N_1  and  C_4
REMARK    2  A    between atoms: C_4  and  C_5
REMARK                            x       y       z     vdW  Elec       q    Type
REMARK                         _______ _______ _______ _____ _____    ______ ____
ROOT
ATOM      1  N   UNL     1     -10.859   5.491  -2.402  0.00  0.00    -0.354 N 
ATOM      2  N   UNL     1      -8.566   5.775  -2.573  0.00  0.00    -0.372 N 
ATOM      3  N   UNL     1      -9.935   7.590  -2.885  0.00  0.00    -0.372 N 
ATOM      4  C   UNL     1      -9.802   6.286  -2.620  0.00  0.00    +0.166 C 
ATOM      5  H   UNL     1     -10.693   4.505  -2.235  0.00  0.00    +0.163 HD
ATOM      6  H   UNL     1      -7.750   6.351  -2.730  0.00  0.00    +0.159 HD
ATOM      7  H   UNL     1      -8.401   4.798  -2.362  0.00  0.00    +0.159 HD
ATOM      8  H   UNL     1     -10.841   8.036  -2.940  0.00  0.00    +0.159 HD
ATOM      9  H   UNL     1      -9.131   8.180  -3.057  0.00  0.00    +0.159 HD
ENDROOT
BRANCH   1  10
ATOM     10  C   UNL     1     -12.243   5.959  -2.376  0.00  0.00    +0.151 C 
BRANCH  10  11
ATOM     11  C   UNL     1     -13.131   4.843  -1.899  0.00  0.00    -0.028 A 
ATOM     12  C   UNL     1     -14.491   4.819  -2.241  0.00  0.00    +0.005 A 
ATOM     13  C   UNL     1     -12.616   3.803  -1.110  0.00  0.00    +0.005 A 
ATOM     14  C   UNL     1     -15.309   3.767  -1.823  0.00  0.00    +0.000 A 
ATOM     15  C   UNL     1     -13.437   2.755  -0.694  0.00  0.00    +0.000 A 
ATOM     16  C   UNL     1     -14.782   2.736  -1.053  0.00  0.00    +0.000 A 
ENDBRANCH  10  11
ENDBRANCH   1  10
TORSDOF 2
ENDMDL
