MODEL 1
REMARK VINA RESULT:    -5.887      0.000      0.000
REMARK INTER + INTRA:          -6.625
REMARK INTER:                  -6.575
REMARK INTRA:                  -0.049
REMARK UNBOUND:                -0.049
REMARK  Name = 1550473
REMARK  2 active torsions:
REMARK  status: ('A' for Active; 'I' for Inactive)
REMARK    1  A    between atoms: N_1  and  C_4
REMARK    2  A    between atoms: C_4  and  C_5
REMARK                            x       y       z     vdW  Elec       q    Type
REMARK                         _______ _______ _______ _____ _____    ______ ____
ROOT
ATOM      1  N   UNL     1      -8.352   9.880  12.890  0.00  0.00    -0.354 N 
ATOM      2  N   UNL     1      -6.437  10.766  13.844  0.00  0.00    -0.372 N 
ATOM      3  N   UNL     1      -7.520   9.051  14.918  0.00  0.00    -0.372 N 
ATOM      4  C   UNL     1      -7.450   9.891  13.880  0.00  0.00    +0.166 C 
ATOM      5  H   UNL     1      -8.260  10.563  12.146  0.00  0.00    +0.163 HD
ATOM      6  H   UNL     1      -5.739  10.795  14.575  0.00  0.00    +0.159 HD
ATOM      7  H   UNL     1      -6.322  11.416  13.077  0.00  0.00    +0.159 HD
ATOM      8  H   UNL     1      -8.263   8.371  15.007  0.00  0.00    +0.159 HD
ATOM      9  H   UNL     1      -6.838   9.073  15.665  0.00  0.00    +0.159 HD
ENDROOT
BRANCH   1  10
ATOM     10  C   UNL     1      -9.462   8.932  12.806  0.00  0.00    +0.151 C 
BRANCH  10  11
ATOM     11  C   UNL     1      -9.182   7.943  11.709  0.00  0.00    -0.028 A 
ATOM     12  C   UNL     1      -7.865   7.561  11.414  0.00  0.00    +0.005 A 
ATOM     13  C   UNL     1     -10.229   7.379  10.964  0.00  0.00    +0.005 A 
ATOM     14  C   UNL     1      -7.606   6.619  10.415  0.00  0.00    +0.000 A 
ATOM     15  C   UNL     1      -9.966   6.440   9.967  0.00  0.00    +0.000 A 
ATOM     16  C   UNL     1      -8.655   6.058   9.694  0.00  0.00    +0.000 A 
ENDBRANCH  10  11
ENDBRANCH   1  10
TORSDOF 2
ENDMDL
MODEL 2
REMARK VINA RESULT:    -5.684     13.523     13.843
REMARK INTER + INTRA:          -6.398
REMARK INTER:                  -6.264
REMARK INTRA:                  -0.134
REMARK UNBOUND:                -0.049
REMARK  Name = 1550473
REMARK  2 active torsions:
REMARK  status: ('A' for Active; 'I' for Inactive)
REMARK    1  A    between atoms: N_1  and  C_4
REMARK    2  A    between atoms: C_4  and  C_5
REMARK                            x       y       z     vdW  Elec       q    Type
REMARK                         _______ _______ _______ _____ _____    ______ ____
ROOT
ATOM      1  N   UNL     1      -2.289  -4.619  13.804  0.00  0.00    -0.354 N 
ATOM      2  N   UNL     1      -0.531  -3.985  15.173  0.00  0.00    -0.372 N 
ATOM      3  N   UNL     1      -2.665  -3.372  15.752  0.00  0.00    -0.372 N 
ATOM      4  C   UNL     1      -1.842  -3.995  14.902  0.00  0.00    +0.166 C 
ATOM      5  H   UNL     1      -1.611  -5.047  13.184  0.00  0.00    +0.163 HD
ATOM      6  H   UNL     1      -0.165  -3.525  15.995  0.00  0.00    +0.159 HD
ATOM      7  H   UNL     1       0.140  -4.452  14.575  0.00  0.00    +0.159 HD
ATOM      8  H   UNL     1      -3.665  -3.338  15.602  0.00  0.00    +0.159 HD
ATOM      9  H   UNL     1      -2.317  -2.896  16.575  0.00  0.00    +0.159 HD
ENDROOT
BRANCH   1  10
ATOM     10  C   UNL     1      -3.702  -4.735  13.447  0.00  0.00    +0.151 C 
BRANCH  10  11
ATOM     11  C   UNL     1      -3.836  -4.678  11.950  0.00  0.00    -0.028 A 
ATOM     12  C   UNL     1      -5.023  -5.088  11.326  0.00  0.00    +0.005 A 
ATOM     13  C   UNL     1      -2.782  -4.209  11.151  0.00  0.00    +0.005 A 
ATOM     14  C   UNL     1      -5.159  -5.007   9.938  0.00  0.00    +0.000 A 
ATOM     15  C   UNL     1      -2.922  -4.130   9.766  0.00  0.00    +0.000 A 
ATOM     16  C   UNL     1      -4.111  -4.527   9.160  0.00  0.00    +0.000 A 
ENDBRANCH  10  11
ENDBRANCH   1  10
TORSDOF 2
ENDMDL
MODEL 3
REMARK VINA RESULT:    -5.624     19.356     20.715
REMARK INTER + INTRA:          -6.331
REMARK INTER:                  -6.185
REMARK INTRA:                  -0.146
REMARK UNBOUND:                -0.049
REMARK  Name = 1550473
REMARK  2 active torsions:
REMARK  status: ('A' for Active; 'I' for Inactive)
REMARK    1  A    between atoms: N_1  and  C_4
REMARK    2  A    between atoms: C_4  and  C_5
REMARK                            x       y       z     vdW  Elec       q    Type
REMARK                         _______ _______ _______ _____ _____    ______ ____
ROOT
ATOM      1  N   UNL     1      -3.713   7.686  -8.810  0.00  0.00    -0.354 N 
ATOM      2  N   UNL     1      -1.522   7.677  -8.060  0.00  0.00    -0.372 N 
ATOM      3  N   UNL     1      -2.288   9.500  -9.225  0.00  0.00    -0.372 N 
ATOM      4  C   UNL     1      -2.522   8.290  -8.705  0.00  0.00    +0.166 C 
ATOM      5  H   UNL     1      -3.817   6.756  -8.421  0.00  0.00    +0.163 HD
ATOM      6  H   UNL     1      -0.613   8.110  -7.962  0.00  0.00    +0.159 HD
ATOM      7  H   UNL     1      -1.642   6.768  -7.632  0.00  0.00    +0.159 HD
ATOM      8  H   UNL     1      -2.999  10.013  -9.729  0.00  0.00    +0.159 HD
ATOM      9  H   UNL     1      -1.381   9.944  -9.147  0.00  0.00    +0.159 HD
ENDROOT
BRANCH   1  10
ATOM     10  C   UNL     1      -4.883   8.290  -9.445  0.00  0.00    +0.151 C 
BRANCH  10  11
ATOM     11  C   UNL     1      -6.014   8.330  -8.455  0.00  0.00    -0.028 A 
ATOM     12  C   UNL     1      -5.897   7.686  -7.215  0.00  0.00    +0.005 A 
ATOM     13  C   UNL     1      -7.203   9.014  -8.749  0.00  0.00    +0.005 A 
ATOM     14  C   UNL     1      -6.935   7.747  -6.283  0.00  0.00    +0.000 A 
ATOM     15  C   UNL     1      -8.238   9.072  -7.816  0.00  0.00    +0.000 A 
ATOM     16  C   UNL     1      -8.103   8.441  -6.582  0.00  0.00    +0.000 A 
ENDBRANCH  10  11
ENDBRANCH   1  10
TORSDOF 2
ENDMDL
MODEL 4
REMARK VINA RESULT:    -5.258     12.886     14.729
REMARK INTER + INTRA:          -5.922
REMARK INTER:                  -5.776
REMARK INTRA:                  -0.147
REMARK UNBOUND:                -0.049
REMARK  Name = 1550473
REMARK  2 active torsions:
REMARK  status: ('A' for Active; 'I' for Inactive)
REMARK    1  A    between atoms: N_1  and  C_4
REMARK    2  A    between atoms: C_4  and  C_5
REMARK                            x       y       z     vdW  Elec       q    Type
REMARK                         _______ _______ _______ _____ _____    ______ ____
ROOT
ATOM      1  N   UNL     1     -11.950   1.861   0.048  0.00  0.00    -0.354 N 
ATOM      2  N   UNL     1     -11.318   3.410   1.649  0.00  0.00    -0.372 N 
ATOM      3  N   UNL     1     -13.519   2.772   1.531  0.00  0.00    -0.372 N 
ATOM      4  C   UNL     1     -12.269   2.671   1.066  0.00  0.00    +0.166 C 
ATOM      5  H   UNL     1     -10.990   1.852  -0.277  0.00  0.00    +0.163 HD
ATOM      6  H   UNL     1     -11.528   4.028   2.422  0.00  0.00    +0.159 HD
ATOM      7  H   UNL     1     -10.351   3.365   1.352  0.00  0.00    +0.159 HD
ATOM      8  H   UNL     1     -14.284   2.246   1.131  0.00  0.00    +0.159 HD
ATOM      9  H   UNL     1     -13.751   3.394   2.296  0.00  0.00    +0.159 HD
ENDROOT
BRANCH   1  10
ATOM     10  C   UNL     1     -12.901   0.974  -0.620  0.00  0.00    +0.151 C 
BRANCH  10  11
ATOM     11  C   UNL     1     -12.918  -0.352   0.089  0.00  0.00    -0.028 A 
ATOM     12  C   UNL     1     -14.132  -1.002   0.355  0.00  0.00    +0.005 A 
ATOM     13  C   UNL     1     -11.723  -0.967   0.492  0.00  0.00    +0.005 A 
ATOM     14  C   UNL     1     -14.147  -2.248   0.986  0.00  0.00    +0.000 A 
ATOM     15  C   UNL     1     -11.742  -2.211   1.124  0.00  0.00    +0.000 A 
ATOM     16  C   UNL     1     -12.954  -2.852   1.368  0.00  0.00    +0.000 A 
ENDBRANCH  10  11
ENDBRANCH   1  10
TORSDOF 2
ENDMDL
MODEL 5
REMARK VINA RESULT:    -5.242     30.139     31.731
REMARK INTER + INTRA:          -5.904
REMARK INTER:                  -5.754
REMARK INTRA:                  -0.151
REMARK UNBOUND:                -0.049
REMARK  Name = 1550473
REMARK  2 active torsions:
REMARK  status: ('A' for Active; 'I' for Inactive)
REMARK    1  A    between atoms: N_1  and  C_4
REMARK    2  A    between atoms: C_4  and  C_5
REMARK                            x       y       z     vdW  Elec       q    Type
REMARK                         _______ _______ _______ _____ _____    ______ ____
ROOT
ATOM      1  N   UNL     1       1.880   0.492 -18.500  0.00  0.00    -0.354 N 
ATOM      2  N   UNL     1       3.420   1.807 -19.625  0.00  0.00    -0.372 N 
ATOM      3  N   UNL     1       4.146  -0.103 -18.580  0.00  0.00    -0.372 N 
ATOM      4  C   UNL     1       3.140   0.722 -18.893  0.00  0.00    +0.166 C 
ATOM      5  H   UNL     1       1.169   1.171 -18.745  0.00  0.00    +0.163 HD
ATOM      6  H   UNL     1       4.361   2.004 -19.939  0.00  0.00    +0.159 HD
ATOM      7  H   UNL     1       2.699   2.460 -19.907  0.00  0.00    +0.159 HD
ATOM      8  H   UNL     1       4.002  -0.936 -18.025  0.00  0.00    +0.159 HD
ATOM      9  H   UNL     1       5.096   0.084 -18.875  0.00  0.00    +0.159 HD
ENDROOT
BRANCH   1  10
ATOM     10  C   UNL     1       1.461  -0.688 -17.746  0.00  0.00    +0.151 C 
BRANCH  10  11
ATOM     11  C   UNL     1       1.009  -0.261 -16.377  0.00  0.00    -0.028 A 
ATOM     12  C   UNL     1       1.433  -0.959 -15.237  0.00  0.00    +0.005 A 
ATOM     13  C   UNL     1       0.160   0.845 -16.212  0.00  0.00    +0.005 A 
ATOM     14  C   UNL     1       1.038  -0.544 -13.963  0.00  0.00    +0.000 A 
ATOM     15  C   UNL     1      -0.233   1.255 -14.939  0.00  0.00    +0.000 A 
ATOM     16  C   UNL     1       0.208   0.562 -13.814  0.00  0.00    +0.000 A 
ENDBRANCH  10  11
ENDBRANCH   1  10
TORSDOF 2
ENDMDL
MODEL 6
REMARK VINA RESULT:    -5.160     14.152     15.365
REMARK INTER + INTRA:          -5.812
REMARK INTER:                  -5.640
REMARK INTRA:                  -0.173
REMARK UNBOUND:                -0.049
REMARK  Name = 1550473
REMARK  2 active torsions:
REMARK  status: ('A' for Active; 'I' for Inactive)
REMARK    1  A    between atoms: N_1  and  C_4
REMARK    2  A    between atoms: C_4  and  C_5
REMARK                            x       y       z     vdW  Elec       q    Type
REMARK                         _______ _______ _______ _____ _____    ______ ____
ROOT
ATOM      1  N   UNL     1     -12.298  -1.449  -0.122  0.00  0.00    -0.354 N 
ATOM      2  N   UNL     1     -12.474  -3.734   0.215  0.00  0.00    -0.372 N 
ATOM      3  N   UNL     1     -11.260  -2.482   1.708  0.00  0.00    -0.372 N 
ATOM      4  C   UNL     1     -12.008  -2.540   0.600  0.00  0.00    +0.166 C 
ATOM      5  H   UNL     1     -12.844  -1.564  -0.968  0.00  0.00    +0.163 HD
ATOM      6  H   UNL     1     -12.274  -4.574   0.742  0.00  0.00    +0.159 HD
ATOM      7  H   UNL     1     -13.058  -3.839  -0.605  0.00  0.00    +0.159 HD
ATOM      8  H   UNL     1     -10.874  -1.612   2.048  0.00  0.00    +0.159 HD
ATOM      9  H   UNL     1     -11.040  -3.314   2.242  0.00  0.00    +0.159 HD
ENDROOT
BRANCH   1  10
ATOM     10  C   UNL     1     -11.884  -0.095   0.240  0.00  0.00    +0.151 C 
BRANCH  10  11
ATOM     11  C   UNL     1     -13.090   0.682   0.693  0.00  0.00    -0.028 A 
ATOM     12  C   UNL     1     -13.513   0.625   2.029  0.00  0.00    +0.005 A 
ATOM     13  C   UNL     1     -13.810   1.481  -0.208  0.00  0.00    +0.005 A 
ATOM     14  C   UNL     1     -14.615   1.370   2.456  0.00  0.00    +0.000 A 
ATOM     15  C   UNL     1     -14.910   2.223   0.222  0.00  0.00    +0.000 A 
ATOM     16  C   UNL     1     -15.310   2.169   1.555  0.00  0.00    +0.000 A 
ENDBRANCH  10  11
ENDBRANCH   1  10
TORSDOF 2
ENDMDL
MODEL 7
REMARK VINA RESULT:    -5.084     15.829     17.025
REMARK INTER + INTRA:          -5.727
REMARK INTER:                  -5.600
REMARK INTRA:                  -0.127
REMARK UNBOUND:                -0.049
REMARK  Name = 1550473
REMARK  2 active torsions:
REMARK  status: ('A' for Active; 'I' for Inactive)
REMARK    1  A    between atoms: N_1  and  C_4
REMARK    2  A    between atoms: C_4  and  C_5
REMARK                            x       y       z     vdW  Elec       q    Type
REMARK                         _______ _______ _______ _____ _____    ______ ____
ROOT
ATOM      1  N   UNL     1     -15.649  -1.015  -1.739  0.00  0.00    -0.354 N 
ATOM      2  N   UNL     1     -15.859   0.040  -3.790  0.00  0.00    -0.372 N 
ATOM      3  N   UNL     1     -16.385   1.205  -1.884  0.00  0.00    -0.372 N 
ATOM      4  C   UNL     1     -15.964   0.071  -2.456  0.00  0.00    +0.166 C 
ATOM      5  H   UNL     1     -15.365  -1.853  -2.234  0.00  0.00    +0.163 HD
ATOM      6  H   UNL     1     -16.086   0.845  -4.357  0.00  0.00    +0.159 HD
ATOM      7  H   UNL     1     -15.531  -0.784  -4.279  0.00  0.00    +0.159 HD
ATOM      8  H   UNL     1     -16.492   1.292  -0.883  0.00  0.00    +0.159 HD
ATOM      9  H   UNL     1     -16.629   2.018  -2.436  0.00  0.00    +0.159 HD
ENDROOT
BRANCH   1  10
ATOM     10  C   UNL     1     -15.677  -1.068  -0.278  0.00  0.00    +0.151 C 
BRANCH  10  11
ATOM     11  C   UNL     1     -14.266  -1.107   0.240  0.00  0.00    -0.028 A 
ATOM     12  C   UNL     1     -13.796  -2.225   0.943  0.00  0.00    +0.005 A 
ATOM     13  C   UNL     1     -13.391  -0.030   0.025  0.00  0.00    +0.005 A 
ATOM     14  C   UNL     1     -12.476  -2.274   1.398  0.00  0.00    +0.000 A 
ATOM     15  C   UNL     1     -12.075  -0.082   0.481  0.00  0.00    +0.000 A 
ATOM     16  C   UNL     1     -11.617  -1.206   1.166  0.00  0.00    +0.000 A 
ENDBRANCH  10  11
ENDBRANCH   1  10
TORSDOF 2
ENDMDL
MODEL 8
REMARK VINA RESULT:    -5.073     14.732     16.021
REMARK INTER + INTRA:          -5.715
REMARK INTER:                  -5.572
REMARK INTRA:                  -0.143
REMARK UNBOUND:                -0.049
REMARK  Name = 1550473
REMARK  2 active torsions:
REMARK  status: ('A' for Active; 'I' for Inactive)
REMARK    1  A    between atoms: N_1  and  C_4
REMARK    2  A    between atoms: C_4  and  C_5
REMARK                            x       y       z     vdW  Elec       q    Type
REMARK                         _______ _______ _______ _____ _____    ______ ____
ROOT
ATOM      1  N   UNL     1     -13.690  -2.367   0.748  0.00  0.00    -0.354 N 
ATOM      2  N   UNL     1     -12.387  -4.036  -0.191  0.00  0.00    -0.372 N 
ATOM      3  N   UNL     1     -11.442  -2.628   1.355  0.00  0.00    -0.372 N 
ATOM      4  C   UNL     1     -12.513  -2.998   0.645  0.00  0.00    +0.166 C 
ATOM      5  H   UNL     1     -14.455  -2.676   0.160  0.00  0.00    +0.163 HD
ATOM      6  H   UNL     1     -11.512  -4.534  -0.287  0.00  0.00    +0.159 HD
ATOM      7  H   UNL     1     -13.166  -4.372  -0.743  0.00  0.00    +0.159 HD
ATOM      8  H   UNL     1     -11.469  -1.849   2.000  0.00  0.00    +0.159 HD
ATOM      9  H   UNL     1     -10.554  -3.107   1.264  0.00  0.00    +0.159 HD
ENDROOT
BRANCH   1  10
ATOM     10  C   UNL     1     -13.947  -1.260   1.668  0.00  0.00    +0.151 C 
BRANCH  10  11
ATOM     11  C   UNL     1     -14.302  -0.033   0.874  0.00  0.00    -0.028 A 
ATOM     12  C   UNL     1     -14.448   1.208   1.509  0.00  0.00    +0.005 A 
ATOM     13  C   UNL     1     -14.490  -0.106  -0.515  0.00  0.00    +0.005 A 
ATOM     14  C   UNL     1     -14.749   2.354   0.768  0.00  0.00    +0.000 A 
ATOM     15  C   UNL     1     -14.791   1.040  -1.251  0.00  0.00    +0.000 A 
ATOM     16  C   UNL     1     -14.918   2.270  -0.610  0.00  0.00    +0.000 A 
ENDBRANCH  10  11
ENDBRANCH   1  10
TORSDOF 2
ENDMDL
MODEL 9
REMARK VINA RESULT:    -4.868     14.527     15.955
REMARK INTER + INTRA:          -5.487
REMARK INTER:                  -5.309
REMARK INTRA:                  -0.178
REMARK UNBOUND:                -0.049
REMARK  Name = 1550473
REMARK  2 active torsions:
REMARK  status: ('A' for Active; 'I' for Inactive)
REMARK    1  A    between atoms: N_1  and  C_4
REMARK    2  A    between atoms: C_4  and  C_5
REMARK                            x       y       z     vdW  Elec       q    Type
REMARK                         _______ _______ _______ _____ _____    ______ ____
ROOT
ATOM      1  N   UNL     1     -13.376  -1.491   1.677  0.00  0.00    -0.354 N 
ATOM      2  N   UNL     1     -11.305  -2.529   1.684  0.00  0.00    -0.372 N 
ATOM      3  N   UNL     1     -11.397  -0.239   1.577  0.00  0.00    -0.372 N 
ATOM      4  C   UNL     1     -12.039  -1.410   1.645  0.00  0.00    +0.166 C 
ATOM      5  H   UNL     1     -13.802  -2.410   1.699  0.00  0.00    +0.163 HD
ATOM      6  H   UNL     1     -10.295  -2.500   1.665  0.00  0.00    +0.159 HD
ATOM      7  H   UNL     1     -11.733  -3.445   1.752  0.00  0.00    +0.159 HD
ATOM      8  H   UNL     1     -11.893   0.642   1.539  0.00  0.00    +0.159 HD
ATOM      9  H   UNL     1     -10.387  -0.189   1.545  0.00  0.00    +0.159 HD
ENDROOT
BRANCH   1  10
ATOM     10  C   UNL     1     -14.265  -0.331   1.695  0.00  0.00    +0.151 C 
BRANCH  10  11
ATOM     11  C   UNL     1     -14.746  -0.060   0.296  0.00  0.00    -0.028 A 
ATOM     12  C   UNL     1     -15.618  -0.954  -0.342  0.00  0.00    +0.005 A 
ATOM     13  C   UNL     1     -14.339   1.092  -0.394  0.00  0.00    +0.005 A 
ATOM     14  C   UNL     1     -16.089  -0.688  -1.630  0.00  0.00    +0.000 A 
ATOM     15  C   UNL     1     -14.811   1.354  -1.680  0.00  0.00    +0.000 A 
ATOM     16  C   UNL     1     -15.688   0.465  -2.297  0.00  0.00    +0.000 A 
ENDBRANCH  10  11
ENDBRANCH   1  10
TORSDOF 2
ENDMDL
