MODEL 1
REMARK VINA RESULT:    -5.115      0.000      0.000
REMARK INTER + INTRA:          -5.838
REMARK INTER:                  -5.713
REMARK INTRA:                  -0.125
REMARK UNBOUND:                -0.125
REMARK  Name = 1550473
REMARK  2 active torsions:
REMARK  status: ('A' for Active; 'I' for Inactive)
REMARK    1  A    between atoms: N_1  and  C_4
REMARK    2  A    between atoms: C_4  and  C_5
REMARK                            x       y       z     vdW  Elec       q    Type
REMARK                         _______ _______ _______ _____ _____    ______ ____
ROOT
ATOM      1  N   UNL     1      -5.434 -10.603  -3.394  0.00  0.00    -0.354 N 
ATOM      2  N   UNL     1      -4.437 -11.547  -1.529  0.00  0.00    -0.372 N 
ATOM      3  N   UNL     1      -5.005 -12.905  -3.289  0.00  0.00    -0.372 N 
ATOM      4  C   UNL     1      -4.966 -11.681  -2.751  0.00  0.00    +0.166 C 
ATOM      5  H   UNL     1      -5.403  -9.708  -2.919  0.00  0.00    +0.163 HD
ATOM      6  H   UNL     1      -4.072 -12.341  -1.021  0.00  0.00    +0.159 HD
ATOM      7  H   UNL     1      -4.364 -10.644  -1.075  0.00  0.00    +0.159 HD
ATOM      8  H   UNL     1      -5.398 -13.074  -4.205  0.00  0.00    +0.159 HD
ATOM      9  H   UNL     1      -4.656 -13.714  -2.791  0.00  0.00    +0.159 HD
ENDROOT
BRANCH   1  10
ATOM     10  C   UNL     1      -5.981 -10.633  -4.749  0.00  0.00    +0.151 C 
BRANCH  10  11
ATOM     11  C   UNL     1      -6.030  -9.231  -5.290  0.00  0.00    -0.028 A 
ATOM     12  C   UNL     1      -5.318  -8.199  -4.660  0.00  0.00    +0.005 A 
ATOM     13  C   UNL     1      -6.780  -8.928  -6.436  0.00  0.00    +0.005 A 
ATOM     14  C   UNL     1      -5.338  -6.903  -5.179  0.00  0.00    +0.000 A 
ATOM     15  C   UNL     1      -6.799  -7.632  -6.951  0.00  0.00    +0.000 A 
ATOM     16  C   UNL     1      -6.076  -6.620  -6.324  0.00  0.00    +0.000 A 
ENDBRANCH  10  11
ENDBRANCH   1  10
TORSDOF 2
ENDMDL
MODEL 2
REMARK VINA RESULT:    -4.962     10.212     11.897
REMARK INTER + INTRA:          -5.667
REMARK INTER:                  -5.492
REMARK INTRA:                  -0.175
REMARK UNBOUND:                -0.125
REMARK  Name = 1550473
REMARK  2 active torsions:
REMARK  status: ('A' for Active; 'I' for Inactive)
REMARK    1  A    between atoms: N_1  and  C_4
REMARK    2  A    between atoms: C_4  and  C_5
REMARK                            x       y       z     vdW  Elec       q    Type
REMARK                         _______ _______ _______ _____ _____    ______ ____
ROOT
ATOM      1  N   UNL     1     -12.526  -1.757  -9.816  0.00  0.00    -0.354 N 
ATOM      2  N   UNL     1     -12.270   0.522  -9.496  0.00  0.00    -0.372 N 
ATOM      3  N   UNL     1     -12.908  -0.243 -11.563  0.00  0.00    -0.372 N 
ATOM      4  C   UNL     1     -12.570  -0.508 -10.297  0.00  0.00    +0.166 C 
ATOM      5  H   UNL     1     -12.233  -1.893  -8.856  0.00  0.00    +0.163 HD
ATOM      6  H   UNL     1     -12.299   1.477  -9.830  0.00  0.00    +0.159 HD
ATOM      7  H   UNL     1     -12.023   0.387  -8.524  0.00  0.00    +0.159 HD
ATOM      8  H   UNL     1     -13.140  -0.976 -12.220  0.00  0.00    +0.159 HD
ATOM      9  H   UNL     1     -12.931   0.705 -11.919  0.00  0.00    +0.159 HD
ENDROOT
BRANCH   1  10
ATOM     10  C   UNL     1     -12.886  -2.944 -10.590  0.00  0.00    +0.151 C 
BRANCH  10  11
ATOM     11  C   UNL     1     -11.634  -3.567 -11.144  0.00  0.00    -0.028 A 
ATOM     12  C   UNL     1     -11.504  -3.800 -12.521  0.00  0.00    +0.005 A 
ATOM     13  C   UNL     1     -10.572  -3.923 -10.298  0.00  0.00    +0.005 A 
ATOM     14  C   UNL     1     -10.330  -4.351 -13.040  0.00  0.00    +0.000 A 
ATOM     15  C   UNL     1      -9.402  -4.474 -10.820  0.00  0.00    +0.000 A 
ATOM     16  C   UNL     1      -9.280  -4.685 -12.191  0.00  0.00    +0.000 A 
ENDBRANCH  10  11
ENDBRANCH   1  10
TORSDOF 2
ENDMDL
MODEL 3
REMARK VINA RESULT:    -4.796      3.475      5.920
REMARK INTER + INTRA:          -5.482
REMARK INTER:                  -5.326
REMARK INTRA:                  -0.155
REMARK UNBOUND:                -0.125
REMARK  Name = 1550473
REMARK  2 active torsions:
REMARK  status: ('A' for Active; 'I' for Inactive)
REMARK    1  A    between atoms: N_1  and  C_4
REMARK    2  A    between atoms: C_4  and  C_5
REMARK                            x       y       z     vdW  Elec       q    Type
REMARK                         _______ _______ _______ _____ _____    ______ ____
ROOT
ATOM      1  N   UNL     1      -4.017  -9.629  -2.359  0.00  0.00    -0.354 N 
ATOM      2  N   UNL     1      -4.842  -8.395  -4.137  0.00  0.00    -0.372 N 
ATOM      3  N   UNL     1      -5.664 -10.506  -3.777  0.00  0.00    -0.372 N 
ATOM      4  C   UNL     1      -4.837  -9.521  -3.413  0.00  0.00    +0.166 C 
ATOM      5  H   UNL     1      -3.393  -8.858  -2.153  0.00  0.00    +0.163 HD
ATOM      6  H   UNL     1      -5.451  -8.282  -4.935  0.00  0.00    +0.159 HD
ATOM      7  H   UNL     1      -4.249  -7.607  -3.901  0.00  0.00    +0.159 HD
ATOM      8  H   UNL     1      -5.704 -11.384  -3.276  0.00  0.00    +0.159 HD
ATOM      9  H   UNL     1      -6.273 -10.418  -4.580  0.00  0.00    +0.159 HD
ENDROOT
BRANCH   1  10
ATOM     10  C   UNL     1      -3.973 -10.792  -1.473  0.00  0.00    +0.151 C 
BRANCH  10  11
ATOM     11  C   UNL     1      -4.579 -10.422  -0.147  0.00  0.00    -0.028 A 
ATOM     12  C   UNL     1      -4.565  -9.091   0.296  0.00  0.00    +0.005 A 
ATOM     13  C   UNL     1      -5.173 -11.397   0.668  0.00  0.00    +0.005 A 
ATOM     14  C   UNL     1      -5.154  -8.743   1.514  0.00  0.00    +0.000 A 
ATOM     15  C   UNL     1      -5.759 -11.046   1.884  0.00  0.00    +0.000 A 
ATOM     16  C   UNL     1      -5.752  -9.718   2.305  0.00  0.00    +0.000 A 
ENDBRANCH  10  11
ENDBRANCH   1  10
TORSDOF 2
ENDMDL
MODEL 4
REMARK VINA RESULT:    -4.782     14.668     15.837
REMARK INTER + INTRA:          -5.466
REMARK INTER:                  -5.344
REMARK INTRA:                  -0.122
REMARK UNBOUND:                -0.125
REMARK  Name = 1550473
REMARK  2 active torsions:
REMARK  status: ('A' for Active; 'I' for Inactive)
REMARK    1  A    between atoms: N_1  and  C_4
REMARK    2  A    between atoms: C_4  and  C_5
REMARK                            x       y       z     vdW  Elec       q    Type
REMARK                         _______ _______ _______ _____ _____    ______ ____
ROOT
ATOM      1  N   UNL     1      -3.619   1.250   7.873  0.00  0.00    -0.354 N 
ATOM      2  N   UNL     1      -1.974   2.692   8.635  0.00  0.00    -0.372 N 
ATOM      3  N   UNL     1      -4.073   3.523   8.223  0.00  0.00    -0.372 N 
ATOM      4  C   UNL     1      -3.235   2.481   8.238  0.00  0.00    +0.166 C 
ATOM      5  H   UNL     1      -2.927   0.509   7.877  0.00  0.00    +0.163 HD
ATOM      6  H   UNL     1      -1.656   3.609   8.920  0.00  0.00    +0.159 HD
ATOM      7  H   UNL     1      -1.297   1.940   8.683  0.00  0.00    +0.159 HD
ATOM      8  H   UNL     1      -5.036   3.431   7.928  0.00  0.00    +0.159 HD
ATOM      9  H   UNL     1      -3.770   4.450   8.493  0.00  0.00    +0.159 HD
ENDROOT
BRANCH   1  10
ATOM     10  C   UNL     1      -4.982   0.903   7.476  0.00  0.00    +0.151 C 
BRANCH  10  11
ATOM     11  C   UNL     1      -5.001  -0.512   6.969  0.00  0.00    -0.028 A 
ATOM     12  C   UNL     1      -3.822  -1.122   6.516  0.00  0.00    +0.005 A 
ATOM     13  C   UNL     1      -6.194  -1.251   6.943  0.00  0.00    +0.005 A 
ATOM     14  C   UNL     1      -3.833  -2.447   6.073  0.00  0.00    +0.000 A 
ATOM     15  C   UNL     1      -6.201  -2.573   6.499  0.00  0.00    +0.000 A 
ATOM     16  C   UNL     1      -5.020  -3.171   6.067  0.00  0.00    +0.000 A 
ENDBRANCH  10  11
ENDBRANCH   1  10
TORSDOF 2
ENDMDL
MODEL 5
REMARK VINA RESULT:    -4.770     30.946     32.214
REMARK INTER + INTRA:          -5.453
REMARK INTER:                  -5.327
REMARK INTRA:                  -0.126
REMARK UNBOUND:                -0.125
REMARK  Name = 1550473
REMARK  2 active torsions:
REMARK  status: ('A' for Active; 'I' for Inactive)
REMARK    1  A    between atoms: N_1  and  C_4
REMARK    2  A    between atoms: C_4  and  C_5
REMARK                            x       y       z     vdW  Elec       q    Type
REMARK                         _______ _______ _______ _____ _____    ______ ____
ROOT
ATOM      1  N   UNL     1       4.850  14.810  14.165  0.00  0.00    -0.354 N 
ATOM      2  N   UNL     1       6.987  15.683  14.354  0.00  0.00    -0.372 N 
ATOM      3  N   UNL     1       6.718  13.597  13.435  0.00  0.00    -0.372 N 
ATOM      4  C   UNL     1       6.171  14.688  13.983  0.00  0.00    +0.166 C 
ATOM      5  H   UNL     1       4.501  15.650  14.613  0.00  0.00    +0.163 HD
ATOM      6  H   UNL     1       7.988  15.621  14.225  0.00  0.00    +0.159 HD
ATOM      7  H   UNL     1       6.632  16.540  14.759  0.00  0.00    +0.159 HD
ATOM      8  H   UNL     1       6.157  12.809  13.139  0.00  0.00    +0.159 HD
ATOM      9  H   UNL     1       7.718  13.512  13.309  0.00  0.00    +0.159 HD
ENDROOT
BRANCH   1  10
ATOM     10  C   UNL     1       3.871  13.808  13.747  0.00  0.00    +0.151 C 
BRANCH  10  11
ATOM     11  C   UNL     1       2.662  13.902  14.636  0.00  0.00    -0.028 A 
ATOM     12  C   UNL     1       1.709  12.872  14.653  0.00  0.00    +0.005 A 
ATOM     13  C   UNL     1       2.465  15.015  15.468  0.00  0.00    +0.005 A 
ATOM     14  C   UNL     1       0.602  12.945  15.501  0.00  0.00    +0.000 A 
ATOM     15  C   UNL     1       1.357  15.084  16.312  0.00  0.00    +0.000 A 
ATOM     16  C   UNL     1       0.427  14.048  16.330  0.00  0.00    +0.000 A 
ENDBRANCH  10  11
ENDBRANCH   1  10
TORSDOF 2
ENDMDL
MODEL 6
REMARK VINA RESULT:    -4.544     14.517     15.673
REMARK INTER + INTRA:          -5.201
REMARK INTER:                  -5.215
REMARK INTRA:                   0.014
REMARK UNBOUND:                -0.125
REMARK  Name = 1550473
REMARK  2 active torsions:
REMARK  status: ('A' for Active; 'I' for Inactive)
REMARK    1  A    between atoms: N_1  and  C_4
REMARK    2  A    between atoms: C_4  and  C_5
REMARK                            x       y       z     vdW  Elec       q    Type
REMARK                         _______ _______ _______ _____ _____    ______ ____
ROOT
ATOM      1  N   UNL     1      -5.071  -1.610   6.639  0.00  0.00    -0.354 N 
ATOM      2  N   UNL     1      -3.984  -3.593   6.136  0.00  0.00    -0.372 N 
ATOM      3  N   UNL     1      -3.475  -1.711   4.926  0.00  0.00    -0.372 N 
ATOM      4  C   UNL     1      -4.183  -2.290   5.901  0.00  0.00    +0.166 C 
ATOM      5  H   UNL     1      -5.598  -2.114   7.343  0.00  0.00    +0.163 HD
ATOM      6  H   UNL     1      -3.318  -4.131   5.598  0.00  0.00    +0.159 HD
ATOM      7  H   UNL     1      -4.479  -4.083   6.871  0.00  0.00    +0.159 HD
ATOM      8  H   UNL     1      -3.582  -0.733   4.695  0.00  0.00    +0.159 HD
ATOM      9  H   UNL     1      -2.812  -2.236   4.369  0.00  0.00    +0.159 HD
ENDROOT
BRANCH   1  10
ATOM     10  C   UNL     1      -5.323  -0.177   6.500  0.00  0.00    +0.151 C 
BRANCH  10  11
ATOM     11  C   UNL     1      -4.585   0.559   7.584  0.00  0.00    -0.028 A 
ATOM     12  C   UNL     1      -4.979   1.850   7.963  0.00  0.00    +0.005 A 
ATOM     13  C   UNL     1      -3.494  -0.033   8.241  0.00  0.00    +0.005 A 
ATOM     14  C   UNL     1      -4.313   2.522   8.991  0.00  0.00    +0.000 A 
ATOM     15  C   UNL     1      -2.832   0.642   9.266  0.00  0.00    +0.000 A 
ATOM     16  C   UNL     1      -3.242   1.918   9.642  0.00  0.00    +0.000 A 
ENDBRANCH  10  11
ENDBRANCH   1  10
TORSDOF 2
ENDMDL
MODEL 7
REMARK VINA RESULT:    -4.526     11.455     12.829
REMARK INTER + INTRA:          -5.180
REMARK INTER:                  -5.060
REMARK INTRA:                  -0.120
REMARK UNBOUND:                -0.125
REMARK  Name = 1550473
REMARK  2 active torsions:
REMARK  status: ('A' for Active; 'I' for Inactive)
REMARK    1  A    between atoms: N_1  and  C_4
REMARK    2  A    between atoms: C_4  and  C_5
REMARK                            x       y       z     vdW  Elec       q    Type
REMARK                         _______ _______ _______ _____ _____    ______ ____
ROOT
ATOM      1  N   UNL     1      -3.862  -2.704   6.073  0.00  0.00    -0.354 N 
ATOM      2  N   UNL     1      -2.627  -0.860   6.736  0.00  0.00    -0.372 N 
ATOM      3  N   UNL     1      -2.805  -1.329   4.497  0.00  0.00    -0.372 N 
ATOM      4  C   UNL     1      -3.106  -1.643   5.761  0.00  0.00    +0.166 C 
ATOM      5  H   UNL     1      -4.029  -2.906   7.052  0.00  0.00    +0.163 HD
ATOM      6  H   UNL     1      -2.057  -0.051   6.531  0.00  0.00    +0.159 HD
ATOM      7  H   UNL     1      -2.834  -1.038   7.711  0.00  0.00    +0.159 HD
ATOM      8  H   UNL     1      -3.131  -1.883   3.716  0.00  0.00    +0.159 HD
ATOM      9  H   UNL     1      -2.226  -0.530   4.272  0.00  0.00    +0.159 HD
ENDROOT
BRANCH   1  10
ATOM     10  C   UNL     1      -4.476  -3.589   5.085  0.00  0.00    +0.151 C 
BRANCH  10  11
ATOM     11  C   UNL     1      -4.935  -4.847   5.770  0.00  0.00    -0.028 A 
ATOM     12  C   UNL     1      -5.193  -4.853   7.148  0.00  0.00    +0.005 A 
ATOM     13  C   UNL     1      -5.119  -6.034   5.044  0.00  0.00    +0.005 A 
ATOM     14  C   UNL     1      -5.649  -6.013   7.779  0.00  0.00    +0.000 A 
ATOM     15  C   UNL     1      -5.573  -7.191   5.679  0.00  0.00    +0.000 A 
ATOM     16  C   UNL     1      -5.840  -7.179   7.045  0.00  0.00    +0.000 A 
ENDBRANCH  10  11
ENDBRANCH   1  10
TORSDOF 2
ENDMDL
MODEL 8
REMARK VINA RESULT:    -4.430      9.908     11.054
REMARK INTER + INTRA:          -5.073
REMARK INTER:                  -4.921
REMARK INTRA:                  -0.152
REMARK UNBOUND:                -0.125
REMARK  Name = 1550473
REMARK  2 active torsions:
REMARK  status: ('A' for Active; 'I' for Inactive)
REMARK    1  A    between atoms: N_1  and  C_4
REMARK    2  A    between atoms: C_4  and  C_5
REMARK                            x       y       z     vdW  Elec       q    Type
REMARK                         _______ _______ _______ _____ _____    ______ ____
ROOT
ATOM      1  N   UNL     1      -8.033  -1.056 -11.114  0.00  0.00    -0.354 N 
ATOM      2  N   UNL     1      -6.028  -1.938 -11.864  0.00  0.00    -0.372 N 
ATOM      3  N   UNL     1      -6.281  -1.505  -9.625  0.00  0.00    -0.372 N 
ATOM      4  C   UNL     1      -6.793  -1.493 -10.860  0.00  0.00    +0.166 C 
ATOM      5  H   UNL     1      -8.352  -1.044 -12.076  0.00  0.00    +0.163 HD
ATOM      6  H   UNL     1      -5.089  -2.277 -11.703  0.00  0.00    +0.159 HD
ATOM      7  H   UNL     1      -6.365  -1.968 -12.818  0.00  0.00    +0.159 HD
ATOM      8  H   UNL     1      -6.805  -1.178  -8.825  0.00  0.00    +0.159 HD
ATOM      9  H   UNL     1      -5.339  -1.830  -9.445  0.00  0.00    +0.159 HD
ENDROOT
BRANCH   1  10
ATOM     10  C   UNL     1      -8.967  -0.602 -10.085  0.00  0.00    +0.151 C 
BRANCH  10  11
ATOM     11  C   UNL     1     -10.188  -1.479 -10.108  0.00  0.00    -0.028 A 
ATOM     12  C   UNL     1     -11.442  -0.945 -10.440  0.00  0.00    +0.005 A 
ATOM     13  C   UNL     1     -10.098  -2.846  -9.804  0.00  0.00    +0.005 A 
ATOM     14  C   UNL     1     -12.572  -1.765 -10.491  0.00  0.00    +0.000 A 
ATOM     15  C   UNL     1     -11.228  -3.661  -9.855  0.00  0.00    +0.000 A 
ATOM     16  C   UNL     1     -12.464  -3.121 -10.201  0.00  0.00    +0.000 A 
ENDBRANCH  10  11
ENDBRANCH   1  10
TORSDOF 2
ENDMDL
MODEL 9
REMARK VINA RESULT:    -4.374     17.844     19.009
REMARK INTER + INTRA:          -5.011
REMARK INTER:                  -4.830
REMARK INTRA:                  -0.180
REMARK UNBOUND:                -0.125
REMARK  Name = 1550473
REMARK  2 active torsions:
REMARK  status: ('A' for Active; 'I' for Inactive)
REMARK    1  A    between atoms: N_1  and  C_4
REMARK    2  A    between atoms: C_4  and  C_5
REMARK                            x       y       z     vdW  Elec       q    Type
REMARK                         _______ _______ _______ _____ _____    ______ ____
ROOT
ATOM      1  N   UNL     1      -4.253   1.832   9.273  0.00  0.00    -0.354 N 
ATOM      2  N   UNL     1      -2.829   0.567   7.955  0.00  0.00    -0.372 N 
ATOM      3  N   UNL     1      -1.983   2.380   9.080  0.00  0.00    -0.372 N 
ATOM      4  C   UNL     1      -3.029   1.603   8.779  0.00  0.00    +0.166 C 
ATOM      5  H   UNL     1      -5.011   1.225   8.982  0.00  0.00    +0.163 HD
ATOM      6  H   UNL     1      -1.916   0.368   7.570  0.00  0.00    +0.159 HD
ATOM      7  H   UNL     1      -3.578  -0.065   7.703  0.00  0.00    +0.159 HD
ATOM      8  H   UNL     1      -2.069   3.181   9.690  0.00  0.00    +0.159 HD
ATOM      9  H   UNL     1      -1.063   2.203   8.694  0.00  0.00    +0.159 HD
ENDROOT
BRANCH   1  10
ATOM     10  C   UNL     1      -4.566   2.901  10.220  0.00  0.00    +0.151 C 
BRANCH  10  11
ATOM     11  C   UNL     1      -5.147   4.067   9.469  0.00  0.00    -0.028 A 
ATOM     12  C   UNL     1      -4.440   5.274   9.370  0.00  0.00    +0.005 A 
ATOM     13  C   UNL     1      -6.403   3.970   8.849  0.00  0.00    +0.005 A 
ATOM     14  C   UNL     1      -4.966   6.348   8.647  0.00  0.00    +0.000 A 
ATOM     15  C   UNL     1      -6.925   5.044   8.129  0.00  0.00    +0.000 A 
ATOM     16  C   UNL     1      -6.205   6.232   8.026  0.00  0.00    +0.000 A 
ENDBRANCH  10  11
ENDBRANCH   1  10
TORSDOF 2
ENDMDL
