MODEL 1
REMARK VINA RESULT:    -4.918      0.000      0.000
REMARK INTER + INTRA:          -5.633
REMARK INTER:                  -5.493
REMARK INTRA:                  -0.140
REMARK UNBOUND:                -0.140
REMARK  Name = 1550473
REMARK  2 active torsions:
REMARK  status: ('A' for Active; 'I' for Inactive)
REMARK    1  A    between atoms: N_1  and  C_4
REMARK    2  A    between atoms: C_4  and  C_5
REMARK                            x       y       z     vdW  Elec       q    Type
REMARK                         _______ _______ _______ _____ _____    ______ ____
ROOT
ATOM      1  N   UNL     1      -9.676  13.084  19.350  0.00  0.00    -0.354 N 
ATOM      2  N   UNL     1     -11.165  11.850  20.623  0.00  0.00    -0.372 N 
ATOM      3  N   UNL     1      -9.794  13.359  21.674  0.00  0.00    -0.372 N 
ATOM      4  C   UNL     1     -10.200  12.774  20.543  0.00  0.00    +0.166 C 
ATOM      5  H   UNL     1     -10.006  12.583  18.533  0.00  0.00    +0.163 HD
ATOM      6  H   UNL     1     -11.583  11.597  21.509  0.00  0.00    +0.159 HD
ATOM      7  H   UNL     1     -11.526  11.383  19.800  0.00  0.00    +0.159 HD
ATOM      8  H   UNL     1      -9.065  14.061  21.682  0.00  0.00    +0.159 HD
ATOM      9  H   UNL     1     -10.191  13.112  22.572  0.00  0.00    +0.159 HD
ENDROOT
BRANCH   1  10
ATOM     10  C   UNL     1      -8.659  14.114  19.147  0.00  0.00    +0.151 C 
BRANCH  10  11
ATOM     11  C   UNL     1      -7.503  13.521  18.390  0.00  0.00    -0.028 A 
ATOM     12  C   UNL     1      -6.497  14.346  17.865  0.00  0.00    +0.005 A 
ATOM     13  C   UNL     1      -7.404  12.134  18.199  0.00  0.00    +0.005 A 
ATOM     14  C   UNL     1      -5.407  13.793  17.188  0.00  0.00    +0.000 A 
ATOM     15  C   UNL     1      -6.316  11.586  17.521  0.00  0.00    +0.000 A 
ATOM     16  C   UNL     1      -5.316  12.415  17.018  0.00  0.00    +0.000 A 
ENDBRANCH  10  11
ENDBRANCH   1  10
TORSDOF 2
ENDMDL
MODEL 2
REMARK VINA RESULT:    -4.709      1.905      2.812
REMARK INTER + INTRA:          -5.400
REMARK INTER:                  -5.265
REMARK INTRA:                  -0.136
REMARK UNBOUND:                -0.140
REMARK  Name = 1550473
REMARK  2 active torsions:
REMARK  status: ('A' for Active; 'I' for Inactive)
REMARK    1  A    between atoms: N_1  and  C_4
REMARK    2  A    between atoms: C_4  and  C_5
REMARK                            x       y       z     vdW  Elec       q    Type
REMARK                         _______ _______ _______ _____ _____    ______ ____
ROOT
ATOM      1  N   UNL     1      -9.463  15.146  17.596  0.00  0.00    -0.354 N 
ATOM      2  N   UNL     1      -9.634  17.039  18.919  0.00  0.00    -0.372 N 
ATOM      3  N   UNL     1      -9.874  14.977  19.897  0.00  0.00    -0.372 N 
ATOM      4  C   UNL     1      -9.657  15.706  18.797  0.00  0.00    +0.166 C 
ATOM      5  H   UNL     1      -9.333  15.755  16.796  0.00  0.00    +0.163 HD
ATOM      6  H   UNL     1      -9.774  17.490  19.813  0.00  0.00    +0.159 HD
ATOM      7  H   UNL     1      -9.459  17.644  18.126  0.00  0.00    +0.159 HD
ATOM      8  H   UNL     1      -9.909  13.967  19.871  0.00  0.00    +0.159 HD
ATOM      9  H   UNL     1     -10.028  15.411  20.798  0.00  0.00    +0.159 HD
ENDROOT
BRANCH   1  10
ATOM     10  C   UNL     1      -9.414  13.703  17.365  0.00  0.00    +0.151 C 
BRANCH  10  11
ATOM     11  C   UNL     1      -7.978  13.256  17.347  0.00  0.00    -0.028 A 
ATOM     12  C   UNL     1      -7.636  11.945  17.709  0.00  0.00    +0.005 A 
ATOM     13  C   UNL     1      -6.956  14.138  16.964  0.00  0.00    +0.005 A 
ATOM     14  C   UNL     1      -6.306  11.521  17.665  0.00  0.00    +0.000 A 
ATOM     15  C   UNL     1      -5.629  13.711  16.922  0.00  0.00    +0.000 A 
ATOM     16  C   UNL     1      -5.305  12.402  17.269  0.00  0.00    +0.000 A 
ENDBRANCH  10  11
ENDBRANCH   1  10
TORSDOF 2
ENDMDL
MODEL 3
REMARK VINA RESULT:    -4.681      1.404      2.058
REMARK INTER + INTRA:          -5.368
REMARK INTER:                  -5.239
REMARK INTRA:                  -0.129
REMARK UNBOUND:                -0.140
REMARK  Name = 1550473
REMARK  2 active torsions:
REMARK  status: ('A' for Active; 'I' for Inactive)
REMARK    1  A    between atoms: N_1  and  C_4
REMARK    2  A    between atoms: C_4  and  C_5
REMARK                            x       y       z     vdW  Elec       q    Type
REMARK                         _______ _______ _______ _____ _____    ______ ____
ROOT
ATOM      1  N   UNL     1      -9.048  13.580  19.225  0.00  0.00    -0.354 N 
ATOM      2  N   UNL     1      -9.738  13.483  21.434  0.00  0.00    -0.372 N 
ATOM      3  N   UNL     1     -10.201  11.714  20.048  0.00  0.00    -0.372 N 
ATOM      4  C   UNL     1      -9.659  12.924  20.220  0.00  0.00    +0.166 C 
ATOM      5  H   UNL     1      -8.684  14.507  19.412  0.00  0.00    +0.163 HD
ATOM      6  H   UNL     1     -10.190  13.010  22.205  0.00  0.00    +0.159 HD
ATOM      7  H   UNL     1      -9.333  14.390  21.630  0.00  0.00    +0.159 HD
ATOM      8  H   UNL     1     -10.181  11.240  19.155  0.00  0.00    +0.159 HD
ATOM      9  H   UNL     1     -10.668  11.229  20.805  0.00  0.00    +0.159 HD
ENDROOT
BRANCH   1  10
ATOM     10  C   UNL     1      -8.861  13.037  17.881  0.00  0.00    +0.151 C 
BRANCH  10  11
ATOM     11  C   UNL     1      -7.610  13.621  17.285  0.00  0.00    -0.028 A 
ATOM     12  C   UNL     1      -7.462  13.718  15.894  0.00  0.00    +0.005 A 
ATOM     13  C   UNL     1      -6.570  14.083  18.107  0.00  0.00    +0.005 A 
ATOM     14  C   UNL     1      -6.313  14.288  15.340  0.00  0.00    +0.000 A 
ATOM     15  C   UNL     1      -5.424  14.650  17.550  0.00  0.00    +0.000 A 
ATOM     16  C   UNL     1      -5.297  14.755  16.167  0.00  0.00    +0.000 A 
ENDBRANCH  10  11
ENDBRANCH   1  10
TORSDOF 2
ENDMDL
MODEL 4
REMARK VINA RESULT:    -4.443     24.006     25.336
REMARK INTER + INTRA:          -5.103
REMARK INTER:                  -4.939
REMARK INTRA:                  -0.164
REMARK UNBOUND:                -0.140
REMARK  Name = 1550473
REMARK  2 active torsions:
REMARK  status: ('A' for Active; 'I' for Inactive)
REMARK    1  A    between atoms: N_1  and  C_4
REMARK    2  A    between atoms: C_4  and  C_5
REMARK                            x       y       z     vdW  Elec       q    Type
REMARK                         _______ _______ _______ _____ _____    ______ ____
ROOT
ATOM      1  N   UNL     1       3.466  -9.691  11.913  0.00  0.00    -0.354 N 
ATOM      2  N   UNL     1       5.461  -8.570  12.265  0.00  0.00    -0.372 N 
ATOM      3  N   UNL     1       4.098  -8.998  14.061  0.00  0.00    -0.372 N 
ATOM      4  C   UNL     1       4.328  -9.093  12.747  0.00  0.00    +0.166 C 
ATOM      5  H   UNL     1       3.683  -9.704  10.923  0.00  0.00    +0.163 HD
ATOM      6  H   UNL     1       6.132  -8.115  12.870  0.00  0.00    +0.159 HD
ATOM      7  H   UNL     1       5.698  -8.624  11.282  0.00  0.00    +0.159 HD
ATOM      8  H   UNL     1       3.259  -9.368  14.486  0.00  0.00    +0.159 HD
ATOM      9  H   UNL     1       4.753  -8.537  14.681  0.00  0.00    +0.159 HD
ENDROOT
BRANCH   1  10
ATOM     10  C   UNL     1       2.229 -10.341  12.344  0.00  0.00    +0.151 C 
BRANCH  10  11
ATOM     11  C   UNL     1       1.065  -9.448  12.015  0.00  0.00    -0.028 A 
ATOM     12  C   UNL     1      -0.052  -9.392  12.861  0.00  0.00    +0.005 A 
ATOM     13  C   UNL     1       1.075  -8.650  10.860  0.00  0.00    +0.005 A 
ATOM     14  C   UNL     1      -1.121  -8.540  12.571  0.00  0.00    +0.000 A 
ATOM     15  C   UNL     1       0.005  -7.801  10.574  0.00  0.00    +0.000 A 
ATOM     16  C   UNL     1      -1.091  -7.745  11.431  0.00  0.00    +0.000 A 
ENDBRANCH  10  11
ENDBRANCH   1  10
TORSDOF 2
ENDMDL
MODEL 5
REMARK VINA RESULT:    -4.429     20.997     22.070
REMARK INTER + INTRA:          -5.088
REMARK INTER:                  -4.939
REMARK INTRA:                  -0.149
REMARK UNBOUND:                -0.140
REMARK  Name = 1550473
REMARK  2 active torsions:
REMARK  status: ('A' for Active; 'I' for Inactive)
REMARK    1  A    between atoms: N_1  and  C_4
REMARK    2  A    between atoms: C_4  and  C_5
REMARK                            x       y       z     vdW  Elec       q    Type
REMARK                         _______ _______ _______ _____ _____    ______ ____
ROOT
ATOM      1  N   UNL     1       4.964  -2.524  28.147  0.00  0.00    -0.354 N 
ATOM      2  N   UNL     1       4.824  -1.783  30.337  0.00  0.00    -0.372 N 
ATOM      3  N   UNL     1       3.963  -0.469  28.664  0.00  0.00    -0.372 N 
ATOM      4  C   UNL     1       4.583  -1.594  29.034  0.00  0.00    +0.166 C 
ATOM      5  H   UNL     1       5.457  -3.341  28.488  0.00  0.00    +0.163 HD
ATOM      6  H   UNL     1       4.545  -1.101  31.029  0.00  0.00    +0.159 HD
ATOM      7  H   UNL     1       5.276  -2.621  30.679  0.00  0.00    +0.159 HD
ATOM      8  H   UNL     1       3.757  -0.264  27.695  0.00  0.00    +0.159 HD
ATOM      9  H   UNL     1       3.686   0.231  29.341  0.00  0.00    +0.159 HD
ENDROOT
BRANCH   1  10
ATOM     10  C   UNL     1       4.702  -2.440  26.711  0.00  0.00    +0.151 C 
BRANCH  10  11
ATOM     11  C   UNL     1       3.865  -3.618  26.295  0.00  0.00    -0.028 A 
ATOM     12  C   UNL     1       4.472  -4.808  25.868  0.00  0.00    +0.005 A 
ATOM     13  C   UNL     1       2.463  -3.553  26.332  0.00  0.00    +0.005 A 
ATOM     14  C   UNL     1       3.695  -5.912  25.510  0.00  0.00    +0.000 A 
ATOM     15  C   UNL     1       1.691  -4.658  25.973  0.00  0.00    +0.000 A 
ATOM     16  C   UNL     1       2.308  -5.838  25.565  0.00  0.00    +0.000 A 
ENDBRANCH  10  11
ENDBRANCH   1  10
TORSDOF 2
ENDMDL
MODEL 6
REMARK VINA RESULT:    -4.411      3.043      4.984
REMARK INTER + INTRA:          -5.067
REMARK INTER:                  -4.938
REMARK INTRA:                  -0.129
REMARK UNBOUND:                -0.140
REMARK  Name = 1550473
REMARK  2 active torsions:
REMARK  status: ('A' for Active; 'I' for Inactive)
REMARK    1  A    between atoms: N_1  and  C_4
REMARK    2  A    between atoms: C_4  and  C_5
REMARK                            x       y       z     vdW  Elec       q    Type
REMARK                         _______ _______ _______ _____ _____    ______ ____
ROOT
ATOM      1  N   UNL     1      -7.779  14.185  16.463  0.00  0.00    -0.354 N 
ATOM      2  N   UNL     1      -7.566  13.732  14.202  0.00  0.00    -0.372 N 
ATOM      3  N   UNL     1      -5.673  13.838  15.494  0.00  0.00    -0.372 N 
ATOM      4  C   UNL     1      -7.005  13.921  15.402  0.00  0.00    +0.166 C 
ATOM      5  H   UNL     1      -8.779  14.264  16.321  0.00  0.00    +0.163 HD
ATOM      6  H   UNL     1      -7.008  13.528  13.383  0.00  0.00    +0.159 HD
ATOM      7  H   UNL     1      -8.570  13.766  14.072  0.00  0.00    +0.159 HD
ATOM      8  H   UNL     1      -5.187  13.977  16.370  0.00  0.00    +0.159 HD
ATOM      9  H   UNL     1      -5.097  13.647  14.684  0.00  0.00    +0.159 HD
ENDROOT
BRANCH   1  10
ATOM     10  C   UNL     1      -7.271  14.354  17.824  0.00  0.00    +0.151 C 
BRANCH  10  11
ATOM     11  C   UNL     1      -8.211  13.682  18.786  0.00  0.00    -0.028 A 
ATOM     12  C   UNL     1      -8.617  12.356  18.576  0.00  0.00    +0.005 A 
ATOM     13  C   UNL     1      -8.695  14.364  19.913  0.00  0.00    +0.005 A 
ATOM     14  C   UNL     1      -9.466  11.722  19.486  0.00  0.00    +0.000 A 
ATOM     15  C   UNL     1      -9.543  13.728  20.818  0.00  0.00    +0.000 A 
ATOM     16  C   UNL     1      -9.927  12.406  20.606  0.00  0.00    +0.000 A 
ENDBRANCH  10  11
ENDBRANCH   1  10
TORSDOF 2
ENDMDL
MODEL 7
REMARK VINA RESULT:    -4.389     57.641     58.994
REMARK INTER + INTRA:          -5.043
REMARK INTER:                  -4.920
REMARK INTRA:                  -0.123
REMARK UNBOUND:                -0.140
REMARK  Name = 1550473
REMARK  2 active torsions:
REMARK  status: ('A' for Active; 'I' for Inactive)
REMARK    1  A    between atoms: N_1  and  C_4
REMARK    2  A    between atoms: C_4  and  C_5
REMARK                            x       y       z     vdW  Elec       q    Type
REMARK                         _______ _______ _______ _____ _____    ______ ____
ROOT
ATOM      1  N   UNL     1      -3.136   0.443 -37.411  0.00  0.00    -0.354 N 
ATOM      2  N   UNL     1      -2.186   0.425 -35.299  0.00  0.00    -0.372 N 
ATOM      3  N   UNL     1      -2.098  -1.483 -36.571  0.00  0.00    -0.372 N 
ATOM      4  C   UNL     1      -2.479  -0.208 -36.441  0.00  0.00    +0.166 C 
ATOM      5  H   UNL     1      -3.424   1.399 -37.239  0.00  0.00    +0.163 HD
ATOM      6  H   UNL     1      -1.689  -0.039 -34.551  0.00  0.00    +0.159 HD
ATOM      7  H   UNL     1      -2.435   1.395 -35.148  0.00  0.00    +0.159 HD
ATOM      8  H   UNL     1      -2.294  -2.018 -37.406  0.00  0.00    +0.159 HD
ATOM      9  H   UNL     1      -1.609  -1.968 -35.829  0.00  0.00    +0.159 HD
ENDROOT
BRANCH   1  10
ATOM     10  C   UNL     1      -3.456  -0.138 -38.714  0.00  0.00    +0.151 C 
BRANCH  10  11
ATOM     11  C   UNL     1      -4.528   0.688 -39.370  0.00  0.00    -0.028 A 
ATOM     12  C   UNL     1      -4.670   0.692 -40.765  0.00  0.00    +0.005 A 
ATOM     13  C   UNL     1      -5.409   1.465 -38.601  0.00  0.00    +0.005 A 
ATOM     14  C   UNL     1      -5.684   1.436 -41.373  0.00  0.00    +0.000 A 
ATOM     15  C   UNL     1      -6.420   2.207 -39.212  0.00  0.00    +0.000 A 
ATOM     16  C   UNL     1      -6.558   2.190 -40.598  0.00  0.00    +0.000 A 
ENDBRANCH  10  11
ENDBRANCH   1  10
TORSDOF 2
ENDMDL
MODEL 8
REMARK VINA RESULT:    -4.340     14.217     15.464
REMARK INTER + INTRA:          -4.988
REMARK INTER:                  -4.815
REMARK INTRA:                  -0.173
REMARK UNBOUND:                -0.140
REMARK  Name = 1550473
REMARK  2 active torsions:
REMARK  status: ('A' for Active; 'I' for Inactive)
REMARK    1  A    between atoms: N_1  and  C_4
REMARK    2  A    between atoms: C_4  and  C_5
REMARK                            x       y       z     vdW  Elec       q    Type
REMARK                         _______ _______ _______ _____ _____    ______ ____
ROOT
ATOM      1  N   UNL     1       4.985   4.546  16.829  0.00  0.00    -0.354 N 
ATOM      2  N   UNL     1       3.987   2.529  16.279  0.00  0.00    -0.372 N 
ATOM      3  N   UNL     1       5.886   3.168  15.160  0.00  0.00    -0.372 N 
ATOM      4  C   UNL     1       4.961   3.428  16.091  0.00  0.00    +0.166 C 
ATOM      5  H   UNL     1       4.238   4.698  17.497  0.00  0.00    +0.163 HD
ATOM      6  H   UNL     1       3.945   1.675  15.740  0.00  0.00    +0.159 HD
ATOM      7  H   UNL     1       3.268   2.662  16.979  0.00  0.00    +0.159 HD
ATOM      8  H   UNL     1       6.644   3.808  14.966  0.00  0.00    +0.159 HD
ATOM      9  H   UNL     1       5.854   2.324  14.603  0.00  0.00    +0.159 HD
ENDROOT
BRANCH   1  10
ATOM     10  C   UNL     1       6.032   5.562  16.740  0.00  0.00    +0.151 C 
BRANCH  10  11
ATOM     11  C   UNL     1       5.461   6.803  16.111  0.00  0.00    -0.028 A 
ATOM     12  C   UNL     1       4.979   7.849  16.911  0.00  0.00    +0.005 A 
ATOM     13  C   UNL     1       5.403   6.940  14.715  0.00  0.00    +0.005 A 
ATOM     14  C   UNL     1       4.476   9.014  16.328  0.00  0.00    +0.000 A 
ATOM     15  C   UNL     1       4.898   8.105  14.137  0.00  0.00    +0.000 A 
ATOM     16  C   UNL     1       4.437   9.143  14.943  0.00  0.00    +0.000 A 
ENDBRANCH  10  11
ENDBRANCH   1  10
TORSDOF 2
ENDMDL
MODEL 9
REMARK VINA RESULT:    -4.302      2.569      4.771
REMARK INTER + INTRA:          -4.945
REMARK INTER:                  -4.791
REMARK INTRA:                  -0.155
REMARK UNBOUND:                -0.140
REMARK  Name = 1550473
REMARK  2 active torsions:
REMARK  status: ('A' for Active; 'I' for Inactive)
REMARK    1  A    between atoms: N_1  and  C_4
REMARK    2  A    between atoms: C_4  and  C_5
REMARK                            x       y       z     vdW  Elec       q    Type
REMARK                         _______ _______ _______ _____ _____    ______ ____
ROOT
ATOM      1  N   UNL     1      -7.604  14.612  18.852  0.00  0.00    -0.354 N 
ATOM      2  N   UNL     1      -5.550  14.784  17.796  0.00  0.00    -0.372 N 
ATOM      3  N   UNL     1      -7.400  14.261  16.544  0.00  0.00    -0.372 N 
ATOM      4  C   UNL     1      -6.867  14.550  17.736  0.00  0.00    +0.166 C 
ATOM      5  H   UNL     1      -7.135  14.807  19.729  0.00  0.00    +0.163 HD
ATOM      6  H   UNL     1      -4.968  14.748  16.970  0.00  0.00    +0.159 HD
ATOM      7  H   UNL     1      -5.091  15.024  18.666  0.00  0.00    +0.159 HD
ATOM      8  H   UNL     1      -8.387  14.068  16.432  0.00  0.00    +0.159 HD
ATOM      9  H   UNL     1      -6.833  14.208  15.708  0.00  0.00    +0.159 HD
ENDROOT
BRANCH   1  10
ATOM     10  C   UNL     1      -9.054  14.427  18.886  0.00  0.00    +0.151 C 
BRANCH  10  11
ATOM     11  C   UNL     1      -9.379  13.254  19.769  0.00  0.00    -0.028 A 
ATOM     12  C   UNL     1      -9.730  13.450  21.112  0.00  0.00    +0.005 A 
ATOM     13  C   UNL     1      -9.343  11.945  19.266  0.00  0.00    +0.005 A 
ATOM     14  C   UNL     1     -10.061  12.363  21.925  0.00  0.00    +0.000 A 
ATOM     15  C   UNL     1      -9.674  10.862  20.081  0.00  0.00    +0.000 A 
ATOM     16  C   UNL     1     -10.035  11.072  21.409  0.00  0.00    +0.000 A 
ENDBRANCH  10  11
ENDBRANCH   1  10
TORSDOF 2
ENDMDL
