MODEL 1
REMARK VINA RESULT:    -5.461      0.000      0.000
REMARK INTER + INTRA:          -6.268
REMARK INTER:                  -6.100
REMARK INTRA:                  -0.168
REMARK UNBOUND:                -0.168
REMARK  Name = 1550473
REMARK  2 active torsions:
REMARK  status: ('A' for Active; 'I' for Inactive)
REMARK    1  A    between atoms: N_1  and  C_4
REMARK    2  A    between atoms: C_4  and  C_5
REMARK                            x       y       z     vdW  Elec       q    Type
REMARK                         _______ _______ _______ _____ _____    ______ ____
ROOT
ATOM      1  N   UNL     1       3.538  -2.772  -7.641  0.00  0.00    -0.354 N 
ATOM      2  N   UNL     1       5.688  -2.407  -8.421  0.00  0.00    -0.372 N 
ATOM      3  N   UNL     1       4.655  -0.759  -7.203  0.00  0.00    -0.372 N 
ATOM      4  C   UNL     1       4.612  -1.979  -7.749  0.00  0.00    +0.166 C 
ATOM      5  H   UNL     1       3.557  -3.674  -8.103  0.00  0.00    +0.163 HD
ATOM      6  H   UNL     1       6.514  -1.833  -8.517  0.00  0.00    +0.159 HD
ATOM      7  H   UNL     1       5.721  -3.327  -8.843  0.00  0.00    +0.159 HD
ATOM      8  H   UNL     1       3.874  -0.375  -6.688  0.00  0.00    +0.159 HD
ATOM      9  H   UNL     1       5.469  -0.165  -7.298  0.00  0.00    +0.159 HD
ENDROOT
BRANCH   1  10
ATOM     10  C   UNL     1       2.337  -2.423  -6.885  0.00  0.00    +0.151 C 
BRANCH  10  11
ATOM     11  C   UNL     1       2.253  -3.296  -5.663  0.00  0.00    -0.028 A 
ATOM     12  C   UNL     1       1.410  -4.417  -5.645  0.00  0.00    +0.005 A 
ATOM     13  C   UNL     1       3.020  -3.013  -4.523  0.00  0.00    +0.005 A 
ATOM     14  C   UNL     1       1.355  -5.246  -4.522  0.00  0.00    +0.000 A 
ATOM     15  C   UNL     1       2.962  -3.842  -3.403  0.00  0.00    +0.000 A 
ATOM     16  C   UNL     1       2.131  -4.960  -3.404  0.00  0.00    +0.000 A 
ENDBRANCH  10  11
ENDBRANCH   1  10
TORSDOF 2
ENDMDL
MODEL 2
REMARK VINA RESULT:    -5.278      9.129      9.852
REMARK INTER + INTRA:          -6.063
REMARK INTER:                  -5.932
REMARK INTRA:                  -0.131
REMARK UNBOUND:                -0.168
REMARK  Name = 1550473
REMARK  2 active torsions:
REMARK  status: ('A' for Active; 'I' for Inactive)
REMARK    1  A    between atoms: N_1  and  C_4
REMARK    2  A    between atoms: C_4  and  C_5
REMARK                            x       y       z     vdW  Elec       q    Type
REMARK                         _______ _______ _______ _____ _____    ______ ____
ROOT
ATOM      1  N   UNL     1       6.115   4.220  -0.712  0.00  0.00    -0.354 N 
ATOM      2  N   UNL     1       7.184   6.088  -1.565  0.00  0.00    -0.372 N 
ATOM      3  N   UNL     1       4.987   5.720  -2.114  0.00  0.00    -0.372 N 
ATOM      4  C   UNL     1       6.086   5.331  -1.459  0.00  0.00    +0.166 C 
ATOM      5  H   UNL     1       6.988   3.963  -0.265  0.00  0.00    +0.163 HD
ATOM      6  H   UNL     1       7.191   6.934  -2.119  0.00  0.00    +0.159 HD
ATOM      7  H   UNL     1       8.042   5.854  -1.080  0.00  0.00    +0.159 HD
ATOM      8  H   UNL     1       4.127   5.189  -2.080  0.00  0.00    +0.159 HD
ATOM      9  H   UNL     1       4.977   6.558  -2.683  0.00  0.00    +0.159 HD
ENDROOT
BRANCH   1  10
ATOM     10  C   UNL     1       4.958   3.354  -0.488  0.00  0.00    +0.151 C 
BRANCH  10  11
ATOM     11  C   UNL     1       5.003   2.829   0.921  0.00  0.00    -0.028 A 
ATOM     12  C   UNL     1       6.186   2.901   1.670  0.00  0.00    +0.005 A 
ATOM     13  C   UNL     1       3.863   2.264   1.514  0.00  0.00    +0.005 A 
ATOM     14  C   UNL     1       6.220   2.441   2.989  0.00  0.00    +0.000 A 
ATOM     15  C   UNL     1       3.901   1.806   2.830  0.00  0.00    +0.000 A 
ATOM     16  C   UNL     1       5.079   1.896   3.568  0.00  0.00    +0.000 A 
ENDBRANCH  10  11
ENDBRANCH   1  10
TORSDOF 2
ENDMDL
MODEL 3
REMARK VINA RESULT:    -5.274      1.383      2.058
REMARK INTER + INTRA:          -6.059
REMARK INTER:                  -5.941
REMARK INTRA:                  -0.118
REMARK UNBOUND:                -0.168
REMARK  Name = 1550473
REMARK  2 active torsions:
REMARK  status: ('A' for Active; 'I' for Inactive)
REMARK    1  A    between atoms: N_1  and  C_4
REMARK    2  A    between atoms: C_4  and  C_5
REMARK                            x       y       z     vdW  Elec       q    Type
REMARK                         _______ _______ _______ _____ _____    ______ ____
ROOT
ATOM      1  N   UNL     1       3.421  -2.498  -6.251  0.00  0.00    -0.354 N 
ATOM      2  N   UNL     1       4.127  -2.851  -8.429  0.00  0.00    -0.372 N 
ATOM      3  N   UNL     1       4.745  -0.915  -7.362  0.00  0.00    -0.372 N 
ATOM      4  C   UNL     1       4.094  -2.083  -7.333  0.00  0.00    +0.166 C 
ATOM      5  H   UNL     1       2.923  -3.379  -6.303  0.00  0.00    +0.163 HD
ATOM      6  H   UNL     1       4.630  -2.566  -9.259  0.00  0.00    +0.159 HD
ATOM      7  H   UNL     1       3.667  -3.752  -8.462  0.00  0.00    +0.159 HD
ATOM      8  H   UNL     1       4.753  -0.287  -6.570  0.00  0.00    +0.159 HD
ATOM      9  H   UNL     1       5.244  -0.607  -8.188  0.00  0.00    +0.159 HD
ENDROOT
BRANCH   1  10
ATOM     10  C   UNL     1       3.367  -1.762  -4.990  0.00  0.00    +0.151 C 
BRANCH  10  11
ATOM     11  C   UNL     1       2.634  -2.588  -3.969  0.00  0.00    -0.028 A 
ATOM     12  C   UNL     1       1.920  -1.970  -2.932  0.00  0.00    +0.005 A 
ATOM     13  C   UNL     1       2.645  -3.990  -4.038  0.00  0.00    +0.005 A 
ATOM     14  C   UNL     1       1.214  -2.737  -2.002  0.00  0.00    +0.000 A 
ATOM     15  C   UNL     1       1.939  -4.752  -3.107  0.00  0.00    +0.000 A 
ATOM     16  C   UNL     1       1.222  -4.125  -2.090  0.00  0.00    +0.000 A 
ENDBRANCH  10  11
ENDBRANCH   1  10
TORSDOF 2
ENDMDL
MODEL 4
REMARK VINA RESULT:    -5.103      2.851      5.143
REMARK INTER + INTRA:          -5.868
REMARK INTER:                  -5.691
REMARK INTRA:                  -0.177
REMARK UNBOUND:                -0.168
REMARK  Name = 1550473
REMARK  2 active torsions:
REMARK  status: ('A' for Active; 'I' for Inactive)
REMARK    1  A    between atoms: N_1  and  C_4
REMARK    2  A    between atoms: C_4  and  C_5
REMARK                            x       y       z     vdW  Elec       q    Type
REMARK                         _______ _______ _______ _____ _____    ______ ____
ROOT
ATOM      1  N   UNL     1       2.338  -3.726  -5.939  0.00  0.00    -0.354 N 
ATOM      2  N   UNL     1       1.560  -5.728  -5.073  0.00  0.00    -0.372 N 
ATOM      3  N   UNL     1       0.436  -3.792  -4.572  0.00  0.00    -0.372 N 
ATOM      4  C   UNL     1       1.448  -4.400  -5.199  0.00  0.00    +0.166 C 
ATOM      5  H   UNL     1       3.100  -4.242  -6.364  0.00  0.00    +0.163 HD
ATOM      6  H   UNL     1       0.901  -6.264  -4.523  0.00  0.00    +0.159 HD
ATOM      7  H   UNL     1       2.296  -6.247  -5.536  0.00  0.00    +0.159 HD
ATOM      8  H   UNL     1       0.299  -2.791  -4.622  0.00  0.00    +0.159 HD
ATOM      9  H   UNL     1      -0.227  -4.309  -4.008  0.00  0.00    +0.159 HD
ENDROOT
BRANCH   1  10
ATOM     10  C   UNL     1       2.274  -2.286  -6.184  0.00  0.00    +0.151 C 
BRANCH  10  11
ATOM     11  C   UNL     1       1.807  -2.048  -7.594  0.00  0.00    -0.028 A 
ATOM     12  C   UNL     1       2.730  -1.974  -8.647  0.00  0.00    +0.005 A 
ATOM     13  C   UNL     1       0.442  -1.902  -7.883  0.00  0.00    +0.005 A 
ATOM     14  C   UNL     1       2.295  -1.782  -9.960  0.00  0.00    +0.000 A 
ATOM     15  C   UNL     1       0.011  -1.711  -9.196  0.00  0.00    +0.000 A 
ATOM     16  C   UNL     1       0.937  -1.653 -10.234  0.00  0.00    +0.000 A 
ENDBRANCH  10  11
ENDBRANCH   1  10
TORSDOF 2
ENDMDL
MODEL 5
REMARK VINA RESULT:    -5.002      2.640      3.251
REMARK INTER + INTRA:          -5.755
REMARK INTER:                  -5.642
REMARK INTRA:                  -0.113
REMARK UNBOUND:                -0.168
REMARK  Name = 1550473
REMARK  2 active torsions:
REMARK  status: ('A' for Active; 'I' for Inactive)
REMARK    1  A    between atoms: N_1  and  C_4
REMARK    2  A    between atoms: C_4  and  C_5
REMARK                            x       y       z     vdW  Elec       q    Type
REMARK                         _______ _______ _______ _____ _____    ______ ____
ROOT
ATOM      1  N   UNL     1       3.782  -1.218  -8.133  0.00  0.00    -0.354 N 
ATOM      2  N   UNL     1       5.729  -2.336  -7.565  0.00  0.00    -0.372 N 
ATOM      3  N   UNL     1       4.205  -3.382  -8.926  0.00  0.00    -0.372 N 
ATOM      4  C   UNL     1       4.558  -2.307  -8.214  0.00  0.00    +0.166 C 
ATOM      5  H   UNL     1       4.092  -0.448  -7.552  0.00  0.00    +0.163 HD
ATOM      6  H   UNL     1       6.337  -3.143  -7.610  0.00  0.00    +0.159 HD
ATOM      7  H   UNL     1       6.057  -1.547  -7.022  0.00  0.00    +0.159 HD
ATOM      8  H   UNL     1       3.332  -3.425  -9.434  0.00  0.00    +0.159 HD
ATOM      9  H   UNL     1       4.795  -4.203  -8.974  0.00  0.00    +0.159 HD
ENDROOT
BRANCH   1  10
ATOM     10  C   UNL     1       2.514  -1.063  -8.844  0.00  0.00    +0.151 C 
BRANCH  10  11
ATOM     11  C   UNL     1       1.386  -1.440  -7.924  0.00  0.00    -0.028 A 
ATOM     12  C   UNL     1       0.154  -1.863  -8.445  0.00  0.00    +0.005 A 
ATOM     13  C   UNL     1       1.544  -1.383  -6.531  0.00  0.00    +0.005 A 
ATOM     14  C   UNL     1      -0.885  -2.242  -7.590  0.00  0.00    +0.000 A 
ATOM     15  C   UNL     1       0.505  -1.762  -5.682  0.00  0.00    +0.000 A 
ATOM     16  C   UNL     1      -0.708  -2.194  -6.212  0.00  0.00    +0.000 A 
ENDBRANCH  10  11
ENDBRANCH   1  10
TORSDOF 2
ENDMDL
MODEL 6
REMARK VINA RESULT:    -4.887     26.793     27.981
REMARK INTER + INTRA:          -5.627
REMARK INTER:                  -5.517
REMARK INTRA:                  -0.111
REMARK UNBOUND:                -0.168
REMARK  Name = 1550473
REMARK  2 active torsions:
REMARK  status: ('A' for Active; 'I' for Inactive)
REMARK    1  A    between atoms: N_1  and  C_4
REMARK    2  A    between atoms: C_4  and  C_5
REMARK                            x       y       z     vdW  Elec       q    Type
REMARK                         _______ _______ _______ _____ _____    ______ ____
ROOT
ATOM      1  N   UNL     1       4.977  19.639  10.858  0.00  0.00    -0.354 N 
ATOM      2  N   UNL     1       4.164  18.820  12.866  0.00  0.00    -0.372 N 
ATOM      3  N   UNL     1       5.648  20.570  12.901  0.00  0.00    -0.372 N 
ATOM      4  C   UNL     1       4.937  19.684  12.196  0.00  0.00    +0.166 C 
ATOM      5  H   UNL     1       4.438  18.923  10.384  0.00  0.00    +0.163 HD
ATOM      6  H   UNL     1       4.111  18.833  13.876  0.00  0.00    +0.159 HD
ATOM      7  H   UNL     1       3.591  18.136  12.388  0.00  0.00    +0.159 HD
ATOM      8  H   UNL     1       6.255  21.245  12.455  0.00  0.00    +0.159 HD
ATOM      9  H   UNL     1       5.616  20.591  13.912  0.00  0.00    +0.159 HD
ENDROOT
BRANCH   1  10
ATOM     10  C   UNL     1       5.744  20.569  10.031  0.00  0.00    +0.151 C 
BRANCH  10  11
ATOM     11  C   UNL     1       6.239  19.846   8.809  0.00  0.00    -0.028 A 
ATOM     12  C   UNL     1       7.588  19.928   8.431  0.00  0.00    +0.005 A 
ATOM     13  C   UNL     1       5.367  19.072   8.028  0.00  0.00    +0.005 A 
ATOM     14  C   UNL     1       8.054  19.232   7.313  0.00  0.00    +0.000 A 
ATOM     15  C   UNL     1       5.836  18.380   6.912  0.00  0.00    +0.000 A 
ATOM     16  C   UNL     1       7.180  18.458   6.556  0.00  0.00    +0.000 A 
ENDBRANCH  10  11
ENDBRANCH   1  10
TORSDOF 2
ENDMDL
MODEL 7
REMARK VINA RESULT:    -4.842     28.262     29.416
REMARK INTER + INTRA:          -5.576
REMARK INTER:                  -5.433
REMARK INTRA:                  -0.143
REMARK UNBOUND:                -0.168
REMARK  Name = 1550473
REMARK  2 active torsions:
REMARK  status: ('A' for Active; 'I' for Inactive)
REMARK    1  A    between atoms: N_1  and  C_4
REMARK    2  A    between atoms: C_4  and  C_5
REMARK                            x       y       z     vdW  Elec       q    Type
REMARK                         _______ _______ _______ _____ _____    ______ ____
ROOT
ATOM      1  N   UNL     1       5.887  21.055  12.451  0.00  0.00    -0.354 N 
ATOM      2  N   UNL     1       5.667  22.927  13.797  0.00  0.00    -0.372 N 
ATOM      3  N   UNL     1       4.135  21.231  13.997  0.00  0.00    -0.372 N 
ATOM      4  C   UNL     1       5.229  21.724  13.407  0.00  0.00    +0.166 C 
ATOM      5  H   UNL     1       6.692  21.496  12.022  0.00  0.00    +0.163 HD
ATOM      6  H   UNL     1       5.193  23.454  14.518  0.00  0.00    +0.159 HD
ATOM      7  H   UNL     1       6.499  23.346  13.399  0.00  0.00    +0.159 HD
ATOM      8  H   UNL     1       3.749  20.331  13.744  0.00  0.00    +0.159 HD
ATOM      9  H   UNL     1       3.639  21.748  14.713  0.00  0.00    +0.159 HD
ENDROOT
BRANCH   1  10
ATOM     10  C   UNL     1       5.523  19.715  11.993  0.00  0.00    +0.151 C 
BRANCH  10  11
ATOM     11  C   UNL     1       5.462  19.710  10.490  0.00  0.00    -0.028 A 
ATOM     12  C   UNL     1       5.276  18.510   9.789  0.00  0.00    +0.005 A 
ATOM     13  C   UNL     1       5.583  20.904   9.762  0.00  0.00    +0.005 A 
ATOM     14  C   UNL     1       5.189  18.509   8.395  0.00  0.00    +0.000 A 
ATOM     15  C   UNL     1       5.496  20.898   8.370  0.00  0.00    +0.000 A 
ATOM     16  C   UNL     1       5.296  19.701   7.687  0.00  0.00    +0.000 A 
ENDBRANCH  10  11
ENDBRANCH   1  10
TORSDOF 2
ENDMDL
MODEL 8
REMARK VINA RESULT:    -4.799      9.230     10.237
REMARK INTER + INTRA:          -5.528
REMARK INTER:                  -5.402
REMARK INTRA:                  -0.126
REMARK UNBOUND:                -0.168
REMARK  Name = 1550473
REMARK  2 active torsions:
REMARK  status: ('A' for Active; 'I' for Inactive)
REMARK    1  A    between atoms: N_1  and  C_4
REMARK    2  A    between atoms: C_4  and  C_5
REMARK                            x       y       z     vdW  Elec       q    Type
REMARK                         _______ _______ _______ _____ _____    ______ ____
ROOT
ATOM      1  N   UNL     1       6.844   6.115  -1.115  0.00  0.00    -0.354 N 
ATOM      2  N   UNL     1       7.949   8.149  -1.203  0.00  0.00    -0.372 N 
ATOM      3  N   UNL     1       8.299   6.623  -2.881  0.00  0.00    -0.372 N 
ATOM      4  C   UNL     1       7.691   6.948  -1.735  0.00  0.00    +0.166 C 
ATOM      5  H   UNL     1       6.440   6.408  -0.233  0.00  0.00    +0.163 HD
ATOM      6  H   UNL     1       8.581   8.799  -1.649  0.00  0.00    +0.159 HD
ATOM      7  H   UNL     1       7.508   8.457  -0.345  0.00  0.00    +0.159 HD
ATOM      8  H   UNL     1       8.152   5.729  -3.331  0.00  0.00    +0.159 HD
ATOM      9  H   UNL     1       8.944   7.256  -3.337  0.00  0.00    +0.159 HD
ENDROOT
BRANCH   1  10
ATOM     10  C   UNL     1       6.455   4.807  -1.638  0.00  0.00    +0.151 C 
BRANCH  10  11
ATOM     11  C   UNL     1       6.106   3.902  -0.489  0.00  0.00    -0.028 A 
ATOM     12  C   UNL     1       5.118   2.917  -0.632  0.00  0.00    +0.005 A 
ATOM     13  C   UNL     1       6.764   4.021   0.745  0.00  0.00    +0.005 A 
ATOM     14  C   UNL     1       4.815   2.056   0.426  0.00  0.00    +0.000 A 
ATOM     15  C   UNL     1       6.458   3.161   1.799  0.00  0.00    +0.000 A 
ATOM     16  C   UNL     1       5.485   2.177   1.638  0.00  0.00    +0.000 A 
ENDBRANCH  10  11
ENDBRANCH   1  10
TORSDOF 2
ENDMDL
MODEL 9
REMARK VINA RESULT:    -4.768     25.677     26.890
REMARK INTER + INTRA:          -5.494
REMARK INTER:                  -5.371
REMARK INTRA:                  -0.123
REMARK UNBOUND:                -0.168
REMARK  Name = 1550473
REMARK  2 active torsions:
REMARK  status: ('A' for Active; 'I' for Inactive)
REMARK    1  A    between atoms: N_1  and  C_4
REMARK    2  A    between atoms: C_4  and  C_5
REMARK                            x       y       z     vdW  Elec       q    Type
REMARK                         _______ _______ _______ _____ _____    ______ ____
ROOT
ATOM      1  N   UNL     1       6.820  19.113   7.135  0.00  0.00    -0.354 N 
ATOM      2  N   UNL     1       4.800  19.067   8.268  0.00  0.00    -0.372 N 
ATOM      3  N   UNL     1       5.239  17.434   6.717  0.00  0.00    -0.372 N 
ATOM      4  C   UNL     1       5.633  18.536   7.364  0.00  0.00    +0.166 C 
ATOM      5  H   UNL     1       7.046  19.964   7.637  0.00  0.00    +0.163 HD
ATOM      6  H   UNL     1       3.900  18.652   8.465  0.00  0.00    +0.159 HD
ATOM      7  H   UNL     1       5.048  19.891   8.802  0.00  0.00    +0.159 HD
ATOM      8  H   UNL     1       5.819  16.988   6.018  0.00  0.00    +0.159 HD
ATOM      9  H   UNL     1       4.337  17.011   6.892  0.00  0.00    +0.159 HD
ENDROOT
BRANCH   1  10
ATOM     10  C   UNL     1       7.821  18.584   6.211  0.00  0.00    +0.151 C 
BRANCH  10  11
ATOM     11  C   UNL     1       9.068  19.420   6.307  0.00  0.00    -0.028 A 
ATOM     12  C   UNL     1       9.234  20.334   7.358  0.00  0.00    +0.005 A 
ATOM     13  C   UNL     1      10.090  19.298   5.352  0.00  0.00    +0.005 A 
ATOM     14  C   UNL     1      10.404  21.088   7.464  0.00  0.00    +0.000 A 
ATOM     15  C   UNL     1      11.257  20.054   5.462  0.00  0.00    +0.000 A 
ATOM     16  C   UNL     1      11.415  20.947   6.519  0.00  0.00    +0.000 A 
ENDBRANCH  10  11
ENDBRANCH   1  10
TORSDOF 2
ENDMDL
