MODEL 1
REMARK VINA RESULT:    -5.152      0.000      0.000
REMARK INTER + INTRA:          -5.840
REMARK INTER:                  -5.754
REMARK INTRA:                  -0.085
REMARK UNBOUND:                -0.085
REMARK  Name = 1550473
REMARK  2 active torsions:
REMARK  status: ('A' for Active; 'I' for Inactive)
REMARK    1  A    between atoms: N_1  and  C_4
REMARK    2  A    between atoms: C_4  and  C_5
REMARK                            x       y       z     vdW  Elec       q    Type
REMARK                         _______ _______ _______ _____ _____    ______ ____
ROOT
ATOM      1  N   UNL     1      11.215  -2.535  20.592  0.00  0.00    -0.354 N 
ATOM      2  N   UNL     1      11.038  -3.033  18.337  0.00  0.00    -0.372 N 
ATOM      3  N   UNL     1      13.115  -3.026  19.312  0.00  0.00    -0.372 N 
ATOM      4  C   UNL     1      11.793  -2.861  19.428  0.00  0.00    +0.166 C 
ATOM      5  H   UNL     1      10.211  -2.395  20.608  0.00  0.00    +0.163 HD
ATOM      6  H   UNL     1      11.446  -3.283  17.446  0.00  0.00    +0.159 HD
ATOM      7  H   UNL     1      10.030  -2.938  18.366  0.00  0.00    +0.159 HD
ATOM      8  H   UNL     1      13.741  -2.905  20.096  0.00  0.00    +0.159 HD
ATOM      9  H   UNL     1      13.543  -3.265  18.426  0.00  0.00    +0.159 HD
ENDROOT
BRANCH   1  10
ATOM     10  C   UNL     1      11.941  -2.377  21.850  0.00  0.00    +0.151 C 
BRANCH  10  11
ATOM     11  C   UNL     1      11.934  -0.926  22.244  0.00  0.00    -0.028 A 
ATOM     12  C   UNL     1      12.225  -0.544  23.562  0.00  0.00    +0.005 A 
ATOM     13  C   UNL     1      11.642   0.073  21.302  0.00  0.00    +0.005 A 
ATOM     14  C   UNL     1      12.248   0.806  23.920  0.00  0.00    +0.000 A 
ATOM     15  C   UNL     1      11.665   1.419  21.665  0.00  0.00    +0.000 A 
ATOM     16  C   UNL     1      11.970   1.786  22.973  0.00  0.00    +0.000 A 
ENDBRANCH  10  11
ENDBRANCH   1  10
TORSDOF 2
ENDMDL
MODEL 2
REMARK VINA RESULT:    -4.962      1.158      2.026
REMARK INTER + INTRA:          -5.628
REMARK INTER:                  -5.502
REMARK INTRA:                  -0.126
REMARK UNBOUND:                -0.085
REMARK  Name = 1550473
REMARK  2 active torsions:
REMARK  status: ('A' for Active; 'I' for Inactive)
REMARK    1  A    between atoms: N_1  and  C_4
REMARK    2  A    between atoms: C_4  and  C_5
REMARK                            x       y       z     vdW  Elec       q    Type
REMARK                         _______ _______ _______ _____ _____    ______ ____
ROOT
ATOM      1  N   UNL     1      11.634  -1.373  20.165  0.00  0.00    -0.354 N 
ATOM      2  N   UNL     1      11.094  -3.066  18.680  0.00  0.00    -0.372 N 
ATOM      3  N   UNL     1      13.267  -2.863  19.387  0.00  0.00    -0.372 N 
ATOM      4  C   UNL     1      12.005  -2.423  19.421  0.00  0.00    +0.166 C 
ATOM      5  H   UNL     1      10.668  -1.070  20.124  0.00  0.00    +0.163 HD
ATOM      6  H   UNL     1      11.343  -3.864  18.111  0.00  0.00    +0.159 HD
ATOM      7  H   UNL     1      10.119  -2.790  18.676  0.00  0.00    +0.159 HD
ATOM      8  H   UNL     1      14.004  -2.418  19.918  0.00  0.00    +0.159 HD
ATOM      9  H   UNL     1      13.538  -3.653  18.815  0.00  0.00    +0.159 HD
ENDROOT
BRANCH   1  10
ATOM     10  C   UNL     1      12.538  -0.637  21.048  0.00  0.00    +0.151 C 
BRANCH  10  11
ATOM     11  C   UNL     1      12.024  -0.723  22.459  0.00  0.00    -0.028 A 
ATOM     12  C   UNL     1      11.540  -1.938  22.967  0.00  0.00    +0.005 A 
ATOM     13  C   UNL     1      12.024   0.404  23.294  0.00  0.00    +0.005 A 
ATOM     14  C   UNL     1      11.091  -2.025  24.287  0.00  0.00    +0.000 A 
ATOM     15  C   UNL     1      11.574   0.313  24.611  0.00  0.00    +0.000 A 
ATOM     16  C   UNL     1      11.110  -0.902  25.108  0.00  0.00    +0.000 A 
ENDBRANCH  10  11
ENDBRANCH   1  10
TORSDOF 2
ENDMDL
MODEL 3
REMARK VINA RESULT:    -4.904     16.094     17.100
REMARK INTER + INTRA:          -5.563
REMARK INTER:                  -5.419
REMARK INTRA:                  -0.144
REMARK UNBOUND:                -0.085
REMARK  Name = 1550473
REMARK  2 active torsions:
REMARK  status: ('A' for Active; 'I' for Inactive)
REMARK    1  A    between atoms: N_1  and  C_4
REMARK    2  A    between atoms: C_4  and  C_5
REMARK                            x       y       z     vdW  Elec       q    Type
REMARK                         _______ _______ _______ _____ _____    ______ ____
ROOT
ATOM      1  N   UNL     1       9.586  14.709  18.244  0.00  0.00    -0.354 N 
ATOM      2  N   UNL     1       7.848  13.226  17.864  0.00  0.00    -0.372 N 
ATOM      3  N   UNL     1       7.982  15.128  16.587  0.00  0.00    -0.372 N 
ATOM      4  C   UNL     1       8.483  14.366  17.566  0.00  0.00    +0.166 C 
ATOM      5  H   UNL     1       9.897  14.104  18.995  0.00  0.00    +0.163 HD
ATOM      6  H   UNL     1       7.015  12.940  17.368  0.00  0.00    +0.159 HD
ATOM      7  H   UNL     1       8.187  12.600  18.585  0.00  0.00    +0.159 HD
ATOM      8  H   UNL     1       8.411  16.003  16.317  0.00  0.00    +0.159 HD
ATOM      9  H   UNL     1       7.143  14.863  16.086  0.00  0.00    +0.159 HD
ENDROOT
BRANCH   1  10
ATOM     10  C   UNL     1      10.382  15.902  17.961  0.00  0.00    +0.151 C 
BRANCH  10  11
ATOM     11  C   UNL     1      11.386  15.580  16.889  0.00  0.00    -0.028 A 
ATOM     12  C   UNL     1      12.356  14.588  17.097  0.00  0.00    +0.005 A 
ATOM     13  C   UNL     1      11.371  16.259  15.661  0.00  0.00    +0.005 A 
ATOM     14  C   UNL     1      13.270  14.267  16.091  0.00  0.00    +0.000 A 
ATOM     15  C   UNL     1      12.286  15.936  14.659  0.00  0.00    +0.000 A 
ATOM     16  C   UNL     1      13.234  14.939  14.873  0.00  0.00    +0.000 A 
ENDBRANCH  10  11
ENDBRANCH   1  10
TORSDOF 2
ENDMDL
MODEL 4
REMARK VINA RESULT:    -4.754     16.392     17.398
REMARK INTER + INTRA:          -5.395
REMARK INTER:                  -5.285
REMARK INTRA:                  -0.110
REMARK UNBOUND:                -0.085
REMARK  Name = 1550473
REMARK  2 active torsions:
REMARK  status: ('A' for Active; 'I' for Inactive)
REMARK    1  A    between atoms: N_1  and  C_4
REMARK    2  A    between atoms: C_4  and  C_5
REMARK                            x       y       z     vdW  Elec       q    Type
REMARK                         _______ _______ _______ _____ _____    ______ ____
ROOT
ATOM      1  N   UNL     1       8.878  15.805  17.529  0.00  0.00    -0.354 N 
ATOM      2  N   UNL     1       8.038  15.374  19.644  0.00  0.00    -0.372 N 
ATOM      3  N   UNL     1       7.568  13.907  17.944  0.00  0.00    -0.372 N 
ATOM      4  C   UNL     1       8.165  15.030  18.357  0.00  0.00    +0.166 C 
ATOM      5  H   UNL     1       9.281  16.659  17.897  0.00  0.00    +0.163 HD
ATOM      6  H   UNL     1       7.510  14.807  20.294  0.00  0.00    +0.159 HD
ATOM      7  H   UNL     1       8.480  16.204  20.020  0.00  0.00    +0.159 HD
ATOM      8  H   UNL     1       7.620  13.595  16.984  0.00  0.00    +0.159 HD
ATOM      9  H   UNL     1       7.025  13.332  18.576  0.00  0.00    +0.159 HD
ENDROOT
BRANCH   1  10
ATOM     10  C   UNL     1       9.122  15.492  16.123  0.00  0.00    +0.151 C 
BRANCH  10  11
ATOM     11  C   UNL     1      10.598  15.290  15.914  0.00  0.00    -0.028 A 
ATOM     12  C   UNL     1      11.205  15.673  14.709  0.00  0.00    +0.005 A 
ATOM     13  C   UNL     1      11.395  14.721  16.919  0.00  0.00    +0.005 A 
ATOM     14  C   UNL     1      12.581  15.514  14.526  0.00  0.00    +0.000 A 
ATOM     15  C   UNL     1      12.768  14.563  16.732  0.00  0.00    +0.000 A 
ATOM     16  C   UNL     1      13.361  14.962  15.536  0.00  0.00    +0.000 A 
ENDBRANCH  10  11
ENDBRANCH   1  10
TORSDOF 2
ENDMDL
MODEL 5
REMARK VINA RESULT:    -4.700      1.654      2.442
REMARK INTER + INTRA:          -5.335
REMARK INTER:                  -5.153
REMARK INTRA:                  -0.182
REMARK UNBOUND:                -0.085
REMARK  Name = 1550473
REMARK  2 active torsions:
REMARK  status: ('A' for Active; 'I' for Inactive)
REMARK    1  A    between atoms: N_1  and  C_4
REMARK    2  A    between atoms: C_4  and  C_5
REMARK                            x       y       z     vdW  Elec       q    Type
REMARK                         _______ _______ _______ _____ _____    ______ ____
ROOT
ATOM      1  N   UNL     1      13.645  -2.982  20.214  0.00  0.00    -0.354 N 
ATOM      2  N   UNL     1      15.939  -3.160  19.945  0.00  0.00    -0.372 N 
ATOM      3  N   UNL     1      14.839  -1.403  18.961  0.00  0.00    -0.372 N 
ATOM      4  C   UNL     1      14.792  -2.511  19.707  0.00  0.00    +0.166 C 
ATOM      5  H   UNL     1      13.673  -3.844  20.747  0.00  0.00    +0.163 HD
ATOM      6  H   UNL     1      16.820  -2.826  19.578  0.00  0.00    +0.159 HD
ATOM      7  H   UNL     1      15.970  -3.996  20.516  0.00  0.00    +0.159 HD
ATOM      8  H   UNL     1      14.008  -0.871  18.739  0.00  0.00    +0.159 HD
ATOM      9  H   UNL     1      15.710  -1.060  18.575  0.00  0.00    +0.159 HD
ENDROOT
BRANCH   1  10
ATOM     10  C   UNL     1      12.351  -2.322  20.059  0.00  0.00    +0.151 C 
BRANCH  10  11
ATOM     11  C   UNL     1      12.079  -1.481  21.275  0.00  0.00    -0.028 A 
ATOM     12  C   UNL     1      11.825  -2.084  22.516  0.00  0.00    +0.005 A 
ATOM     13  C   UNL     1      12.079  -0.080  21.195  0.00  0.00    +0.005 A 
ATOM     14  C   UNL     1      11.602  -1.303  23.652  0.00  0.00    +0.000 A 
ATOM     15  C   UNL     1      11.855   0.697  22.332  0.00  0.00    +0.000 A 
ATOM     16  C   UNL     1      11.619   0.085  23.561  0.00  0.00    +0.000 A 
ENDBRANCH  10  11
ENDBRANCH   1  10
TORSDOF 2
ENDMDL
MODEL 6
REMARK VINA RESULT:    -4.502      2.485      2.712
REMARK INTER + INTRA:          -5.114
REMARK INTER:                  -4.959
REMARK INTRA:                  -0.155
REMARK UNBOUND:                -0.085
REMARK  Name = 1550473
REMARK  2 active torsions:
REMARK  status: ('A' for Active; 'I' for Inactive)
REMARK    1  A    between atoms: N_1  and  C_4
REMARK    2  A    between atoms: C_4  and  C_5
REMARK                            x       y       z     vdW  Elec       q    Type
REMARK                         _______ _______ _______ _____ _____    ______ ____
ROOT
ATOM      1  N   UNL     1      11.734  -1.386  20.331  0.00  0.00    -0.354 N 
ATOM      2  N   UNL     1      11.299  -2.989  18.716  0.00  0.00    -0.372 N 
ATOM      3  N   UNL     1      11.903  -3.672  20.822  0.00  0.00    -0.372 N 
ATOM      4  C   UNL     1      11.649  -2.673  19.969  0.00  0.00    +0.166 C 
ATOM      5  H   UNL     1      11.559  -0.676  19.629  0.00  0.00    +0.163 HD
ATOM      6  H   UNL     1      11.223  -3.951  18.415  0.00  0.00    +0.159 HD
ATOM      7  H   UNL     1      11.079  -2.278  18.029  0.00  0.00    +0.159 HD
ATOM      8  H   UNL     1      12.178  -3.501  21.780  0.00  0.00    +0.159 HD
ATOM      9  H   UNL     1      11.844  -4.641  20.536  0.00  0.00    +0.159 HD
ENDROOT
BRANCH   1  10
ATOM     10  C   UNL     1      12.055  -0.937  21.684  0.00  0.00    +0.151 C 
BRANCH  10  11
ATOM     11  C   UNL     1      13.513  -0.571  21.748  0.00  0.00    -0.028 A 
ATOM     12  C   UNL     1      14.470  -1.524  22.125  0.00  0.00    +0.005 A 
ATOM     13  C   UNL     1      13.943   0.725  21.427  0.00  0.00    +0.005 A 
ATOM     14  C   UNL     1      15.827  -1.193  22.155  0.00  0.00    +0.000 A 
ATOM     15  C   UNL     1      15.298   1.052  21.459  0.00  0.00    +0.000 A 
ATOM     16  C   UNL     1      16.240   0.092  21.820  0.00  0.00    +0.000 A 
ENDBRANCH  10  11
ENDBRANCH   1  10
TORSDOF 2
ENDMDL
MODEL 7
REMARK VINA RESULT:    -4.473     31.837     32.867
REMARK INTER + INTRA:          -5.081
REMARK INTER:                  -4.972
REMARK INTRA:                  -0.109
REMARK UNBOUND:                -0.085
REMARK  Name = 1550473
REMARK  2 active torsions:
REMARK  status: ('A' for Active; 'I' for Inactive)
REMARK    1  A    between atoms: N_1  and  C_4
REMARK    2  A    between atoms: C_4  and  C_5
REMARK                            x       y       z     vdW  Elec       q    Type
REMARK                         _______ _______ _______ _____ _____    ______ ____
ROOT
ATOM      1  N   UNL     1     -13.011   9.072   4.738  0.00  0.00    -0.354 N 
ATOM      2  N   UNL     1     -10.967   9.927   4.062  0.00  0.00    -0.372 N 
ATOM      3  N   UNL     1     -12.699  11.378   4.463  0.00  0.00    -0.372 N 
ATOM      4  C   UNL     1     -12.241  10.122   4.425  0.00  0.00    +0.166 C 
ATOM      5  H   UNL     1     -12.613   8.143   4.661  0.00  0.00    +0.163 HD
ATOM      6  H   UNL     1     -10.361  10.700   3.824  0.00  0.00    +0.159 HD
ATOM      7  H   UNL     1     -10.559   9.000   4.031  0.00  0.00    +0.159 HD
ATOM      8  H   UNL     1     -13.652  11.593   4.723  0.00  0.00    +0.159 HD
ATOM      9  H   UNL     1     -12.111  12.164   4.216  0.00  0.00    +0.159 HD
ENDROOT
BRANCH   1  10
ATOM     10  C   UNL     1     -14.395   9.181   5.197  0.00  0.00    +0.151 C 
BRANCH  10  11
ATOM     11  C   UNL     1     -15.135   7.925   4.828  0.00  0.00    -0.028 A 
ATOM     12  C   UNL     1     -16.397   7.995   4.221  0.00  0.00    +0.005 A 
ATOM     13  C   UNL     1     -14.577   6.662   5.076  0.00  0.00    +0.005 A 
ATOM     14  C   UNL     1     -17.072   6.830   3.850  0.00  0.00    +0.000 A 
ATOM     15  C   UNL     1     -15.254   5.500   4.705  0.00  0.00    +0.000 A 
ATOM     16  C   UNL     1     -16.501   5.585   4.090  0.00  0.00    +0.000 A 
ENDBRANCH  10  11
ENDBRANCH   1  10
TORSDOF 2
ENDMDL
MODEL 8
REMARK VINA RESULT:    -4.430     17.450     18.881
REMARK INTER + INTRA:          -5.034
REMARK INTER:                  -4.894
REMARK INTRA:                  -0.140
REMARK UNBOUND:                -0.085
REMARK  Name = 1550473
REMARK  2 active torsions:
REMARK  status: ('A' for Active; 'I' for Inactive)
REMARK    1  A    between atoms: N_1  and  C_4
REMARK    2  A    between atoms: C_4  and  C_5
REMARK                            x       y       z     vdW  Elec       q    Type
REMARK                         _______ _______ _______ _____ _____    ______ ____
ROOT
ATOM      1  N   UNL     1       9.713  15.296  15.090  0.00  0.00    -0.354 N 
ATOM      2  N   UNL     1       9.075  14.301  17.082  0.00  0.00    -0.372 N 
ATOM      3  N   UNL     1       9.255  16.586  16.991  0.00  0.00    -0.372 N 
ATOM      4  C   UNL     1       9.352  15.404  16.375  0.00  0.00    +0.166 C 
ATOM      5  H   UNL     1       9.798  14.368  14.690  0.00  0.00    +0.163 HD
ATOM      6  H   UNL     1       8.797  14.351  18.052  0.00  0.00    +0.159 HD
ATOM      7  H   UNL     1       9.116  13.378  16.666  0.00  0.00    +0.159 HD
ATOM      8  H   UNL     1       9.456  17.456  16.516  0.00  0.00    +0.159 HD
ATOM      9  H   UNL     1       8.989  16.656  17.966  0.00  0.00    +0.159 HD
ENDROOT
BRANCH   1  10
ATOM     10  C   UNL     1       9.984  16.438  14.218  0.00  0.00    +0.151 C 
BRANCH  10  11
ATOM     11  C   UNL     1      11.459  16.728  14.234  0.00  0.00    -0.028 A 
ATOM     12  C   UNL     1      11.926  18.048  14.145  0.00  0.00    +0.005 A 
ATOM     13  C   UNL     1      12.396  15.689  14.342  0.00  0.00    +0.005 A 
ATOM     14  C   UNL     1      13.295  18.321  14.190  0.00  0.00    +0.000 A 
ATOM     15  C   UNL     1      13.762  15.966  14.386  0.00  0.00    +0.000 A 
ATOM     16  C   UNL     1      14.211  17.282  14.312  0.00  0.00    +0.000 A 
ENDBRANCH  10  11
ENDBRANCH   1  10
TORSDOF 2
ENDMDL
MODEL 9
REMARK VINA RESULT:    -4.237     29.522     30.828
REMARK INTER + INTRA:          -4.818
REMARK INTER:                  -4.702
REMARK INTRA:                  -0.116
REMARK UNBOUND:                -0.085
REMARK  Name = 1550473
REMARK  2 active torsions:
REMARK  status: ('A' for Active; 'I' for Inactive)
REMARK    1  A    between atoms: N_1  and  C_4
REMARK    2  A    between atoms: C_4  and  C_5
REMARK                            x       y       z     vdW  Elec       q    Type
REMARK                         _______ _______ _______ _____ _____    ______ ____
ROOT
ATOM      1  N   UNL     1      -5.454  15.630   1.915  0.00  0.00    -0.354 N 
ATOM      2  N   UNL     1      -7.434  14.921   2.883  0.00  0.00    -0.372 N 
ATOM      3  N   UNL     1      -7.187  17.142   2.361  0.00  0.00    -0.372 N 
ATOM      4  C   UNL     1      -6.679  15.905   2.380  0.00  0.00    +0.166 C 
ATOM      5  H   UNL     1      -5.115  14.677   1.985  0.00  0.00    +0.163 HD
ATOM      6  H   UNL     1      -8.364  15.098   3.239  0.00  0.00    +0.159 HD
ATOM      7  H   UNL     1      -7.111  13.962   2.910  0.00  0.00    +0.159 HD
ATOM      8  H   UNL     1      -6.666  17.930   2.000  0.00  0.00    +0.159 HD
ATOM      9  H   UNL     1      -8.112  17.341   2.723  0.00  0.00    +0.159 HD
ENDROOT
BRANCH   1  10
ATOM     10  C   UNL     1      -4.572  16.619   1.297  0.00  0.00    +0.151 C 
BRANCH  10  11
ATOM     11  C   UNL     1      -3.804  17.333   2.375  0.00  0.00    -0.028 A 
ATOM     12  C   UNL     1      -3.830  18.733   2.460  0.00  0.00    +0.005 A 
ATOM     13  C   UNL     1      -3.053  16.615   3.319  0.00  0.00    +0.005 A 
ATOM     14  C   UNL     1      -3.141  19.395   3.479  0.00  0.00    +0.000 A 
ATOM     15  C   UNL     1      -2.366  17.280   4.334  0.00  0.00    +0.000 A 
ATOM     16  C   UNL     1      -2.412  18.669   4.416  0.00  0.00    +0.000 A 
ENDBRANCH  10  11
ENDBRANCH   1  10
TORSDOF 2
ENDMDL
