MODEL 1
REMARK VINA RESULT:    -5.123      0.000      0.000
REMARK INTER + INTRA:          -5.845
REMARK INTER:                  -5.722
REMARK INTRA:                  -0.123
REMARK UNBOUND:                -0.123
REMARK  Name = 1550473
REMARK  2 active torsions:
REMARK  status: ('A' for Active; 'I' for Inactive)
REMARK    1  A    between atoms: N_1  and  C_4
REMARK    2  A    between atoms: C_4  and  C_5
REMARK                            x       y       z     vdW  Elec       q    Type
REMARK                         _______ _______ _______ _____ _____    ______ ____
ROOT
ATOM      1  N   UNL     1      -8.350  -2.731  -9.285  0.00  0.00    -0.354 N 
ATOM      2  N   UNL     1      -9.305  -2.563  -7.182  0.00  0.00    -0.372 N 
ATOM      3  N   UNL     1      -7.444  -3.878  -7.453  0.00  0.00    -0.372 N 
ATOM      4  C   UNL     1      -8.358  -3.061  -7.987  0.00  0.00    +0.166 C 
ATOM      5  H   UNL     1      -9.088  -2.131  -9.634  0.00  0.00    +0.163 HD
ATOM      6  H   UNL     1      -9.334  -2.791  -6.197  0.00  0.00    +0.159 HD
ATOM      7  H   UNL     1     -10.014  -1.927  -7.524  0.00  0.00    +0.159 HD
ATOM      8  H   UNL     1      -6.707  -4.292  -8.008  0.00  0.00    +0.159 HD
ATOM      9  H   UNL     1      -7.464  -4.127  -6.472  0.00  0.00    +0.159 HD
ENDROOT
BRANCH   1  10
ATOM     10  C   UNL     1      -7.331  -3.176 -10.235  0.00  0.00    +0.151 C 
BRANCH  10  11
ATOM     11  C   UNL     1      -7.532  -2.459 -11.542  0.00  0.00    -0.028 A 
ATOM     12  C   UNL     1      -6.692  -2.720 -12.634  0.00  0.00    +0.005 A 
ATOM     13  C   UNL     1      -8.564  -1.520 -11.696  0.00  0.00    +0.005 A 
ATOM     14  C   UNL     1      -6.896  -2.077 -13.857  0.00  0.00    +0.000 A 
ATOM     15  C   UNL     1      -8.764  -0.879 -12.918  0.00  0.00    +0.000 A 
ATOM     16  C   UNL     1      -7.932  -1.160 -13.999  0.00  0.00    +0.000 A 
ENDBRANCH  10  11
ENDBRANCH   1  10
TORSDOF 2
ENDMDL
MODEL 2
REMARK VINA RESULT:    -5.013      1.655      1.943
REMARK INTER + INTRA:          -5.723
REMARK INTER:                  -5.550
REMARK INTRA:                  -0.173
REMARK UNBOUND:                -0.123
REMARK  Name = 1550473
REMARK  2 active torsions:
REMARK  status: ('A' for Active; 'I' for Inactive)
REMARK    1  A    between atoms: N_1  and  C_4
REMARK    2  A    between atoms: C_4  and  C_5
REMARK                            x       y       z     vdW  Elec       q    Type
REMARK                         _______ _______ _______ _____ _____    ______ ____
ROOT
ATOM      1  N   UNL     1      -7.335  -1.687  -7.935  0.00  0.00    -0.354 N 
ATOM      2  N   UNL     1      -9.240  -2.389  -6.821  0.00  0.00    -0.372 N 
ATOM      3  N   UNL     1      -7.728  -3.962  -7.531  0.00  0.00    -0.372 N 
ATOM      4  C   UNL     1      -8.087  -2.677  -7.437  0.00  0.00    +0.166 C 
ATOM      5  H   UNL     1      -7.678  -0.737  -7.858  0.00  0.00    +0.163 HD
ATOM      6  H   UNL     1      -9.827  -3.115  -6.432  0.00  0.00    +0.159 HD
ATOM      7  H   UNL     1      -9.558  -1.435  -6.705  0.00  0.00    +0.159 HD
ATOM      8  H   UNL     1      -6.872  -4.246  -7.989  0.00  0.00    +0.159 HD
ATOM      9  H   UNL     1      -8.307  -4.703  -7.158  0.00  0.00    +0.159 HD
ENDROOT
BRANCH   1  10
ATOM     10  C   UNL     1      -6.037  -1.890  -8.576  0.00  0.00    +0.151 C 
BRANCH  10  11
ATOM     11  C   UNL     1      -6.195  -1.741 -10.064  0.00  0.00    -0.028 A 
ATOM     12  C   UNL     1      -6.580  -2.835 -10.853  0.00  0.00    +0.005 A 
ATOM     13  C   UNL     1      -5.968  -0.506 -10.691  0.00  0.00    +0.005 A 
ATOM     14  C   UNL     1      -6.756  -2.689 -12.231  0.00  0.00    +0.000 A 
ATOM     15  C   UNL     1      -6.144  -0.365 -12.068  0.00  0.00    +0.000 A 
ATOM     16  C   UNL     1      -6.541  -1.456 -12.837  0.00  0.00    +0.000 A 
ENDBRANCH  10  11
ENDBRANCH   1  10
TORSDOF 2
ENDMDL
MODEL 3
REMARK VINA RESULT:    -4.865      1.500      2.169
REMARK INTER + INTRA:          -5.557
REMARK INTER:                  -5.395
REMARK INTRA:                  -0.162
REMARK UNBOUND:                -0.123
REMARK  Name = 1550473
REMARK  2 active torsions:
REMARK  status: ('A' for Active; 'I' for Inactive)
REMARK    1  A    between atoms: N_1  and  C_4
REMARK    2  A    between atoms: C_4  and  C_5
REMARK                            x       y       z     vdW  Elec       q    Type
REMARK                         _______ _______ _______ _____ _____    ______ ____
ROOT
ATOM      1  N   UNL     1      -7.292  -2.926 -10.400  0.00  0.00    -0.354 N 
ATOM      2  N   UNL     1      -6.639  -2.929  -8.178  0.00  0.00    -0.372 N 
ATOM      3  N   UNL     1      -8.101  -1.316  -8.902  0.00  0.00    -0.372 N 
ATOM      4  C   UNL     1      -7.350  -2.388  -9.174  0.00  0.00    +0.166 C 
ATOM      5  H   UNL     1      -6.680  -3.720 -10.549  0.00  0.00    +0.163 HD
ATOM      6  H   UNL     1      -6.665  -2.547  -7.242  0.00  0.00    +0.159 HD
ATOM      7  H   UNL     1      -6.064  -3.751  -8.319  0.00  0.00    +0.159 HD
ATOM      8  H   UNL     1      -8.656  -0.857  -9.611  0.00  0.00    +0.159 HD
ATOM      9  H   UNL     1      -8.131  -0.912  -7.974  0.00  0.00    +0.159 HD
ENDROOT
BRANCH   1  10
ATOM     10  C   UNL     1      -8.068  -2.445 -11.541  0.00  0.00    +0.151 C 
BRANCH  10  11
ATOM     11  C   UNL     1      -7.126  -1.940 -12.599  0.00  0.00    -0.028 A 
ATOM     12  C   UNL     1      -6.755  -2.761 -13.674  0.00  0.00    +0.005 A 
ATOM     13  C   UNL     1      -6.605  -0.638 -12.534  0.00  0.00    +0.005 A 
ATOM     14  C   UNL     1      -5.904  -2.281 -14.672  0.00  0.00    +0.000 A 
ATOM     15  C   UNL     1      -5.754  -0.164 -13.532  0.00  0.00    +0.000 A 
ATOM     16  C   UNL     1      -5.406  -0.984 -14.602  0.00  0.00    +0.000 A 
ENDBRANCH  10  11
ENDBRANCH   1  10
TORSDOF 2
ENDMDL
MODEL 4
REMARK VINA RESULT:    -4.701     19.434     20.815
REMARK INTER + INTRA:          -5.374
REMARK INTER:                  -5.253
REMARK INTRA:                  -0.121
REMARK UNBOUND:                -0.123
REMARK  Name = 1550473
REMARK  2 active torsions:
REMARK  status: ('A' for Active; 'I' for Inactive)
REMARK    1  A    between atoms: N_1  and  C_4
REMARK    2  A    between atoms: C_4  and  C_5
REMARK                            x       y       z     vdW  Elec       q    Type
REMARK                         _______ _______ _______ _____ _____    ______ ____
ROOT
ATOM      1  N   UNL     1     -11.987  -9.110   7.870  0.00  0.00    -0.354 N 
ATOM      2  N   UNL     1      -9.699  -9.304   7.567  0.00  0.00    -0.372 N 
ATOM      3  N   UNL     1     -10.764  -7.422   6.800  0.00  0.00    -0.372 N 
ATOM      4  C   UNL     1     -10.832  -8.608   7.413  0.00  0.00    +0.166 C 
ATOM      5  H   UNL     1     -11.977 -10.028   8.299  0.00  0.00    +0.163 HD
ATOM      6  H   UNL     1      -8.812  -8.949   7.236  0.00  0.00    +0.159 HD
ATOM      7  H   UNL     1      -9.684 -10.201   8.037  0.00  0.00    +0.159 HD
ATOM      8  H   UNL     1     -11.584  -6.850   6.647  0.00  0.00    +0.159 HD
ATOM      9  H   UNL     1      -9.887  -7.055   6.451  0.00  0.00    +0.159 HD
ENDROOT
BRANCH   1  10
ATOM     10  C   UNL     1     -13.268  -8.408   7.801  0.00  0.00    +0.151 C 
BRANCH  10  11
ATOM     11  C   UNL     1     -14.369  -9.415   7.612  0.00  0.00    -0.028 A 
ATOM     12  C   UNL     1     -14.256 -10.704   8.152  0.00  0.00    +0.005 A 
ATOM     13  C   UNL     1     -15.532  -9.083   6.899  0.00  0.00    +0.005 A 
ATOM     14  C   UNL     1     -15.291 -11.630   8.003  0.00  0.00    +0.000 A 
ATOM     15  C   UNL     1     -16.563 -10.010   6.752  0.00  0.00    +0.000 A 
ATOM     16  C   UNL     1     -16.444 -11.282   7.306  0.00  0.00    +0.000 A 
ENDBRANCH  10  11
ENDBRANCH   1  10
TORSDOF 2
ENDMDL
MODEL 5
REMARK VINA RESULT:    -4.677     27.338     28.201
REMARK INTER + INTRA:          -5.347
REMARK INTER:                  -5.222
REMARK INTRA:                  -0.125
REMARK UNBOUND:                -0.123
REMARK  Name = 1550473
REMARK  2 active torsions:
REMARK  status: ('A' for Active; 'I' for Inactive)
REMARK    1  A    between atoms: N_1  and  C_4
REMARK    2  A    between atoms: C_4  and  C_5
REMARK                            x       y       z     vdW  Elec       q    Type
REMARK                         _______ _______ _______ _____ _____    ______ ____
ROOT
ATOM      1  N   UNL     1       6.886  17.070   1.136  0.00  0.00    -0.354 N 
ATOM      2  N   UNL     1       8.199  17.814  -0.621  0.00  0.00    -0.372 N 
ATOM      3  N   UNL     1       5.953  17.498  -0.970  0.00  0.00    -0.372 N 
ATOM      4  C   UNL     1       7.002  17.456  -0.141  0.00  0.00    +0.166 C 
ATOM      5  H   UNL     1       7.725  17.031   1.705  0.00  0.00    +0.163 HD
ATOM      6  H   UNL     1       8.316  18.113  -1.580  0.00  0.00    +0.159 HD
ATOM      7  H   UNL     1       9.027  17.818  -0.038  0.00  0.00    +0.159 HD
ATOM      8  H   UNL     1       5.024  17.234  -0.672  0.00  0.00    +0.159 HD
ATOM      9  H   UNL     1       6.052  17.782  -1.937  0.00  0.00    +0.159 HD
ENDROOT
BRANCH   1  10
ATOM     10  C   UNL     1       5.619  16.712   1.771  0.00  0.00    +0.151 C 
BRANCH  10  11
ATOM     11  C   UNL     1       5.681  17.072   3.230  0.00  0.00    -0.028 A 
ATOM     12  C   UNL     1       5.169  16.200   4.201  0.00  0.00    +0.005 A 
ATOM     13  C   UNL     1       6.256  18.282   3.648  0.00  0.00    +0.005 A 
ATOM     14  C   UNL     1       5.253  16.520   5.558  0.00  0.00    +0.000 A 
ATOM     15  C   UNL     1       6.338  18.599   5.003  0.00  0.00    +0.000 A 
ATOM     16  C   UNL     1       5.838  17.717   5.958  0.00  0.00    +0.000 A 
ENDBRANCH  10  11
ENDBRANCH   1  10
TORSDOF 2
ENDMDL
MODEL 6
REMARK VINA RESULT:    -4.599      1.672      2.209
REMARK INTER + INTRA:          -5.260
REMARK INTER:                  -5.154
REMARK INTRA:                  -0.106
REMARK UNBOUND:                -0.123
REMARK  Name = 1550473
REMARK  2 active torsions:
REMARK  status: ('A' for Active; 'I' for Inactive)
REMARK    1  A    between atoms: N_1  and  C_4
REMARK    2  A    between atoms: C_4  and  C_5
REMARK                            x       y       z     vdW  Elec       q    Type
REMARK                         _______ _______ _______ _____ _____    ______ ____
ROOT
ATOM      1  N   UNL     1      -8.131  -1.746 -10.287  0.00  0.00    -0.354 N 
ATOM      2  N   UNL     1      -8.242  -0.572  -8.294  0.00  0.00    -0.372 N 
ATOM      3  N   UNL     1      -6.826  -2.371  -8.444  0.00  0.00    -0.372 N 
ATOM      4  C   UNL     1      -7.731  -1.573  -9.020  0.00  0.00    +0.166 C 
ATOM      5  H   UNL     1      -8.842  -1.125 -10.656  0.00  0.00    +0.163 HD
ATOM      6  H   UNL     1      -7.957  -0.415  -7.336  0.00  0.00    +0.159 HD
ATOM      7  H   UNL     1      -8.919   0.075  -8.680  0.00  0.00    +0.159 HD
ATOM      8  H   UNL     1      -6.406  -3.148  -8.936  0.00  0.00    +0.159 HD
ATOM      9  H   UNL     1      -6.536  -2.237  -7.483  0.00  0.00    +0.159 HD
ENDROOT
BRANCH   1  10
ATOM     10  C   UNL     1      -7.596  -2.772 -11.181  0.00  0.00    +0.151 C 
BRANCH  10  11
ATOM     11  C   UNL     1      -6.905  -2.104 -12.337  0.00  0.00    -0.028 A 
ATOM     12  C   UNL     1      -6.472  -0.774 -12.236  0.00  0.00    +0.005 A 
ATOM     13  C   UNL     1      -6.675  -2.798 -13.535  0.00  0.00    +0.005 A 
ATOM     14  C   UNL     1      -5.803  -0.163 -13.300  0.00  0.00    +0.000 A 
ATOM     15  C   UNL     1      -6.008  -2.184 -14.595  0.00  0.00    +0.000 A 
ATOM     16  C   UNL     1      -5.570  -0.867 -14.476  0.00  0.00    +0.000 A 
ENDBRANCH  10  11
ENDBRANCH   1  10
TORSDOF 2
ENDMDL
MODEL 7
REMARK VINA RESULT:    -4.376     28.486     29.422
REMARK INTER + INTRA:          -5.011
REMARK INTER:                  -4.866
REMARK INTRA:                  -0.146
REMARK UNBOUND:                -0.123
REMARK  Name = 1550473
REMARK  2 active torsions:
REMARK  status: ('A' for Active; 'I' for Inactive)
REMARK    1  A    between atoms: N_1  and  C_4
REMARK    2  A    between atoms: C_4  and  C_5
REMARK                            x       y       z     vdW  Elec       q    Type
REMARK                         _______ _______ _______ _____ _____    ______ ____
ROOT
ATOM      1  N   UNL     1       6.447  18.149   2.569  0.00  0.00    -0.354 N 
ATOM      2  N   UNL     1       7.621  16.658   1.242  0.00  0.00    -0.372 N 
ATOM      3  N   UNL     1       5.392  16.278   1.632  0.00  0.00    -0.372 N 
ATOM      4  C   UNL     1       6.476  17.037   1.823  0.00  0.00    +0.166 C 
ATOM      5  H   UNL     1       7.310  18.664   2.699  0.00  0.00    +0.163 HD
ATOM      6  H   UNL     1       7.673  15.825   0.671  0.00  0.00    +0.159 HD
ATOM      7  H   UNL     1       8.471  17.199   1.336  0.00  0.00    +0.159 HD
ATOM      8  H   UNL     1       4.499  16.506   2.048  0.00  0.00    +0.159 HD
ATOM      9  H   UNL     1       5.427  15.434   1.074  0.00  0.00    +0.159 HD
ENDROOT
BRANCH   1  10
ATOM     10  C   UNL     1       5.239  18.678   3.201  0.00  0.00    +0.151 C 
BRANCH  10  11
ATOM     11  C   UNL     1       5.469  18.789   4.683  0.00  0.00    -0.028 A 
ATOM     12  C   UNL     1       6.769  18.912   5.194  0.00  0.00    +0.005 A 
ATOM     13  C   UNL     1       4.390  18.779   5.580  0.00  0.00    +0.005 A 
ATOM     14  C   UNL     1       6.981  19.045   6.569  0.00  0.00    +0.000 A 
ATOM     15  C   UNL     1       4.606  18.911   6.952  0.00  0.00    +0.000 A 
ATOM     16  C   UNL     1       5.901  19.047   7.445  0.00  0.00    +0.000 A 
ENDBRANCH  10  11
ENDBRANCH   1  10
TORSDOF 2
ENDMDL
MODEL 8
REMARK VINA RESULT:    -4.367     20.668     21.780
REMARK INTER + INTRA:          -5.001
REMARK INTER:                  -4.829
REMARK INTRA:                  -0.172
REMARK UNBOUND:                -0.123
REMARK  Name = 1550473
REMARK  2 active torsions:
REMARK  status: ('A' for Active; 'I' for Inactive)
REMARK    1  A    between atoms: N_1  and  C_4
REMARK    2  A    between atoms: C_4  and  C_5
REMARK                            x       y       z     vdW  Elec       q    Type
REMARK                         _______ _______ _______ _____ _____    ______ ____
ROOT
ATOM      1  N   UNL     1      -0.317 -15.619   2.463  0.00  0.00    -0.354 N 
ATOM      2  N   UNL     1      -2.280 -16.735   1.945  0.00  0.00    -0.372 N 
ATOM      3  N   UNL     1      -0.679 -17.820   3.181  0.00  0.00    -0.372 N 
ATOM      4  C   UNL     1      -1.078 -16.719   2.534  0.00  0.00    +0.166 C 
ATOM      5  H   UNL     1      -0.664 -14.828   1.932  0.00  0.00    +0.163 HD
ATOM      6  H   UNL     1      -2.877 -17.550   1.985  0.00  0.00    +0.159 HD
ATOM      7  H   UNL     1      -2.643 -15.927   1.454  0.00  0.00    +0.159 HD
ATOM      8  H   UNL     1       0.219 -17.875   3.641  0.00  0.00    +0.159 HD
ATOM      9  H   UNL     1      -1.258 -18.649   3.222  0.00  0.00    +0.159 HD
ENDROOT
BRANCH   1  10
ATOM     10  C   UNL     1       0.984 -15.480   3.115  0.00  0.00    +0.151 C 
BRANCH  10  11
ATOM     11  C   UNL     1       0.799 -14.791   4.439  0.00  0.00    -0.028 A 
ATOM     12  C   UNL     1      -0.011 -13.651   4.541  0.00  0.00    +0.005 A 
ATOM     13  C   UNL     1       1.426 -15.278   5.596  0.00  0.00    +0.005 A 
ATOM     14  C   UNL     1      -0.207 -13.028   5.776  0.00  0.00    +0.000 A 
ATOM     15  C   UNL     1       1.228 -14.653   6.827  0.00  0.00    +0.000 A 
ATOM     16  C   UNL     1       0.409 -13.529   6.917  0.00  0.00    +0.000 A 
ENDBRANCH  10  11
ENDBRANCH   1  10
TORSDOF 2
ENDMDL
MODEL 9
REMARK VINA RESULT:    -4.311     21.872     23.361
REMARK INTER + INTRA:          -4.938
REMARK INTER:                  -4.823
REMARK INTRA:                  -0.115
REMARK UNBOUND:                -0.123
REMARK  Name = 1550473
REMARK  2 active torsions:
REMARK  status: ('A' for Active; 'I' for Inactive)
REMARK    1  A    between atoms: N_1  and  C_4
REMARK    2  A    between atoms: C_4  and  C_5
REMARK                            x       y       z     vdW  Elec       q    Type
REMARK                         _______ _______ _______ _____ _____    ______ ____
ROOT
ATOM      1  N   UNL     1       8.821 -11.448   5.437  0.00  0.00    -0.354 N 
ATOM      2  N   UNL     1       9.402 -10.937   7.620  0.00  0.00    -0.372 N 
ATOM      3  N   UNL     1       7.196 -11.326   7.122  0.00  0.00    -0.372 N 
ATOM      4  C   UNL     1       8.466 -11.241   6.713  0.00  0.00    +0.166 C 
ATOM      5  H   UNL     1       9.796 -11.338   5.185  0.00  0.00    +0.163 HD
ATOM      6  H   UNL     1       9.165 -10.778   8.591  0.00  0.00    +0.159 HD
ATOM      7  H   UNL     1      10.382 -10.873   7.374  0.00  0.00    +0.159 HD
ATOM      8  H   UNL     1       6.442 -11.546   6.485  0.00  0.00    +0.159 HD
ATOM      9  H   UNL     1       6.937 -11.159   8.086  0.00  0.00    +0.159 HD
ENDROOT
BRANCH   1  10
ATOM     10  C   UNL     1       7.887 -11.837   4.382  0.00  0.00    +0.151 C 
BRANCH  10  11
ATOM     11  C   UNL     1       7.805 -10.730   3.367  0.00  0.00    -0.028 A 
ATOM     12  C   UNL     1       8.433  -9.499   3.604  0.00  0.00    +0.005 A 
ATOM     13  C   UNL     1       7.105 -10.909   2.164  0.00  0.00    +0.005 A 
ATOM     14  C   UNL     1       8.383  -8.481   2.648  0.00  0.00    +0.000 A 
ATOM     15  C   UNL     1       7.057  -9.890   1.212  0.00  0.00    +0.000 A 
ATOM     16  C   UNL     1       7.698  -8.677   1.454  0.00  0.00    +0.000 A 
ENDBRANCH  10  11
ENDBRANCH   1  10
TORSDOF 2
ENDMDL
