MODEL 1
REMARK VINA RESULT:    -5.746      0.000      0.000
REMARK INTER + INTRA:          -6.559
REMARK INTER:                  -6.418
REMARK INTRA:                  -0.142
REMARK UNBOUND:                -0.142
REMARK  Name = 1550473
REMARK  2 active torsions:
REMARK  status: ('A' for Active; 'I' for Inactive)
REMARK    1  A    between atoms: N_1  and  C_4
REMARK    2  A    between atoms: C_4  and  C_5
REMARK                            x       y       z     vdW  Elec       q    Type
REMARK                         _______ _______ _______ _____ _____    ______ ____
ROOT
ATOM      1  N   UNL     1      -0.224 -10.702   0.219  0.00  0.00    -0.354 N 
ATOM      2  N   UNL     1      -0.204  -8.553   1.082  0.00  0.00    -0.372 N 
ATOM      3  N   UNL     1       1.013  -9.000  -0.811  0.00  0.00    -0.372 N 
ATOM      4  C   UNL     1       0.197  -9.432   0.156  0.00  0.00    +0.166 C 
ATOM      5  H   UNL     1      -0.818 -10.974   0.994  0.00  0.00    +0.163 HD
ATOM      6  H   UNL     1       0.095  -7.587   1.058  0.00  0.00    +0.159 HD
ATOM      7  H   UNL     1      -0.834  -8.817   1.830  0.00  0.00    +0.159 HD
ATOM      8  H   UNL     1       1.357  -9.615  -1.537  0.00  0.00    +0.159 HD
ATOM      9  H   UNL     1       1.333  -8.040  -0.845  0.00  0.00    +0.159 HD
ENDROOT
BRANCH   1  10
ATOM     10  C   UNL     1       0.110 -11.725  -0.770  0.00  0.00    +0.151 C 
BRANCH  10  11
ATOM     11  C   UNL     1      -1.148 -12.436  -1.187  0.00  0.00    -0.028 A 
ATOM     12  C   UNL     1      -1.124 -13.372  -2.231  0.00  0.00    +0.005 A 
ATOM     13  C   UNL     1      -2.366 -12.181  -0.537  0.00  0.00    +0.005 A 
ATOM     14  C   UNL     1      -2.287 -14.054  -2.598  0.00  0.00    +0.000 A 
ATOM     15  C   UNL     1      -3.524 -12.864  -0.908  0.00  0.00    +0.000 A 
ATOM     16  C   UNL     1      -3.484 -13.802  -1.936  0.00  0.00    +0.000 A 
ENDBRANCH  10  11
ENDBRANCH   1  10
TORSDOF 2
ENDMDL
MODEL 2
REMARK VINA RESULT:    -5.544      1.873      2.944
REMARK INTER + INTRA:          -6.334
REMARK INTER:                  -6.198
REMARK INTRA:                  -0.137
REMARK UNBOUND:                -0.142
REMARK  Name = 1550473
REMARK  2 active torsions:
REMARK  status: ('A' for Active; 'I' for Inactive)
REMARK    1  A    between atoms: N_1  and  C_4
REMARK    2  A    between atoms: C_4  and  C_5
REMARK                            x       y       z     vdW  Elec       q    Type
REMARK                         _______ _______ _______ _____ _____    ______ ____
ROOT
ATOM      1  N   UNL     1      -2.479 -12.072   0.009  0.00  0.00    -0.354 N 
ATOM      2  N   UNL     1      -1.501 -10.121   0.785  0.00  0.00    -0.372 N 
ATOM      3  N   UNL     1      -3.274  -9.973  -0.665  0.00  0.00    -0.372 N 
ATOM      4  C   UNL     1      -2.426 -10.734   0.036  0.00  0.00    +0.166 C 
ATOM      5  H   UNL     1      -1.789 -12.591   0.540  0.00  0.00    +0.163 HD
ATOM      6  H   UNL     1      -1.440  -9.112   0.827  0.00  0.00    +0.159 HD
ATOM      7  H   UNL     1      -0.842 -10.642   1.350  0.00  0.00    +0.159 HD
ATOM      8  H   UNL     1      -3.991 -10.374  -1.254  0.00  0.00    +0.159 HD
ATOM      9  H   UNL     1      -3.220  -8.962  -0.645  0.00  0.00    +0.159 HD
ENDROOT
BRANCH   1  10
ATOM     10  C   UNL     1      -3.481 -12.836  -0.731  0.00  0.00    +0.151 C 
BRANCH  10  11
ATOM     11  C   UNL     1      -2.783 -13.797  -1.654  0.00  0.00    -0.028 A 
ATOM     12  C   UNL     1      -1.399 -13.706  -1.862  0.00  0.00    +0.005 A 
ATOM     13  C   UNL     1      -3.500 -14.804  -2.319  0.00  0.00    +0.005 A 
ATOM     14  C   UNL     1      -0.746 -14.616  -2.696  0.00  0.00    +0.000 A 
ATOM     15  C   UNL     1      -2.844 -15.711  -3.151  0.00  0.00    +0.000 A 
ATOM     16  C   UNL     1      -1.467 -15.618  -3.338  0.00  0.00    +0.000 A 
ENDBRANCH  10  11
ENDBRANCH   1  10
TORSDOF 2
ENDMDL
MODEL 3
REMARK VINA RESULT:    -5.453      2.103      3.194
REMARK INTER + INTRA:          -6.233
REMARK INTER:                  -6.103
REMARK INTRA:                  -0.130
REMARK UNBOUND:                -0.142
REMARK  Name = 1550473
REMARK  2 active torsions:
REMARK  status: ('A' for Active; 'I' for Inactive)
REMARK    1  A    between atoms: N_1  and  C_4
REMARK    2  A    between atoms: C_4  and  C_5
REMARK                            x       y       z     vdW  Elec       q    Type
REMARK                         _______ _______ _______ _____ _____    ______ ____
ROOT
ATOM      1  N   UNL     1       1.124 -10.527   0.555  0.00  0.00    -0.354 N 
ATOM      2  N   UNL     1      -0.402  -8.858   1.051  0.00  0.00    -0.372 N 
ATOM      3  N   UNL     1       1.125  -8.502  -0.624  0.00  0.00    -0.372 N 
ATOM      4  C   UNL     1       0.627  -9.305   0.323  0.00  0.00    +0.166 C 
ATOM      5  H   UNL     1       0.722 -11.075   1.307  0.00  0.00    +0.163 HD
ATOM      6  H   UNL     1      -0.801  -7.941   0.896  0.00  0.00    +0.159 HD
ATOM      7  H   UNL     1      -0.832  -9.425   1.771  0.00  0.00    +0.159 HD
ATOM      8  H   UNL     1       1.906  -8.778  -1.204  0.00  0.00    +0.159 HD
ATOM      9  H   UNL     1       0.747  -7.577  -0.786  0.00  0.00    +0.159 HD
ENDROOT
BRANCH   1  10
ATOM     10  C   UNL     1       2.209 -11.130  -0.218  0.00  0.00    +0.151 C 
BRANCH  10  11
ATOM     11  C   UNL     1       1.754 -12.462  -0.745  0.00  0.00    -0.028 A 
ATOM     12  C   UNL     1       0.391 -12.719  -0.952  0.00  0.00    +0.005 A 
ATOM     13  C   UNL     1       2.682 -13.471  -1.047  0.00  0.00    +0.005 A 
ATOM     14  C   UNL     1      -0.030 -13.946  -1.470  0.00  0.00    +0.000 A 
ATOM     15  C   UNL     1       2.259 -14.695  -1.564  0.00  0.00    +0.000 A 
ATOM     16  C   UNL     1       0.903 -14.931  -1.778  0.00  0.00    +0.000 A 
ENDBRANCH  10  11
ENDBRANCH   1  10
TORSDOF 2
ENDMDL
MODEL 4
REMARK VINA RESULT:    -5.328      2.093      3.334
REMARK INTER + INTRA:          -6.093
REMARK INTER:                  -5.954
REMARK INTRA:                  -0.139
REMARK UNBOUND:                -0.142
REMARK  Name = 1550473
REMARK  2 active torsions:
REMARK  status: ('A' for Active; 'I' for Inactive)
REMARK    1  A    between atoms: N_1  and  C_4
REMARK    2  A    between atoms: C_4  and  C_5
REMARK                            x       y       z     vdW  Elec       q    Type
REMARK                         _______ _______ _______ _____ _____    ______ ____
ROOT
ATOM      1  N   UNL     1       0.152 -10.651  -0.840  0.00  0.00    -0.354 N 
ATOM      2  N   UNL     1       0.605  -8.655   0.244  0.00  0.00    -0.372 N 
ATOM      3  N   UNL     1      -1.164  -9.929   0.959  0.00  0.00    -0.372 N 
ATOM      4  C   UNL     1      -0.141  -9.759   0.115  0.00  0.00    +0.166 C 
ATOM      5  H   UNL     1       0.923 -10.449  -1.467  0.00  0.00    +0.163 HD
ATOM      6  H   UNL     1       0.410  -7.966   0.958  0.00  0.00    +0.159 HD
ATOM      7  H   UNL     1       1.403  -8.478  -0.354  0.00  0.00    +0.159 HD
ATOM      8  H   UNL     1      -1.770 -10.738   0.910  0.00  0.00    +0.159 HD
ATOM      9  H   UNL     1      -1.383  -9.245   1.672  0.00  0.00    +0.159 HD
ENDROOT
BRANCH   1  10
ATOM     10  C   UNL     1      -0.564 -11.911  -1.031  0.00  0.00    +0.151 C 
BRANCH  10  11
ATOM     11  C   UNL     1       0.433 -13.020  -1.220  0.00  0.00    -0.028 A 
ATOM     12  C   UNL     1       0.051 -14.226  -1.825  0.00  0.00    +0.005 A 
ATOM     13  C   UNL     1       1.765 -12.868  -0.802  0.00  0.00    +0.005 A 
ATOM     14  C   UNL     1       0.985 -15.245  -2.029  0.00  0.00    +0.000 A 
ATOM     15  C   UNL     1       2.693 -13.889  -1.006  0.00  0.00    +0.000 A 
ATOM     16  C   UNL     1       2.304 -15.076  -1.622  0.00  0.00    +0.000 A 
ENDBRANCH  10  11
ENDBRANCH   1  10
TORSDOF 2
ENDMDL
MODEL 5
REMARK VINA RESULT:    -5.197      1.035      2.020
REMARK INTER + INTRA:          -5.946
REMARK INTER:                  -5.886
REMARK INTRA:                  -0.060
REMARK UNBOUND:                -0.142
REMARK  Name = 1550473
REMARK  2 active torsions:
REMARK  status: ('A' for Active; 'I' for Inactive)
REMARK    1  A    between atoms: N_1  and  C_4
REMARK    2  A    between atoms: C_4  and  C_5
REMARK                            x       y       z     vdW  Elec       q    Type
REMARK                         _______ _______ _______ _____ _____    ______ ____
ROOT
ATOM      1  N   UNL     1      -1.223 -10.279  -0.659  0.00  0.00    -0.354 N 
ATOM      2  N   UNL     1       0.841  -9.239  -0.809  0.00  0.00    -0.372 N 
ATOM      3  N   UNL     1       0.457 -10.698   0.920  0.00  0.00    -0.372 N 
ATOM      4  C   UNL     1       0.012 -10.080  -0.179  0.00  0.00    +0.166 C 
ATOM      5  H   UNL     1      -1.511  -9.757  -1.479  0.00  0.00    +0.163 HD
ATOM      6  H   UNL     1       1.780  -9.072  -0.472  0.00  0.00    +0.159 HD
ATOM      7  H   UNL     1       0.567  -8.754  -1.654  0.00  0.00    +0.159 HD
ATOM      8  H   UNL     1      -0.122 -11.340   1.445  0.00  0.00    +0.159 HD
ATOM      9  H   UNL     1       1.389 -10.534   1.279  0.00  0.00    +0.159 HD
ENDROOT
BRANCH   1  10
ATOM     10  C   UNL     1      -2.185 -11.214  -0.079  0.00  0.00    +0.151 C 
BRANCH  10  11
ATOM     11  C   UNL     1      -2.340 -12.393  -0.999  0.00  0.00    -0.028 A 
ATOM     12  C   UNL     1      -3.542 -13.115  -1.035  0.00  0.00    +0.005 A 
ATOM     13  C   UNL     1      -1.290 -12.791  -1.841  0.00  0.00    +0.005 A 
ATOM     14  C   UNL     1      -3.697 -14.192  -1.912  0.00  0.00    +0.000 A 
ATOM     15  C   UNL     1      -1.448 -13.867  -2.714  0.00  0.00    +0.000 A 
ATOM     16  C   UNL     1      -2.653 -14.566  -2.751  0.00  0.00    +0.000 A 
ENDBRANCH  10  11
ENDBRANCH   1  10
TORSDOF 2
ENDMDL
MODEL 6
REMARK VINA RESULT:    -5.016      4.451      6.228
REMARK INTER + INTRA:          -5.744
REMARK INTER:                  -5.642
REMARK INTRA:                  -0.102
REMARK UNBOUND:                -0.142
REMARK  Name = 1550473
REMARK  2 active torsions:
REMARK  status: ('A' for Active; 'I' for Inactive)
REMARK    1  A    between atoms: N_1  and  C_4
REMARK    2  A    between atoms: C_4  and  C_5
REMARK                            x       y       z     vdW  Elec       q    Type
REMARK                         _______ _______ _______ _____ _____    ______ ____
ROOT
ATOM      1  N   UNL     1      -3.271 -15.654  -3.264  0.00  0.00    -0.354 N 
ATOM      2  N   UNL     1      -3.199 -17.398  -4.786  0.00  0.00    -0.372 N 
ATOM      3  N   UNL     1      -3.666 -17.863  -2.588  0.00  0.00    -0.372 N 
ATOM      4  C   UNL     1      -3.379 -16.962  -3.533  0.00  0.00    +0.166 C 
ATOM      5  H   UNL     1      -3.022 -15.026  -4.019  0.00  0.00    +0.163 HD
ATOM      6  H   UNL     1      -3.278 -18.379  -5.020  0.00  0.00    +0.159 HD
ATOM      7  H   UNL     1      -2.996 -16.763  -5.548  0.00  0.00    +0.159 HD
ATOM      8  H   UNL     1      -3.807 -17.599  -1.622  0.00  0.00    +0.159 HD
ATOM      9  H   UNL     1      -3.737 -18.850  -2.801  0.00  0.00    +0.159 HD
ENDROOT
BRANCH   1  10
ATOM     10  C   UNL     1      -3.501 -15.070  -1.944  0.00  0.00    +0.151 C 
BRANCH  10  11
ATOM     11  C   UNL     1      -3.075 -13.627  -1.964  0.00  0.00    -0.028 A 
ATOM     12  C   UNL     1      -3.998 -12.609  -1.683  0.00  0.00    +0.005 A 
ATOM     13  C   UNL     1      -1.750 -13.273  -2.259  0.00  0.00    +0.005 A 
ATOM     14  C   UNL     1      -3.596 -11.271  -1.672  0.00  0.00    +0.000 A 
ATOM     15  C   UNL     1      -1.353 -11.936  -2.248  0.00  0.00    +0.000 A 
ATOM     16  C   UNL     1      -2.276 -10.935  -1.952  0.00  0.00    +0.000 A 
ENDBRANCH  10  11
ENDBRANCH   1  10
TORSDOF 2
ENDMDL
MODEL 7
REMARK VINA RESULT:    -4.940      8.590      9.692
REMARK INTER + INTRA:          -5.659
REMARK INTER:                  -5.507
REMARK INTRA:                  -0.152
REMARK UNBOUND:                -0.142
REMARK  Name = 1550473
REMARK  2 active torsions:
REMARK  status: ('A' for Active; 'I' for Inactive)
REMARK    1  A    between atoms: N_1  and  C_4
REMARK    2  A    between atoms: C_4  and  C_5
REMARK                            x       y       z     vdW  Elec       q    Type
REMARK                         _______ _______ _______ _____ _____    ______ ____
ROOT
ATOM      1  N   UNL     1       6.112 -16.323   4.723  0.00  0.00    -0.354 N 
ATOM      2  N   UNL     1       7.729 -17.093   6.191  0.00  0.00    -0.372 N 
ATOM      3  N   UNL     1       5.892 -18.405   5.777  0.00  0.00    -0.372 N 
ATOM      4  C   UNL     1       6.565 -17.271   5.554  0.00  0.00    +0.166 C 
ATOM      5  H   UNL     1       6.654 -15.473   4.620  0.00  0.00    +0.163 HD
ATOM      6  H   UNL     1       8.098 -17.792   6.821  0.00  0.00    +0.159 HD
ATOM      7  H   UNL     1       8.292 -16.263   6.051  0.00  0.00    +0.159 HD
ATOM      8  H   UNL     1       5.005 -18.597   5.332  0.00  0.00    +0.159 HD
ATOM      9  H   UNL     1       6.240 -19.111   6.414  0.00  0.00    +0.159 HD
ENDROOT
BRANCH   1  10
ATOM     10  C   UNL     1       4.883 -16.442   3.940  0.00  0.00    +0.151 C 
BRANCH  10  11
ATOM     11  C   UNL     1       3.984 -15.280   4.258  0.00  0.00    -0.028 A 
ATOM     12  C   UNL     1       3.670 -14.332   3.273  0.00  0.00    +0.005 A 
ATOM     13  C   UNL     1       3.437 -15.123   5.541  0.00  0.00    +0.005 A 
ATOM     14  C   UNL     1       2.811 -13.268   3.559  0.00  0.00    +0.000 A 
ATOM     15  C   UNL     1       2.580 -14.060   5.823  0.00  0.00    +0.000 A 
ATOM     16  C   UNL     1       2.265 -13.134   4.832  0.00  0.00    +0.000 A 
ENDBRANCH  10  11
ENDBRANCH   1  10
TORSDOF 2
ENDMDL
MODEL 8
REMARK VINA RESULT:    -4.939     24.056     25.583
REMARK INTER + INTRA:          -5.658
REMARK INTER:                  -5.534
REMARK INTRA:                  -0.124
REMARK UNBOUND:                -0.142
REMARK  Name = 1550473
REMARK  2 active torsions:
REMARK  status: ('A' for Active; 'I' for Inactive)
REMARK    1  A    between atoms: N_1  and  C_4
REMARK    2  A    between atoms: C_4  and  C_5
REMARK                            x       y       z     vdW  Elec       q    Type
REMARK                         _______ _______ _______ _____ _____    ______ ____
ROOT
ATOM      1  N   UNL     1       3.512   6.404 -19.688  0.00  0.00    -0.354 N 
ATOM      2  N   UNL     1       3.188   5.248 -21.669  0.00  0.00    -0.372 N 
ATOM      3  N   UNL     1       5.187   6.320 -21.324  0.00  0.00    -0.372 N 
ATOM      4  C   UNL     1       3.967   5.999 -20.881  0.00  0.00    +0.166 C 
ATOM      5  H   UNL     1       2.566   6.152 -19.423  0.00  0.00    +0.163 HD
ATOM      6  H   UNL     1       3.506   4.926 -22.573  0.00  0.00    +0.159 HD
ATOM      7  H   UNL     1       2.261   4.960 -21.382  0.00  0.00    +0.159 HD
ATOM      8  H   UNL     1       5.822   6.889 -20.780  0.00  0.00    +0.159 HD
ATOM      9  H   UNL     1       5.519   6.016 -22.231  0.00  0.00    +0.159 HD
ENDROOT
BRANCH   1  10
ATOM     10  C   UNL     1       4.300   7.179 -18.732  0.00  0.00    +0.151 C 
BRANCH  10  11
ATOM     11  C   UNL     1       4.254   6.499 -17.391  0.00  0.00    -0.028 A 
ATOM     12  C   UNL     1       5.439   6.205 -16.702  0.00  0.00    +0.005 A 
ATOM     13  C   UNL     1       3.028   6.152 -16.803  0.00  0.00    +0.005 A 
ATOM     14  C   UNL     1       5.396   5.600 -15.443  0.00  0.00    +0.000 A 
ATOM     15  C   UNL     1       2.989   5.548 -15.546  0.00  0.00    +0.000 A 
ATOM     16  C   UNL     1       4.173   5.275 -14.866  0.00  0.00    +0.000 A 
ENDBRANCH  10  11
ENDBRANCH   1  10
TORSDOF 2
ENDMDL
MODEL 9
REMARK VINA RESULT:    -4.749      5.322      7.011
REMARK INTER + INTRA:          -5.446
REMARK INTER:                  -5.303
REMARK INTRA:                  -0.143
REMARK UNBOUND:                -0.142
REMARK  Name = 1550473
REMARK  2 active torsions:
REMARK  status: ('A' for Active; 'I' for Inactive)
REMARK    1  A    between atoms: N_1  and  C_4
REMARK    2  A    between atoms: C_4  and  C_5
REMARK                            x       y       z     vdW  Elec       q    Type
REMARK                         _______ _______ _______ _____ _____    ______ ____
ROOT
ATOM      1  N   UNL     1      -2.798 -17.143  -4.440  0.00  0.00    -0.354 N 
ATOM      2  N   UNL     1      -1.722 -18.416  -6.048  0.00  0.00    -0.372 N 
ATOM      3  N   UNL     1      -1.679 -19.120  -3.865  0.00  0.00    -0.372 N 
ATOM      4  C   UNL     1      -2.073 -18.219  -4.771  0.00  0.00    +0.166 C 
ATOM      5  H   UNL     1      -3.040 -16.482  -5.169  0.00  0.00    +0.163 HD
ATOM      6  H   UNL     1      -1.178 -19.220  -6.329  0.00  0.00    +0.159 HD
ATOM      7  H   UNL     1      -2.004 -17.777  -6.782  0.00  0.00    +0.159 HD
ATOM      8  H   UNL     1      -1.905 -19.026  -2.884  0.00  0.00    +0.159 HD
ATOM      9  H   UNL     1      -1.123 -19.926  -4.124  0.00  0.00    +0.159 HD
ENDROOT
BRANCH   1  10
ATOM     10  C   UNL     1      -3.277 -16.865  -3.087  0.00  0.00    +0.151 C 
BRANCH  10  11
ATOM     11  C   UNL     1      -2.899 -15.459  -2.711  0.00  0.00    -0.028 A 
ATOM     12  C   UNL     1      -3.830 -14.612  -2.093  0.00  0.00    +0.005 A 
ATOM     13  C   UNL     1      -1.608 -14.969  -2.965  0.00  0.00    +0.005 A 
ATOM     14  C   UNL     1      -3.470 -13.316  -1.717  0.00  0.00    +0.000 A 
ATOM     15  C   UNL     1      -1.253 -13.674  -2.589  0.00  0.00    +0.000 A 
ATOM     16  C   UNL     1      -2.183 -12.849  -1.962  0.00  0.00    +0.000 A 
ENDBRANCH  10  11
ENDBRANCH   1  10
TORSDOF 2
ENDMDL
