MODEL 1
REMARK VINA RESULT:    -6.176      0.000      0.000
REMARK INTER + INTRA:          -7.028
REMARK INTER:                  -6.898
REMARK INTRA:                  -0.130
REMARK UNBOUND:                -0.130
REMARK  Name = 1550473
REMARK  2 active torsions:
REMARK  status: ('A' for Active; 'I' for Inactive)
REMARK    1  A    between atoms: N_1  and  C_4
REMARK    2  A    between atoms: C_4  and  C_5
REMARK                            x       y       z     vdW  Elec       q    Type
REMARK                         _______ _______ _______ _____ _____    ______ ____
ROOT
ATOM      1  N   UNL     1      -4.267  -5.473  -4.424  0.00  0.00    -0.354 N 
ATOM      2  N   UNL     1      -4.436  -4.879  -2.192  0.00  0.00    -0.372 N 
ATOM      3  N   UNL     1      -6.298  -4.728  -3.524  0.00  0.00    -0.372 N 
ATOM      4  C   UNL     1      -5.002  -5.030  -3.395  0.00  0.00    +0.166 C 
ATOM      5  H   UNL     1      -3.282  -5.656  -4.268  0.00  0.00    +0.163 HD
ATOM      6  H   UNL     1      -4.967  -4.550  -1.396  0.00  0.00    +0.159 HD
ATOM      7  H   UNL     1      -3.463  -5.107  -2.028  0.00  0.00    +0.159 HD
ATOM      8  H   UNL     1      -6.783  -4.814  -4.408  0.00  0.00    +0.159 HD
ATOM      9  H   UNL     1      -6.843  -4.385  -2.743  0.00  0.00    +0.159 HD
ENDROOT
BRANCH   1  10
ATOM     10  C   UNL     1      -4.799  -5.723  -5.762  0.00  0.00    +0.151 C 
BRANCH  10  11
ATOM     11  C   UNL     1      -3.990  -6.808  -6.418  0.00  0.00    -0.028 A 
ATOM     12  C   UNL     1      -2.850  -7.325  -5.788  0.00  0.00    +0.005 A 
ATOM     13  C   UNL     1      -4.363  -7.326  -7.668  0.00  0.00    +0.005 A 
ATOM     14  C   UNL     1      -2.115  -8.354  -6.383  0.00  0.00    +0.000 A 
ATOM     15  C   UNL     1      -3.627  -8.352  -8.259  0.00  0.00    +0.000 A 
ATOM     16  C   UNL     1      -2.504  -8.868  -7.615  0.00  0.00    +0.000 A 
ENDBRANCH  10  11
ENDBRANCH   1  10
TORSDOF 2
ENDMDL
MODEL 2
REMARK VINA RESULT:    -5.715      1.379      2.404
REMARK INTER + INTRA:          -6.513
REMARK INTER:                  -6.357
REMARK INTRA:                  -0.156
REMARK UNBOUND:                -0.130
REMARK  Name = 1550473
REMARK  2 active torsions:
REMARK  status: ('A' for Active; 'I' for Inactive)
REMARK    1  A    between atoms: N_1  and  C_4
REMARK    2  A    between atoms: C_4  and  C_5
REMARK                            x       y       z     vdW  Elec       q    Type
REMARK                         _______ _______ _______ _____ _____    ______ ____
ROOT
ATOM      1  N   UNL     1      -3.954  -7.379  -4.975  0.00  0.00    -0.354 N 
ATOM      2  N   UNL     1      -5.629  -6.626  -3.564  0.00  0.00    -0.372 N 
ATOM      3  N   UNL     1      -4.312  -5.087  -4.642  0.00  0.00    -0.372 N 
ATOM      4  C   UNL     1      -4.619  -6.366  -4.404  0.00  0.00    +0.166 C 
ATOM      5  H   UNL     1      -4.216  -8.326  -4.730  0.00  0.00    +0.163 HD
ATOM      6  H   UNL     1      -6.152  -5.882  -3.121  0.00  0.00    +0.159 HD
ATOM      7  H   UNL     1      -5.919  -7.573  -3.356  0.00  0.00    +0.159 HD
ATOM      8  H   UNL     1      -3.557  -4.824  -5.262  0.00  0.00    +0.159 HD
ATOM      9  H   UNL     1      -4.816  -4.329  -4.199  0.00  0.00    +0.159 HD
ENDROOT
BRANCH   1  10
ATOM     10  C   UNL     1      -2.874  -7.204  -5.945  0.00  0.00    +0.151 C 
BRANCH  10  11
ATOM     11  C   UNL     1      -3.272  -7.847  -7.245  0.00  0.00    -0.028 A 
ATOM     12  C   UNL     1      -4.275  -7.277  -8.043  0.00  0.00    +0.005 A 
ATOM     13  C   UNL     1      -2.647  -9.023  -7.687  0.00  0.00    +0.005 A 
ATOM     14  C   UNL     1      -4.624  -7.857  -9.265  0.00  0.00    +0.000 A 
ATOM     15  C   UNL     1      -2.999  -9.599  -8.907  0.00  0.00    +0.000 A 
ATOM     16  C   UNL     1      -3.986  -9.015  -9.697  0.00  0.00    +0.000 A 
ENDBRANCH  10  11
ENDBRANCH   1  10
TORSDOF 2
ENDMDL
MODEL 3
REMARK VINA RESULT:    -5.715      2.396      4.936
REMARK INTER + INTRA:          -6.513
REMARK INTER:                  -6.379
REMARK INTRA:                  -0.134
REMARK UNBOUND:                -0.130
REMARK  Name = 1550473
REMARK  2 active torsions:
REMARK  status: ('A' for Active; 'I' for Inactive)
REMARK    1  A    between atoms: N_1  and  C_4
REMARK    2  A    between atoms: C_4  and  C_5
REMARK                            x       y       z     vdW  Elec       q    Type
REMARK                         _______ _______ _______ _____ _____    ______ ____
ROOT
ATOM      1  N   UNL     1      -2.862  -6.500  -5.703  0.00  0.00    -0.354 N 
ATOM      2  N   UNL     1      -0.686  -7.272  -5.872  0.00  0.00    -0.372 N 
ATOM      3  N   UNL     1      -2.414  -8.739  -6.229  0.00  0.00    -0.372 N 
ATOM      4  C   UNL     1      -2.003  -7.501  -5.934  0.00  0.00    +0.166 C 
ATOM      5  H   UNL     1      -2.488  -5.591  -5.455  0.00  0.00    +0.163 HD
ATOM      6  H   UNL     1      -0.013  -8.007  -6.044  0.00  0.00    +0.159 HD
ATOM      7  H   UNL     1      -0.314  -6.353  -5.668  0.00  0.00    +0.159 HD
ATOM      8  H   UNL     1      -3.395  -8.978  -6.286  0.00  0.00    +0.159 HD
ATOM      9  H   UNL     1      -1.756  -9.491  -6.394  0.00  0.00    +0.159 HD
ENDROOT
BRANCH   1  10
ATOM     10  C   UNL     1      -4.315  -6.631  -5.799  0.00  0.00    +0.151 C 
BRANCH  10  11
ATOM     11  C   UNL     1      -4.931  -6.252  -4.480  0.00  0.00    -0.028 A 
ATOM     12  C   UNL     1      -4.662  -5.002  -3.902  0.00  0.00    +0.005 A 
ATOM     13  C   UNL     1      -5.787  -7.135  -3.806  0.00  0.00    +0.005 A 
ATOM     14  C   UNL     1      -5.257  -4.638  -2.692  0.00  0.00    +0.000 A 
ATOM     15  C   UNL     1      -6.379  -6.768  -2.597  0.00  0.00    +0.000 A 
ATOM     16  C   UNL     1      -6.115  -5.518  -2.042  0.00  0.00    +0.000 A 
ENDBRANCH  10  11
ENDBRANCH   1  10
TORSDOF 2
ENDMDL
MODEL 4
REMARK VINA RESULT:    -5.714      3.027      4.001
REMARK INTER + INTRA:          -6.512
REMARK INTER:                  -6.338
REMARK INTRA:                  -0.175
REMARK UNBOUND:                -0.130
REMARK  Name = 1550473
REMARK  2 active torsions:
REMARK  status: ('A' for Active; 'I' for Inactive)
REMARK    1  A    between atoms: N_1  and  C_4
REMARK    2  A    between atoms: C_4  and  C_5
REMARK                            x       y       z     vdW  Elec       q    Type
REMARK                         _______ _______ _______ _____ _____    ______ ____
ROOT
ATOM      1  N   UNL     1      -2.240  -8.494  -6.411  0.00  0.00    -0.354 N 
ATOM      2  N   UNL     1      -0.470  -7.200  -5.662  0.00  0.00    -0.372 N 
ATOM      3  N   UNL     1      -2.421  -6.161  -6.279  0.00  0.00    -0.372 N 
ATOM      4  C   UNL     1      -1.724  -7.291  -6.123  0.00  0.00    +0.166 C 
ATOM      5  H   UNL     1      -1.650  -9.310  -6.299  0.00  0.00    +0.163 HD
ATOM      6  H   UNL     1      -0.055  -6.307  -5.433  0.00  0.00    +0.159 HD
ATOM      7  H   UNL     1       0.102  -8.022  -5.508  0.00  0.00    +0.159 HD
ATOM      8  H   UNL     1      -3.370  -6.161  -6.628  0.00  0.00    +0.159 HD
ATOM      9  H   UNL     1      -2.019  -5.256  -6.066  0.00  0.00    +0.159 HD
ENDROOT
BRANCH   1  10
ATOM     10  C   UNL     1      -3.612  -8.706  -6.867  0.00  0.00    +0.151 C 
BRANCH  10  11
ATOM     11  C   UNL     1      -3.614  -8.859  -8.363  0.00  0.00    -0.028 A 
ATOM     12  C   UNL     1      -2.793  -9.813  -8.983  0.00  0.00    +0.005 A 
ATOM     13  C   UNL     1      -4.439  -8.057  -9.167  0.00  0.00    +0.005 A 
ATOM     14  C   UNL     1      -2.816  -9.976 -10.370  0.00  0.00    +0.000 A 
ATOM     15  C   UNL     1      -4.459  -8.223 -10.552  0.00  0.00    +0.000 A 
ATOM     16  C   UNL     1      -3.650  -9.184 -11.153  0.00  0.00    +0.000 A 
ENDBRANCH  10  11
ENDBRANCH   1  10
TORSDOF 2
ENDMDL
MODEL 5
REMARK VINA RESULT:    -5.393      2.478      3.270
REMARK INTER + INTRA:          -6.153
REMARK INTER:                  -6.002
REMARK INTRA:                  -0.151
REMARK UNBOUND:                -0.130
REMARK  Name = 1550473
REMARK  2 active torsions:
REMARK  status: ('A' for Active; 'I' for Inactive)
REMARK    1  A    between atoms: N_1  and  C_4
REMARK    2  A    between atoms: C_4  and  C_5
REMARK                            x       y       z     vdW  Elec       q    Type
REMARK                         _______ _______ _______ _____ _____    ______ ____
ROOT
ATOM      1  N   UNL     1      -2.950  -6.043  -6.255  0.00  0.00    -0.354 N 
ATOM      2  N   UNL     1      -1.845  -4.033  -6.576  0.00  0.00    -0.372 N 
ATOM      3  N   UNL     1      -3.903  -4.335  -7.546  0.00  0.00    -0.372 N 
ATOM      4  C   UNL     1      -2.909  -4.817  -6.792  0.00  0.00    +0.166 C 
ATOM      5  H   UNL     1      -2.150  -6.361  -5.718  0.00  0.00    +0.163 HD
ATOM      6  H   UNL     1      -1.788  -3.102  -6.966  0.00  0.00    +0.159 HD
ATOM      7  H   UNL     1      -1.068  -4.335  -6.002  0.00  0.00    +0.159 HD
ATOM      8  H   UNL     1      -4.731  -4.879  -7.751  0.00  0.00    +0.159 HD
ATOM      9  H   UNL     1      -3.859  -3.410  -7.954  0.00  0.00    +0.159 HD
ENDROOT
BRANCH   1  10
ATOM     10  C   UNL     1      -4.085  -6.955  -6.384  0.00  0.00    +0.151 C 
BRANCH  10  11
ATOM     11  C   UNL     1      -3.864  -7.848  -7.574  0.00  0.00    -0.028 A 
ATOM     12  C   UNL     1      -4.615  -7.671  -8.746  0.00  0.00    +0.005 A 
ATOM     13  C   UNL     1      -2.902  -8.869  -7.539  0.00  0.00    +0.005 A 
ATOM     14  C   UNL     1      -4.390  -8.480  -9.862  0.00  0.00    +0.000 A 
ATOM     15  C   UNL     1      -2.681  -9.675  -8.655  0.00  0.00    +0.000 A 
ATOM     16  C   UNL     1      -3.424  -9.479  -9.817  0.00  0.00    +0.000 A 
ENDBRANCH  10  11
ENDBRANCH   1  10
TORSDOF 2
ENDMDL
MODEL 6
REMARK VINA RESULT:    -5.351      2.269      3.797
REMARK INTER + INTRA:          -6.107
REMARK INTER:                  -5.964
REMARK INTRA:                  -0.142
REMARK UNBOUND:                -0.130
REMARK  Name = 1550473
REMARK  2 active torsions:
REMARK  status: ('A' for Active; 'I' for Inactive)
REMARK    1  A    between atoms: N_1  and  C_4
REMARK    2  A    between atoms: C_4  and  C_5
REMARK                            x       y       z     vdW  Elec       q    Type
REMARK                         _______ _______ _______ _____ _____    ______ ____
ROOT
ATOM      1  N   UNL     1      -4.375  -6.949  -6.951  0.00  0.00    -0.354 N 
ATOM      2  N   UNL     1      -3.984  -6.667  -4.686  0.00  0.00    -0.372 N 
ATOM      3  N   UNL     1      -2.266  -6.300  -6.162  0.00  0.00    -0.372 N 
ATOM      4  C   UNL     1      -3.542  -6.640  -5.949  0.00  0.00    +0.166 C 
ATOM      5  H   UNL     1      -5.322  -7.227  -6.721  0.00  0.00    +0.163 HD
ATOM      6  H   UNL     1      -3.379  -6.435  -3.909  0.00  0.00    +0.159 HD
ATOM      7  H   UNL     1      -4.943  -6.901  -4.462  0.00  0.00    +0.159 HD
ATOM      8  H   UNL     1      -1.869  -6.267  -7.092  0.00  0.00    +0.159 HD
ATOM      9  H   UNL     1      -1.642  -6.077  -5.397  0.00  0.00    +0.159 HD
ENDROOT
BRANCH   1  10
ATOM     10  C   UNL     1      -4.008  -6.898  -8.365  0.00  0.00    +0.151 C 
BRANCH  10  11
ATOM     11  C   UNL     1      -4.400  -8.194  -9.021  0.00  0.00    -0.028 A 
ATOM     12  C   UNL     1      -4.988  -8.198 -10.294  0.00  0.00    +0.005 A 
ATOM     13  C   UNL     1      -4.180  -9.421  -8.376  0.00  0.00    +0.005 A 
ATOM     14  C   UNL     1      -5.324  -9.403 -10.916  0.00  0.00    +0.000 A 
ATOM     15  C   UNL     1      -4.518 -10.622  -9.001  0.00  0.00    +0.000 A 
ATOM     16  C   UNL     1      -5.088 -10.612 -10.271  0.00  0.00    +0.000 A 
ENDBRANCH  10  11
ENDBRANCH   1  10
TORSDOF 2
ENDMDL
MODEL 7
REMARK VINA RESULT:    -5.247      2.667      4.810
REMARK INTER + INTRA:          -5.990
REMARK INTER:                  -5.854
REMARK INTRA:                  -0.136
REMARK UNBOUND:                -0.130
REMARK  Name = 1550473
REMARK  2 active torsions:
REMARK  status: ('A' for Active; 'I' for Inactive)
REMARK    1  A    between atoms: N_1  and  C_4
REMARK    2  A    between atoms: C_4  and  C_5
REMARK                            x       y       z     vdW  Elec       q    Type
REMARK                         _______ _______ _______ _____ _____    ______ ____
ROOT
ATOM      1  N   UNL     1      -3.197  -5.542  -5.839  0.00  0.00    -0.354 N 
ATOM      2  N   UNL     1      -1.752  -3.974  -6.744  0.00  0.00    -0.372 N 
ATOM      3  N   UNL     1      -3.702  -4.457  -7.854  0.00  0.00    -0.372 N 
ATOM      4  C   UNL     1      -2.895  -4.668  -6.808  0.00  0.00    +0.166 C 
ATOM      5  H   UNL     1      -2.529  -5.678  -5.089  0.00  0.00    +0.163 HD
ATOM      6  H   UNL     1      -1.499  -3.305  -7.459  0.00  0.00    +0.159 HD
ATOM      7  H   UNL     1      -1.108  -4.078  -5.970  0.00  0.00    +0.159 HD
ATOM      8  H   UNL     1      -4.576  -4.953  -7.964  0.00  0.00    +0.159 HD
ATOM      9  H   UNL     1      -3.460  -3.800  -8.586  0.00  0.00    +0.159 HD
ENDROOT
BRANCH   1  10
ATOM     10  C   UNL     1      -4.441  -6.308  -5.787  0.00  0.00    +0.151 C 
BRANCH  10  11
ATOM     11  C   UNL     1      -5.081  -6.114  -4.440  0.00  0.00    -0.028 A 
ATOM     12  C   UNL     1      -5.805  -7.155  -3.839  0.00  0.00    +0.005 A 
ATOM     13  C   UNL     1      -4.962  -4.895  -3.756  0.00  0.00    +0.005 A 
ATOM     14  C   UNL     1      -6.374  -6.986  -2.575  0.00  0.00    +0.000 A 
ATOM     15  C   UNL     1      -5.532  -4.730  -2.494  0.00  0.00    +0.000 A 
ATOM     16  C   UNL     1      -6.236  -5.776  -1.903  0.00  0.00    +0.000 A 
ENDBRANCH  10  11
ENDBRANCH   1  10
TORSDOF 2
ENDMDL
MODEL 8
REMARK VINA RESULT:    -4.914      3.972      5.695
REMARK INTER + INTRA:          -5.619
REMARK INTER:                  -5.454
REMARK INTRA:                  -0.165
REMARK UNBOUND:                -0.130
REMARK  Name = 1550473
REMARK  2 active torsions:
REMARK  status: ('A' for Active; 'I' for Inactive)
REMARK    1  A    between atoms: N_1  and  C_4
REMARK    2  A    between atoms: C_4  and  C_5
REMARK                            x       y       z     vdW  Elec       q    Type
REMARK                         _______ _______ _______ _____ _____    ______ ____
ROOT
ATOM      1  N   UNL     1      -3.170  -9.717  -8.085  0.00  0.00    -0.354 N 
ATOM      2  N   UNL     1      -3.531  -8.611  -6.083  0.00  0.00    -0.372 N 
ATOM      3  N   UNL     1      -3.718  -7.439  -8.046  0.00  0.00    -0.372 N 
ATOM      4  C   UNL     1      -3.471  -8.594  -7.420  0.00  0.00    +0.166 C 
ATOM      5  H   UNL     1      -2.964 -10.553  -7.551  0.00  0.00    +0.163 HD
ATOM      6  H   UNL     1      -3.759  -7.780  -5.553  0.00  0.00    +0.159 HD
ATOM      7  H   UNL     1      -3.370  -9.459  -5.553  0.00  0.00    +0.159 HD
ATOM      8  H   UNL     1      -3.682  -7.358  -9.054  0.00  0.00    +0.159 HD
ATOM      9  H   UNL     1      -3.936  -6.594  -7.533  0.00  0.00    +0.159 HD
ENDROOT
BRANCH   1  10
ATOM     10  C   UNL     1      -3.132  -9.818  -9.543  0.00  0.00    +0.151 C 
BRANCH  10  11
ATOM     11  C   UNL     1      -4.442 -10.370 -10.032  0.00  0.00    -0.028 A 
ATOM     12  C   UNL     1      -5.023  -9.883 -11.213  0.00  0.00    +0.005 A 
ATOM     13  C   UNL     1      -5.105 -11.383  -9.323  0.00  0.00    +0.005 A 
ATOM     14  C   UNL     1      -6.226 -10.416 -11.683  0.00  0.00    +0.000 A 
ATOM     15  C   UNL     1      -6.306 -11.912  -9.796  0.00  0.00    +0.000 A 
ATOM     16  C   UNL     1      -6.865 -11.430 -10.977  0.00  0.00    +0.000 A 
ENDBRANCH  10  11
ENDBRANCH   1  10
TORSDOF 2
ENDMDL
MODEL 9
REMARK VINA RESULT:    -4.843     15.709     16.240
REMARK INTER + INTRA:          -5.539
REMARK INTER:                  -5.392
REMARK INTRA:                  -0.147
REMARK UNBOUND:                -0.130
REMARK  Name = 1550473
REMARK  2 active torsions:
REMARK  status: ('A' for Active; 'I' for Inactive)
REMARK    1  A    between atoms: N_1  and  C_4
REMARK    2  A    between atoms: C_4  and  C_5
REMARK                            x       y       z     vdW  Elec       q    Type
REMARK                         _______ _______ _______ _____ _____    ______ ____
ROOT
ATOM      1  N   UNL     1       1.126   3.547 -15.521  0.00  0.00    -0.354 N 
ATOM      2  N   UNL     1      -0.747   4.664 -16.298  0.00  0.00    -0.372 N 
ATOM      3  N   UNL     1       0.929   4.147 -17.777  0.00  0.00    -0.372 N 
ATOM      4  C   UNL     1       0.450   4.112 -16.529  0.00  0.00    +0.166 C 
ATOM      5  H   UNL     1       0.722   3.580 -14.592  0.00  0.00    +0.163 HD
ATOM      6  H   UNL     1      -1.282   5.095 -17.040  0.00  0.00    +0.159 HD
ATOM      7  H   UNL     1      -1.169   4.655 -15.378  0.00  0.00    +0.159 HD
ATOM      8  H   UNL     1       1.829   3.753 -18.017  0.00  0.00    +0.159 HD
ATOM      9  H   UNL     1       0.413   4.584 -18.531  0.00  0.00    +0.159 HD
ENDROOT
BRANCH   1  10
ATOM     10  C   UNL     1       2.413   2.871 -15.677  0.00  0.00    +0.151 C 
BRANCH  10  11
ATOM     11  C   UNL     1       3.421   3.517 -14.767  0.00  0.00    -0.028 A 
ATOM     12  C   UNL     1       4.794   3.304 -14.960  0.00  0.00    +0.005 A 
ATOM     13  C   UNL     1       3.010   4.348 -13.714  0.00  0.00    +0.005 A 
ATOM     14  C   UNL     1       5.732   3.929 -14.134  0.00  0.00    +0.000 A 
ATOM     15  C   UNL     1       3.950   4.969 -12.891  0.00  0.00    +0.000 A 
ATOM     16  C   UNL     1       5.310   4.761 -13.102  0.00  0.00    +0.000 A 
ENDBRANCH  10  11
ENDBRANCH   1  10
TORSDOF 2
ENDMDL
