MODEL 1
REMARK VINA RESULT:    -5.849      0.000      0.000
REMARK INTER + INTRA:          -6.706
REMARK INTER:                  -6.533
REMARK INTRA:                  -0.173
REMARK UNBOUND:                -0.173
REMARK  Name = 1550473
REMARK  2 active torsions:
REMARK  status: ('A' for Active; 'I' for Inactive)
REMARK    1  A    between atoms: N_1  and  C_4
REMARK    2  A    between atoms: C_4  and  C_5
REMARK                            x       y       z     vdW  Elec       q    Type
REMARK                         _______ _______ _______ _____ _____    ______ ____
ROOT
ATOM      1  N   UNL     1      10.434  -7.862 -17.015  0.00  0.00    -0.354 N 
ATOM      2  N   UNL     1       8.433  -6.760 -16.634  0.00  0.00    -0.372 N 
ATOM      3  N   UNL     1      10.297  -5.527 -17.156  0.00  0.00    -0.372 N 
ATOM      4  C   UNL     1       9.736  -6.721 -16.938  0.00  0.00    +0.166 C 
ATOM      5  H   UNL     1       9.958  -8.733 -16.809  0.00  0.00    +0.163 HD
ATOM      6  H   UNL     1       7.880  -5.916 -16.572  0.00  0.00    +0.159 HD
ATOM      7  H   UNL     1       7.949  -7.635 -16.474  0.00  0.00    +0.159 HD
ATOM      8  H   UNL     1      11.277  -5.429 -17.383  0.00  0.00    +0.159 HD
ATOM      9  H   UNL     1       9.762  -4.670 -17.087  0.00  0.00    +0.159 HD
ENDROOT
BRANCH   1  10
ATOM     10  C   UNL     1      11.845  -7.933 -17.390  0.00  0.00    +0.151 C 
BRANCH  10  11
ATOM     11  C   UNL     1      12.661  -8.272 -16.173  0.00  0.00    -0.028 A 
ATOM     12  C   UNL     1      12.718  -9.591 -15.699  0.00  0.00    +0.005 A 
ATOM     13  C   UNL     1      13.384  -7.280 -15.493  0.00  0.00    +0.005 A 
ATOM     14  C   UNL     1      13.500  -9.912 -14.587  0.00  0.00    +0.000 A 
ATOM     15  C   UNL     1      14.162  -7.604 -14.382  0.00  0.00    +0.000 A 
ATOM     16  C   UNL     1      14.222  -8.920 -13.931  0.00  0.00    +0.000 A 
ENDBRANCH  10  11
ENDBRANCH   1  10
TORSDOF 2
ENDMDL
MODEL 2
REMARK VINA RESULT:    -5.845      6.855      8.823
REMARK INTER + INTRA:          -6.701
REMARK INTER:                  -6.575
REMARK INTRA:                  -0.126
REMARK UNBOUND:                -0.173
REMARK  Name = 1550473
REMARK  2 active torsions:
REMARK  status: ('A' for Active; 'I' for Inactive)
REMARK    1  A    between atoms: N_1  and  C_4
REMARK    2  A    between atoms: C_4  and  C_5
REMARK                            x       y       z     vdW  Elec       q    Type
REMARK                         _______ _______ _______ _____ _____    ______ ____
ROOT
ATOM      1  N   UNL     1       5.438  -7.934 -19.028  0.00  0.00    -0.354 N 
ATOM      2  N   UNL     1       4.478  -7.221 -17.045  0.00  0.00    -0.372 N 
ATOM      3  N   UNL     1       6.766  -7.286 -17.210  0.00  0.00    -0.372 N 
ATOM      4  C   UNL     1       5.570  -7.485 -17.773  0.00  0.00    +0.166 C 
ATOM      5  H   UNL     1       4.504  -8.093 -19.387  0.00  0.00    +0.163 HD
ATOM      6  H   UNL     1       4.546  -6.877 -16.096  0.00  0.00    +0.159 HD
ATOM      7  H   UNL     1       3.546  -7.337 -17.422  0.00  0.00    +0.159 HD
ATOM      8  H   UNL     1       7.629  -7.472 -17.704  0.00  0.00    +0.159 HD
ATOM      9  H   UNL     1       6.855  -6.954 -16.257  0.00  0.00    +0.159 HD
ENDROOT
BRANCH   1  10
ATOM     10  C   UNL     1       6.563  -8.201 -19.923  0.00  0.00    +0.151 C 
BRANCH  10  11
ATOM     11  C   UNL     1       6.126  -7.969 -21.344  0.00  0.00    -0.028 A 
ATOM     12  C   UNL     1       4.764  -7.969 -21.679  0.00  0.00    +0.005 A 
ATOM     13  C   UNL     1       7.069  -7.742 -22.358  0.00  0.00    +0.005 A 
ATOM     14  C   UNL     1       4.357  -7.724 -22.992  0.00  0.00    +0.000 A 
ATOM     15  C   UNL     1       6.658  -7.498 -23.668  0.00  0.00    +0.000 A 
ATOM     16  C   UNL     1       5.302  -7.486 -23.984  0.00  0.00    +0.000 A 
ENDBRANCH  10  11
ENDBRANCH   1  10
TORSDOF 2
ENDMDL
MODEL 3
REMARK VINA RESULT:    -5.681      3.251      4.963
REMARK INTER + INTRA:          -6.518
REMARK INTER:                  -6.379
REMARK INTRA:                  -0.139
REMARK UNBOUND:                -0.173
REMARK  Name = 1550473
REMARK  2 active torsions:
REMARK  status: ('A' for Active; 'I' for Inactive)
REMARK    1  A    between atoms: N_1  and  C_4
REMARK    2  A    between atoms: C_4  and  C_5
REMARK                            x       y       z     vdW  Elec       q    Type
REMARK                         _______ _______ _______ _____ _____    ______ ____
ROOT
ATOM      1  N   UNL     1      12.698  -6.492 -17.016  0.00  0.00    -0.354 N 
ATOM      2  N   UNL     1      11.245  -5.522 -15.495  0.00  0.00    -0.372 N 
ATOM      3  N   UNL     1      10.885  -7.693 -16.144  0.00  0.00    -0.372 N 
ATOM      4  C   UNL     1      11.618  -6.578 -16.229  0.00  0.00    +0.166 C 
ATOM      5  H   UNL     1      13.193  -5.609 -17.059  0.00  0.00    +0.163 HD
ATOM      6  H   UNL     1      10.437  -5.559 -14.889  0.00  0.00    +0.159 HD
ATOM      7  H   UNL     1      11.769  -4.656 -15.504  0.00  0.00    +0.159 HD
ATOM      8  H   UNL     1      11.109  -8.523 -16.677  0.00  0.00    +0.159 HD
ATOM      9  H   UNL     1      10.065  -7.746 -15.552  0.00  0.00    +0.159 HD
ENDROOT
BRANCH   1  10
ATOM     10  C   UNL     1      13.219  -7.601 -17.814  0.00  0.00    +0.151 C 
BRANCH  10  11
ATOM     11  C   UNL     1      13.406  -7.139 -19.233  0.00  0.00    -0.028 A 
ATOM     12  C   UNL     1      12.552  -6.174 -19.786  0.00  0.00    +0.005 A 
ATOM     13  C   UNL     1      14.440  -7.658 -20.027  0.00  0.00    +0.005 A 
ATOM     14  C   UNL     1      12.744  -5.723 -21.094  0.00  0.00    +0.000 A 
ATOM     15  C   UNL     1      14.628  -7.206 -21.333  0.00  0.00    +0.000 A 
ATOM     16  C   UNL     1      13.782  -6.237 -21.865  0.00  0.00    +0.000 A 
ENDBRANCH  10  11
ENDBRANCH   1  10
TORSDOF 2
ENDMDL
MODEL 4
REMARK VINA RESULT:    -5.422     20.986     22.264
REMARK INTER + INTRA:          -6.229
REMARK INTER:                  -6.092
REMARK INTRA:                  -0.137
REMARK UNBOUND:                -0.173
REMARK  Name = 1550473
REMARK  2 active torsions:
REMARK  status: ('A' for Active; 'I' for Inactive)
REMARK    1  A    between atoms: N_1  and  C_4
REMARK    2  A    between atoms: C_4  and  C_5
REMARK                            x       y       z     vdW  Elec       q    Type
REMARK                         _______ _______ _______ _____ _____    ______ ____
ROOT
ATOM      1  N   UNL     1       8.465   1.820 -37.292  0.00  0.00    -0.354 N 
ATOM      2  N   UNL     1       7.382   3.317 -38.688  0.00  0.00    -0.372 N 
ATOM      3  N   UNL     1       8.221   4.072 -36.690  0.00  0.00    -0.372 N 
ATOM      4  C   UNL     1       8.030   3.062 -37.545  0.00  0.00    +0.166 C 
ATOM      5  H   UNL     1       8.262   1.092 -37.967  0.00  0.00    +0.163 HD
ATOM      6  H   UNL     1       7.045   4.245 -38.908  0.00  0.00    +0.159 HD
ATOM      7  H   UNL     1       7.220   2.597 -39.382  0.00  0.00    +0.159 HD
ATOM      8  H   UNL     1       8.699   3.944 -35.808  0.00  0.00    +0.159 HD
ATOM      9  H   UNL     1       7.881   5.005 -36.888  0.00  0.00    +0.159 HD
ENDROOT
BRANCH   1  10
ATOM     10  C   UNL     1       9.229   1.448 -36.102  0.00  0.00    +0.151 C 
BRANCH  10  11
ATOM     11  C   UNL     1       8.618   0.218 -35.491  0.00  0.00    -0.028 A 
ATOM     12  C   UNL     1       9.333  -0.988 -35.451  0.00  0.00    +0.005 A 
ATOM     13  C   UNL     1       7.326   0.253 -34.945  0.00  0.00    +0.005 A 
ATOM     14  C   UNL     1       8.778  -2.123 -34.856  0.00  0.00    +0.000 A 
ATOM     15  C   UNL     1       6.774  -0.883 -34.352  0.00  0.00    +0.000 A 
ATOM     16  C   UNL     1       7.501  -2.070 -34.306  0.00  0.00    +0.000 A 
ENDBRANCH  10  11
ENDBRANCH   1  10
TORSDOF 2
ENDMDL
MODEL 5
REMARK VINA RESULT:    -5.278     27.079     28.051
REMARK INTER + INTRA:          -6.068
REMARK INTER:                  -5.947
REMARK INTRA:                  -0.121
REMARK UNBOUND:                -0.173
REMARK  Name = 1550473
REMARK  2 active torsions:
REMARK  status: ('A' for Active; 'I' for Inactive)
REMARK    1  A    between atoms: N_1  and  C_4
REMARK    2  A    between atoms: C_4  and  C_5
REMARK                            x       y       z     vdW  Elec       q    Type
REMARK                         _______ _______ _______ _____ _____    ______ ____
ROOT
ATOM      1  N   UNL     1      -7.973 -13.466   0.827  0.00  0.00    -0.354 N 
ATOM      2  N   UNL     1      -7.087 -13.320  -1.308  0.00  0.00    -0.372 N 
ATOM      3  N   UNL     1      -8.570 -15.006  -0.835  0.00  0.00    -0.372 N 
ATOM      4  C   UNL     1      -7.884 -13.934  -0.425  0.00  0.00    +0.166 C 
ATOM      5  H   UNL     1      -7.403 -12.668   1.084  0.00  0.00    +0.163 HD
ATOM      6  H   UNL     1      -7.002 -13.648  -2.260  0.00  0.00    +0.159 HD
ATOM      7  H   UNL     1      -6.554 -12.495  -1.061  0.00  0.00    +0.159 HD
ATOM      8  H   UNL     1      -9.185 -15.518  -0.216  0.00  0.00    +0.159 HD
ATOM      9  H   UNL     1      -8.490 -15.357  -1.781  0.00  0.00    +0.159 HD
ENDROOT
BRANCH   1  10
ATOM     10  C   UNL     1      -8.852 -14.029   1.850  0.00  0.00    +0.151 C 
BRANCH  10  11
ATOM     11  C   UNL     1      -8.772 -13.180   3.089  0.00  0.00    -0.028 A 
ATOM     12  C   UNL     1      -9.225 -13.674   4.321  0.00  0.00    +0.005 A 
ATOM     13  C   UNL     1      -8.238 -11.883   3.038  0.00  0.00    +0.005 A 
ATOM     14  C   UNL     1      -9.123 -12.897   5.477  0.00  0.00    +0.000 A 
ATOM     15  C   UNL     1      -8.138 -11.110   4.195  0.00  0.00    +0.000 A 
ATOM     16  C   UNL     1      -8.578 -11.618   5.415  0.00  0.00    +0.000 A 
ENDBRANCH  10  11
ENDBRANCH   1  10
TORSDOF 2
ENDMDL
MODEL 6
REMARK VINA RESULT:    -5.218     21.408     22.940
REMARK INTER + INTRA:          -6.002
REMARK INTER:                  -5.884
REMARK INTRA:                  -0.118
REMARK UNBOUND:                -0.173
REMARK  Name = 1550473
REMARK  2 active torsions:
REMARK  status: ('A' for Active; 'I' for Inactive)
REMARK    1  A    between atoms: N_1  and  C_4
REMARK    2  A    between atoms: C_4  and  C_5
REMARK                            x       y       z     vdW  Elec       q    Type
REMARK                         _______ _______ _______ _____ _____    ______ ____
ROOT
ATOM      1  N   UNL     1       7.873   1.775 -37.083  0.00  0.00    -0.354 N 
ATOM      2  N   UNL     1       8.645   3.033 -38.868  0.00  0.00    -0.372 N 
ATOM      3  N   UNL     1       8.144   4.095 -36.897  0.00  0.00    -0.372 N 
ATOM      4  C   UNL     1       8.215   2.962 -37.602  0.00  0.00    +0.166 C 
ATOM      5  H   UNL     1       7.920   0.957 -37.679  0.00  0.00    +0.163 HD
ATOM      6  H   UNL     1       8.913   3.914 -39.286  0.00  0.00    +0.159 HD
ATOM      7  H   UNL     1       8.735   2.207 -39.447  0.00  0.00    +0.159 HD
ATOM      8  H   UNL     1       7.822   4.110 -35.938  0.00  0.00    +0.159 HD
ATOM      9  H   UNL     1       8.397   4.988 -37.301  0.00  0.00    +0.159 HD
ENDROOT
BRANCH   1  10
ATOM     10  C   UNL     1       7.444   1.582 -35.699  0.00  0.00    +0.151 C 
BRANCH  10  11
ATOM     11  C   UNL     1       6.643   0.312 -35.606  0.00  0.00    -0.028 A 
ATOM     12  C   UNL     1       5.634   0.037 -36.541  0.00  0.00    +0.005 A 
ATOM     13  C   UNL     1       6.891  -0.622 -34.589  0.00  0.00    +0.005 A 
ATOM     14  C   UNL     1       4.910  -1.156 -36.473  0.00  0.00    +0.000 A 
ATOM     15  C   UNL     1       6.166  -1.811 -34.524  0.00  0.00    +0.000 A 
ATOM     16  C   UNL     1       5.177  -2.079 -35.467  0.00  0.00    +0.000 A 
ENDBRANCH  10  11
ENDBRANCH   1  10
TORSDOF 2
ENDMDL
MODEL 7
REMARK VINA RESULT:    -5.204      8.009     10.501
REMARK INTER + INTRA:          -5.985
REMARK INTER:                  -5.856
REMARK INTRA:                  -0.129
REMARK UNBOUND:                -0.173
REMARK  Name = 1550473
REMARK  2 active torsions:
REMARK  status: ('A' for Active; 'I' for Inactive)
REMARK    1  A    between atoms: N_1  and  C_4
REMARK    2  A    between atoms: C_4  and  C_5
REMARK                            x       y       z     vdW  Elec       q    Type
REMARK                         _______ _______ _______ _____ _____    ______ ____
ROOT
ATOM      1  N   UNL     1       6.112  -7.433 -21.613  0.00  0.00    -0.354 N 
ATOM      2  N   UNL     1       5.037  -8.086 -19.668  0.00  0.00    -0.372 N 
ATOM      3  N   UNL     1       6.641  -9.461 -20.564  0.00  0.00    -0.372 N 
ATOM      4  C   UNL     1       5.939  -8.325 -20.628  0.00  0.00    +0.166 C 
ATOM      5  H   UNL     1       5.527  -6.606 -21.622  0.00  0.00    +0.163 HD
ATOM      6  H   UNL     1       4.887  -8.739 -18.911  0.00  0.00    +0.159 HD
ATOM      7  H   UNL     1       4.486  -7.236 -19.654  0.00  0.00    +0.159 HD
ATOM      8  H   UNL     1       7.332  -9.703 -21.261  0.00  0.00    +0.159 HD
ATOM      9  H   UNL     1       6.496 -10.132 -19.820  0.00  0.00    +0.159 HD
ENDROOT
BRANCH   1  10
ATOM     10  C   UNL     1       7.105  -7.573 -22.677  0.00  0.00    +0.151 C 
BRANCH  10  11
ATOM     11  C   UNL     1       6.405  -7.560 -24.007  0.00  0.00    -0.028 A 
ATOM     12  C   UNL     1       7.024  -6.995 -25.132  0.00  0.00    +0.005 A 
ATOM     13  C   UNL     1       5.125  -8.117 -24.151  0.00  0.00    +0.005 A 
ATOM     14  C   UNL     1       6.386  -7.010 -26.375  0.00  0.00    +0.000 A 
ATOM     15  C   UNL     1       4.492  -8.130 -25.394  0.00  0.00    +0.000 A 
ATOM     16  C   UNL     1       5.123  -7.578 -26.506  0.00  0.00    +0.000 A 
ENDBRANCH  10  11
ENDBRANCH   1  10
TORSDOF 2
ENDMDL
MODEL 8
REMARK VINA RESULT:    -5.173     11.768     12.528
REMARK INTER + INTRA:          -5.951
REMARK INTER:                  -5.809
REMARK INTRA:                  -0.142
REMARK UNBOUND:                -0.173
REMARK  Name = 1550473
REMARK  2 active torsions:
REMARK  status: ('A' for Active; 'I' for Inactive)
REMARK    1  A    between atoms: N_1  and  C_4
REMARK    2  A    between atoms: C_4  and  C_5
REMARK                            x       y       z     vdW  Elec       q    Type
REMARK                         _______ _______ _______ _____ _____    ______ ____
ROOT
ATOM      1  N   UNL     1       6.932   3.528 -14.339  0.00  0.00    -0.354 N 
ATOM      2  N   UNL     1       6.299   5.422 -15.512  0.00  0.00    -0.372 N 
ATOM      3  N   UNL     1       4.670   4.048 -14.661  0.00  0.00    -0.372 N 
ATOM      4  C   UNL     1       5.968   4.319 -14.829  0.00  0.00    +0.166 C 
ATOM      5  H   UNL     1       7.897   3.773 -14.527  0.00  0.00    +0.163 HD
ATOM      6  H   UNL     1       5.593   6.040 -15.891  0.00  0.00    +0.159 HD
ATOM      7  H   UNL     1       7.265   5.688 -15.659  0.00  0.00    +0.159 HD
ATOM      8  H   UNL     1       4.354   3.228 -14.160  0.00  0.00    +0.159 HD
ATOM      9  H   UNL     1       3.949   4.648 -15.042  0.00  0.00    +0.159 HD
ENDROOT
BRANCH   1  10
ATOM     10  C   UNL     1       6.679   2.333 -13.535  0.00  0.00    +0.151 C 
BRANCH  10  11
ATOM     11  C   UNL     1       7.443   2.439 -12.244  0.00  0.00    -0.028 A 
ATOM     12  C   UNL     1       7.406   1.395 -11.308  0.00  0.00    +0.005 A 
ATOM     13  C   UNL     1       8.211   3.577 -11.954  0.00  0.00    +0.005 A 
ATOM     14  C   UNL     1       8.140   1.480 -10.122  0.00  0.00    +0.000 A 
ATOM     15  C   UNL     1       8.941   3.658 -10.769  0.00  0.00    +0.000 A 
ATOM     16  C   UNL     1       8.908   2.608  -9.854  0.00  0.00    +0.000 A 
ENDBRANCH  10  11
ENDBRANCH   1  10
TORSDOF 2
ENDMDL
MODEL 9
REMARK VINA RESULT:    -4.912     10.629     13.555
REMARK INTER + INTRA:          -5.660
REMARK INTER:                  -5.478
REMARK INTRA:                  -0.182
REMARK UNBOUND:                -0.173
REMARK  Name = 1550473
REMARK  2 active torsions:
REMARK  status: ('A' for Active; 'I' for Inactive)
REMARK    1  A    between atoms: N_1  and  C_4
REMARK    2  A    between atoms: C_4  and  C_5
REMARK                            x       y       z     vdW  Elec       q    Type
REMARK                         _______ _______ _______ _____ _____    ______ ____
ROOT
ATOM      1  N   UNL     1       0.341  -6.830 -16.884  0.00  0.00    -0.354 N 
ATOM      2  N   UNL     1       2.586  -6.336 -17.171  0.00  0.00    -0.372 N 
ATOM      3  N   UNL     1       1.919  -7.389 -15.244  0.00  0.00    -0.372 N 
ATOM      4  C   UNL     1       1.601  -6.856 -16.429  0.00  0.00    +0.166 C 
ATOM      5  H   UNL     1       0.162  -6.384 -17.777  0.00  0.00    +0.163 HD
ATOM      6  H   UNL     1       3.547  -6.344 -16.855  0.00  0.00    +0.159 HD
ATOM      7  H   UNL     1       2.410  -5.932 -18.083  0.00  0.00    +0.159 HD
ATOM      8  H   UNL     1       1.221  -7.792 -14.634  0.00  0.00    +0.159 HD
ATOM      9  H   UNL     1       2.873  -7.396 -14.905  0.00  0.00    +0.159 HD
ENDROOT
BRANCH   1  10
ATOM     10  C   UNL     1      -0.796  -7.417 -16.178  0.00  0.00    +0.151 C 
BRANCH  10  11
ATOM     11  C   UNL     1      -1.584  -6.319 -15.519  0.00  0.00    -0.028 A 
ATOM     12  C   UNL     1      -1.494  -6.110 -14.135  0.00  0.00    +0.005 A 
ATOM     13  C   UNL     1      -2.419  -5.480 -16.273  0.00  0.00    +0.005 A 
ATOM     14  C   UNL     1      -2.203  -5.072 -13.526  0.00  0.00    +0.000 A 
ATOM     15  C   UNL     1      -3.126  -4.445 -15.662  0.00  0.00    +0.000 A 
ATOM     16  C   UNL     1      -3.016  -4.240 -14.289  0.00  0.00    +0.000 A 
ENDBRANCH  10  11
ENDBRANCH   1  10
TORSDOF 2
ENDMDL
