MODEL 1
REMARK VINA RESULT:    -5.328      0.000      0.000
REMARK INTER + INTRA:          -6.095
REMARK INTER:                  -5.951
REMARK INTRA:                  -0.144
REMARK UNBOUND:                -0.144
REMARK  Name = 1550473
REMARK  2 active torsions:
REMARK  status: ('A' for Active; 'I' for Inactive)
REMARK    1  A    between atoms: N_1  and  C_4
REMARK    2  A    between atoms: C_4  and  C_5
REMARK                            x       y       z     vdW  Elec       q    Type
REMARK                         _______ _______ _______ _____ _____    ______ ____
ROOT
ATOM      1  N   UNL     1      -5.013  -1.719 -16.789  0.00  0.00    -0.354 N 
ATOM      2  N   UNL     1      -5.664  -0.639 -18.732  0.00  0.00    -0.372 N 
ATOM      3  N   UNL     1      -3.490  -0.438 -18.026  0.00  0.00    -0.372 N 
ATOM      4  C   UNL     1      -4.715  -0.938 -17.836  0.00  0.00    +0.166 C 
ATOM      5  H   UNL     1      -5.969  -2.041 -16.686  0.00  0.00    +0.163 HD
ATOM      6  H   UNL     1      -5.468  -0.055 -19.534  0.00  0.00    +0.159 HD
ATOM      7  H   UNL     1      -6.607  -1.000 -18.651  0.00  0.00    +0.159 HD
ATOM      8  H   UNL     1      -2.731  -0.622 -17.384  0.00  0.00    +0.159 HD
ATOM      9  H   UNL     1      -3.277   0.158 -18.817  0.00  0.00    +0.159 HD
ENDROOT
BRANCH   1  10
ATOM     10  C   UNL     1      -4.040  -2.148 -15.786  0.00  0.00    +0.151 C 
BRANCH  10  11
ATOM     11  C   UNL     1      -4.087  -3.647 -15.666  0.00  0.00    -0.028 A 
ATOM     12  C   UNL     1      -4.299  -4.255 -14.420  0.00  0.00    +0.005 A 
ATOM     13  C   UNL     1      -3.926  -4.464 -16.796  0.00  0.00    +0.005 A 
ATOM     14  C   UNL     1      -4.373  -5.645 -14.313  0.00  0.00    +0.000 A 
ATOM     15  C   UNL     1      -4.000  -5.852 -16.684  0.00  0.00    +0.000 A 
ATOM     16  C   UNL     1      -4.226  -6.442 -15.443  0.00  0.00    +0.000 A 
ENDBRANCH  10  11
ENDBRANCH   1  10
TORSDOF 2
ENDMDL
MODEL 2
REMARK VINA RESULT:    -5.314     14.000     14.963
REMARK INTER + INTRA:          -6.079
REMARK INTER:                  -5.962
REMARK INTRA:                  -0.117
REMARK UNBOUND:                -0.144
REMARK  Name = 1550473
REMARK  2 active torsions:
REMARK  status: ('A' for Active; 'I' for Inactive)
REMARK    1  A    between atoms: N_1  and  C_4
REMARK    2  A    between atoms: C_4  and  C_5
REMARK                            x       y       z     vdW  Elec       q    Type
REMARK                         _______ _______ _______ _____ _____    ______ ____
ROOT
ATOM      1  N   UNL     1       6.110 -10.420  -8.603  0.00  0.00    -0.354 N 
ATOM      2  N   UNL     1       6.995 -10.029 -10.707  0.00  0.00    -0.372 N 
ATOM      3  N   UNL     1       5.314 -11.574 -10.480  0.00  0.00    -0.372 N 
ATOM      4  C   UNL     1       6.132 -10.679  -9.917  0.00  0.00    +0.166 C 
ATOM      5  H   UNL     1       6.776  -9.752  -8.232  0.00  0.00    +0.163 HD
ATOM      6  H   UNL     1       7.033 -10.201 -11.703  0.00  0.00    +0.159 HD
ATOM      7  H   UNL     1       7.629  -9.329 -10.341  0.00  0.00    +0.159 HD
ATOM      8  H   UNL     1       4.643 -12.103  -9.938  0.00  0.00    +0.159 HD
ATOM      9  H   UNL     1       5.344 -11.769 -11.474  0.00  0.00    +0.159 HD
ENDROOT
BRANCH   1  10
ATOM     10  C   UNL     1       5.172 -11.034  -7.664  0.00  0.00    +0.151 C 
BRANCH  10  11
ATOM     11  C   UNL     1       4.706  -9.993  -6.684  0.00  0.00    -0.028 A 
ATOM     12  C   UNL     1       5.245  -9.942  -5.390  0.00  0.00    +0.005 A 
ATOM     13  C   UNL     1       3.731  -9.051  -7.045  0.00  0.00    +0.005 A 
ATOM     14  C   UNL     1       4.834  -8.956  -4.489  0.00  0.00    +0.000 A 
ATOM     15  C   UNL     1       3.323  -8.069  -6.142  0.00  0.00    +0.000 A 
ATOM     16  C   UNL     1       3.876  -8.021  -4.865  0.00  0.00    +0.000 A 
ENDBRANCH  10  11
ENDBRANCH   1  10
TORSDOF 2
ENDMDL
MODEL 3
REMARK VINA RESULT:    -4.881      5.539      7.342
REMARK INTER + INTRA:          -5.595
REMARK INTER:                  -5.494
REMARK INTRA:                  -0.101
REMARK UNBOUND:                -0.144
REMARK  Name = 1550473
REMARK  2 active torsions:
REMARK  status: ('A' for Active; 'I' for Inactive)
REMARK    1  A    between atoms: N_1  and  C_4
REMARK    2  A    between atoms: C_4  and  C_5
REMARK                            x       y       z     vdW  Elec       q    Type
REMARK                         _______ _______ _______ _____ _____    ______ ____
ROOT
ATOM      1  N   UNL     1      -2.497  -6.845 -10.821  0.00  0.00    -0.354 N 
ATOM      2  N   UNL     1      -0.410  -7.242  -9.900  0.00  0.00    -0.372 N 
ATOM      3  N   UNL     1      -2.110  -8.722  -9.472  0.00  0.00    -0.372 N 
ATOM      4  C   UNL     1      -1.687  -7.603 -10.069  0.00  0.00    +0.166 C 
ATOM      5  H   UNL     1      -2.124  -5.992 -11.222  0.00  0.00    +0.163 HD
ATOM      6  H   UNL     1       0.226  -7.795  -9.341  0.00  0.00    +0.159 HD
ATOM      7  H   UNL     1      -0.027  -6.413 -10.339  0.00  0.00    +0.159 HD
ATOM      8  H   UNL     1      -3.064  -9.046  -9.556  0.00  0.00    +0.159 HD
ATOM      9  H   UNL     1      -1.492  -9.283  -8.899  0.00  0.00    +0.159 HD
ENDROOT
BRANCH   1  10
ATOM     10  C   UNL     1      -3.890  -7.178 -11.112  0.00  0.00    +0.151 C 
BRANCH  10  11
ATOM     11  C   UNL     1      -4.351  -6.372 -12.295  0.00  0.00    -0.028 A 
ATOM     12  C   UNL     1      -3.863  -6.650 -13.580  0.00  0.00    +0.005 A 
ATOM     13  C   UNL     1      -5.281  -5.332 -12.138  0.00  0.00    +0.005 A 
ATOM     14  C   UNL     1      -4.313  -5.920 -14.683  0.00  0.00    +0.000 A 
ATOM     15  C   UNL     1      -5.727  -4.606 -13.242  0.00  0.00    +0.000 A 
ATOM     16  C   UNL     1      -5.245  -4.902 -14.514  0.00  0.00    +0.000 A 
ENDBRANCH  10  11
ENDBRANCH   1  10
TORSDOF 2
ENDMDL
MODEL 4
REMARK VINA RESULT:    -4.801      4.479      6.095
REMARK INTER + INTRA:          -5.506
REMARK INTER:                  -5.388
REMARK INTRA:                  -0.118
REMARK UNBOUND:                -0.144
REMARK  Name = 1550473
REMARK  2 active torsions:
REMARK  status: ('A' for Active; 'I' for Inactive)
REMARK    1  A    between atoms: N_1  and  C_4
REMARK    2  A    between atoms: C_4  and  C_5
REMARK                            x       y       z     vdW  Elec       q    Type
REMARK                         _______ _______ _______ _____ _____    ______ ____
ROOT
ATOM      1  N   UNL     1      -2.927  -5.660 -11.712  0.00  0.00    -0.354 N 
ATOM      2  N   UNL     1      -1.555  -7.101 -10.527  0.00  0.00    -0.372 N 
ATOM      3  N   UNL     1      -3.785  -7.604 -10.724  0.00  0.00    -0.372 N 
ATOM      4  C   UNL     1      -2.767  -6.780 -10.995  0.00  0.00    +0.166 C 
ATOM      5  H   UNL     1      -2.121  -5.062 -11.857  0.00  0.00    +0.163 HD
ATOM      6  H   UNL     1      -1.403  -7.942  -9.986  0.00  0.00    +0.159 HD
ATOM      7  H   UNL     1      -0.743  -6.526 -10.712  0.00  0.00    +0.159 HD
ATOM      8  H   UNL     1      -4.726  -7.416 -11.043  0.00  0.00    +0.159 HD
ATOM      9  H   UNL     1      -3.656  -8.444 -10.174  0.00  0.00    +0.159 HD
ENDROOT
BRANCH   1  10
ATOM     10  C   UNL     1      -4.194  -5.248 -12.313  0.00  0.00    +0.151 C 
BRANCH  10  11
ATOM     11  C   UNL     1      -4.112  -5.425 -13.804  0.00  0.00    -0.028 A 
ATOM     12  C   UNL     1      -4.261  -4.326 -14.661  0.00  0.00    +0.005 A 
ATOM     13  C   UNL     1      -3.880  -6.690 -14.365  0.00  0.00    +0.005 A 
ATOM     14  C   UNL     1      -4.155  -4.485 -16.045  0.00  0.00    +0.000 A 
ATOM     15  C   UNL     1      -3.776  -6.846 -15.747  0.00  0.00    +0.000 A 
ATOM     16  C   UNL     1      -3.911  -5.743 -16.587  0.00  0.00    +0.000 A 
ENDBRANCH  10  11
ENDBRANCH   1  10
TORSDOF 2
ENDMDL
MODEL 5
REMARK VINA RESULT:    -4.754      1.468      2.110
REMARK INTER + INTRA:          -5.454
REMARK INTER:                  -5.316
REMARK INTRA:                  -0.138
REMARK UNBOUND:                -0.144
REMARK  Name = 1550473
REMARK  2 active torsions:
REMARK  status: ('A' for Active; 'I' for Inactive)
REMARK    1  A    between atoms: N_1  and  C_4
REMARK    2  A    between atoms: C_4  and  C_5
REMARK                            x       y       z     vdW  Elec       q    Type
REMARK                         _______ _______ _______ _____ _____    ______ ____
ROOT
ATOM      1  N   UNL     1      -5.609  -2.463 -15.378  0.00  0.00    -0.354 N 
ATOM      2  N   UNL     1      -6.177  -0.793 -16.879  0.00  0.00    -0.372 N 
ATOM      3  N   UNL     1      -4.353  -0.489 -15.521  0.00  0.00    -0.372 N 
ATOM      4  C   UNL     1      -5.374  -1.258 -15.915  0.00  0.00    +0.166 C 
ATOM      5  H   UNL     1      -6.417  -2.983 -15.699  0.00  0.00    +0.163 HD
ATOM      6  H   UNL     1      -6.023   0.111 -17.305  0.00  0.00    +0.159 HD
ATOM      7  H   UNL     1      -6.957  -1.335 -17.230  0.00  0.00    +0.159 HD
ATOM      8  H   UNL     1      -3.713  -0.780 -14.794  0.00  0.00    +0.159 HD
ATOM      9  H   UNL     1      -4.189   0.423 -15.928  0.00  0.00    +0.159 HD
ENDROOT
BRANCH   1  10
ATOM     10  C   UNL     1      -4.762  -3.084 -14.361  0.00  0.00    +0.151 C 
BRANCH  10  11
ATOM     11  C   UNL     1      -4.453  -4.496 -14.774  0.00  0.00    -0.028 A 
ATOM     12  C   UNL     1      -4.489  -4.866 -16.127  0.00  0.00    +0.005 A 
ATOM     13  C   UNL     1      -4.118  -5.468 -13.819  0.00  0.00    +0.005 A 
ATOM     14  C   UNL     1      -4.172  -6.170 -16.514  0.00  0.00    +0.000 A 
ATOM     15  C   UNL     1      -3.803  -6.769 -14.210  0.00  0.00    +0.000 A 
ATOM     16  C   UNL     1      -3.828  -7.119 -15.558  0.00  0.00    +0.000 A 
ENDBRANCH  10  11
ENDBRANCH   1  10
TORSDOF 2
ENDMDL
MODEL 6
REMARK VINA RESULT:    -4.737     10.080     11.040
REMARK INTER + INTRA:          -5.435
REMARK INTER:                  -5.253
REMARK INTRA:                  -0.182
REMARK UNBOUND:                -0.144
REMARK  Name = 1550473
REMARK  2 active torsions:
REMARK  status: ('A' for Active; 'I' for Inactive)
REMARK    1  A    between atoms: N_1  and  C_4
REMARK    2  A    between atoms: C_4  and  C_5
REMARK                            x       y       z     vdW  Elec       q    Type
REMARK                         _______ _______ _______ _____ _____    ______ ____
ROOT
ATOM      1  N   UNL     1       5.897   0.151 -12.804  0.00  0.00    -0.354 N 
ATOM      2  N   UNL     1       6.146  -2.137 -13.062  0.00  0.00    -0.372 N 
ATOM      3  N   UNL     1       5.082  -1.342 -11.191  0.00  0.00    -0.372 N 
ATOM      4  C   UNL     1       5.706  -1.094 -12.348  0.00  0.00    +0.166 C 
ATOM      5  H   UNL     1       6.404   0.273 -13.673  0.00  0.00    +0.163 HD
ATOM      6  H   UNL     1       6.013  -3.088 -12.745  0.00  0.00    +0.159 HD
ATOM      7  H   UNL     1       6.611  -2.015 -13.953  0.00  0.00    +0.159 HD
ATOM      8  H   UNL     1       4.732  -0.598 -10.602  0.00  0.00    +0.159 HD
ATOM      9  H   UNL     1       4.950  -2.286 -10.852  0.00  0.00    +0.159 HD
ENDROOT
BRANCH   1  10
ATOM     10  C   UNL     1       5.410   1.353 -12.129  0.00  0.00    +0.151 C 
BRANCH  10  11
ATOM     11  C   UNL     1       4.096   1.759 -12.738  0.00  0.00    -0.028 A 
ATOM     12  C   UNL     1       2.917   1.718 -11.979  0.00  0.00    +0.005 A 
ATOM     13  C   UNL     1       4.024   2.190 -14.071  0.00  0.00    +0.005 A 
ATOM     14  C   UNL     1       1.701   2.124 -12.535  0.00  0.00    +0.000 A 
ATOM     15  C   UNL     1       2.808   2.594 -14.623  0.00  0.00    +0.000 A 
ATOM     16  C   UNL     1       1.647   2.562 -13.854  0.00  0.00    +0.000 A 
ENDBRANCH  10  11
ENDBRANCH   1  10
TORSDOF 2
ENDMDL
MODEL 7
REMARK VINA RESULT:    -4.656     16.933     17.883
REMARK INTER + INTRA:          -5.344
REMARK INTER:                  -5.212
REMARK INTRA:                  -0.132
REMARK UNBOUND:                -0.144
REMARK  Name = 1550473
REMARK  2 active torsions:
REMARK  status: ('A' for Active; 'I' for Inactive)
REMARK    1  A    between atoms: N_1  and  C_4
REMARK    2  A    between atoms: C_4  and  C_5
REMARK                            x       y       z     vdW  Elec       q    Type
REMARK                         _______ _______ _______ _____ _____    ______ ____
ROOT
ATOM      1  N   UNL     1     -11.316  -7.606  -1.600  0.00  0.00    -0.354 N 
ATOM      2  N   UNL     1     -12.533  -5.645  -1.794  0.00  0.00    -0.372 N 
ATOM      3  N   UNL     1     -10.420  -5.556  -0.904  0.00  0.00    -0.372 N 
ATOM      4  C   UNL     1     -11.413  -6.281  -1.430  0.00  0.00    +0.166 C 
ATOM      5  H   UNL     1     -12.116  -8.102  -1.977  0.00  0.00    +0.163 HD
ATOM      6  H   UNL     1     -12.634  -4.645  -1.681  0.00  0.00    +0.159 HD
ATOM      7  H   UNL     1     -13.313  -6.137  -2.212  0.00  0.00    +0.159 HD
ATOM      8  H   UNL     1      -9.551  -5.976  -0.604  0.00  0.00    +0.159 HD
ATOM      9  H   UNL     1     -10.506  -4.556  -0.772  0.00  0.00    +0.159 HD
ENDROOT
BRANCH   1  10
ATOM     10  C   UNL     1     -10.120  -8.385  -1.287  0.00  0.00    +0.151 C 
BRANCH  10  11
ATOM     11  C   UNL     1     -10.531  -9.774  -0.882  0.00  0.00    -0.028 A 
ATOM     12  C   UNL     1     -11.855 -10.044  -0.505  0.00  0.00    +0.005 A 
ATOM     13  C   UNL     1      -9.602 -10.827  -0.879  0.00  0.00    +0.005 A 
ATOM     14  C   UNL     1     -12.244 -11.340  -0.158  0.00  0.00    +0.000 A 
ATOM     15  C   UNL     1      -9.995 -12.119  -0.531  0.00  0.00    +0.000 A 
ATOM     16  C   UNL     1     -11.316 -12.376  -0.173  0.00  0.00    +0.000 A 
ENDBRANCH  10  11
ENDBRANCH   1  10
TORSDOF 2
ENDMDL
MODEL 8
REMARK VINA RESULT:    -4.646     17.185     18.086
REMARK INTER + INTRA:          -5.333
REMARK INTER:                  -5.188
REMARK INTRA:                  -0.144
REMARK UNBOUND:                -0.144
REMARK  Name = 1550473
REMARK  2 active torsions:
REMARK  status: ('A' for Active; 'I' for Inactive)
REMARK    1  A    between atoms: N_1  and  C_4
REMARK    2  A    between atoms: C_4  and  C_5
REMARK                            x       y       z     vdW  Elec       q    Type
REMARK                         _______ _______ _______ _____ _____    ______ ____
ROOT
ATOM      1  N   UNL     1     -11.303  -6.833  -1.351  0.00  0.00    -0.354 N 
ATOM      2  N   UNL     1     -10.431  -5.200   0.041  0.00  0.00    -0.372 N 
ATOM      3  N   UNL     1     -12.207  -6.452   0.778  0.00  0.00    -0.372 N 
ATOM      4  C   UNL     1     -11.322  -6.173  -0.185  0.00  0.00    +0.166 C 
ATOM      5  H   UNL     1     -10.627  -6.553  -2.051  0.00  0.00    +0.163 HD
ATOM      6  H   UNL     1     -10.419  -4.687   0.912  0.00  0.00    +0.159 HD
ATOM      7  H   UNL     1      -9.726  -4.953  -0.643  0.00  0.00    +0.159 HD
ATOM      8  H   UNL     1     -12.909  -7.171   0.667  0.00  0.00    +0.159 HD
ATOM      9  H   UNL     1     -12.218  -5.942   1.652  0.00  0.00    +0.159 HD
ENDROOT
BRANCH   1  10
ATOM     10  C   UNL     1     -12.195  -7.945  -1.675  0.00  0.00    +0.151 C 
BRANCH  10  11
ATOM     11  C   UNL     1     -11.527  -9.237  -1.293  0.00  0.00    -0.028 A 
ATOM     12  C   UNL     1     -10.146  -9.405  -1.470  0.00  0.00    +0.005 A 
ATOM     13  C   UNL     1     -12.270 -10.296  -0.747  0.00  0.00    +0.005 A 
ATOM     14  C   UNL     1      -9.521 -10.594  -1.087  0.00  0.00    +0.000 A 
ATOM     15  C   UNL     1     -11.641 -11.482  -0.367  0.00  0.00    +0.000 A 
ATOM     16  C   UNL     1     -10.267 -11.629  -0.535  0.00  0.00    +0.000 A 
ENDBRANCH  10  11
ENDBRANCH   1  10
TORSDOF 2
ENDMDL
MODEL 9
REMARK VINA RESULT:    -4.620      5.042      6.332
REMARK INTER + INTRA:          -5.304
REMARK INTER:                  -5.148
REMARK INTRA:                  -0.156
REMARK UNBOUND:                -0.144
REMARK  Name = 1550473
REMARK  2 active torsions:
REMARK  status: ('A' for Active; 'I' for Inactive)
REMARK    1  A    between atoms: N_1  and  C_4
REMARK    2  A    between atoms: C_4  and  C_5
REMARK                            x       y       z     vdW  Elec       q    Type
REMARK                         _______ _______ _______ _____ _____    ______ ____
ROOT
ATOM      1  N   UNL     1      -6.900  -4.194 -13.605  0.00  0.00    -0.354 N 
ATOM      2  N   UNL     1      -5.763  -4.920 -15.488  0.00  0.00    -0.372 N 
ATOM      3  N   UNL     1      -4.808  -5.235 -13.425  0.00  0.00    -0.372 N 
ATOM      4  C   UNL     1      -5.829  -4.779 -14.158  0.00  0.00    +0.166 C 
ATOM      5  H   UNL     1      -7.626  -3.842 -14.218  0.00  0.00    +0.163 HD
ATOM      6  H   UNL     1      -4.969  -5.361 -15.933  0.00  0.00    +0.159 HD
ATOM      7  H   UNL     1      -6.511  -4.609 -16.095  0.00  0.00    +0.159 HD
ATOM      8  H   UNL     1      -4.795  -5.154 -12.417  0.00  0.00    +0.159 HD
ATOM      9  H   UNL     1      -4.000  -5.669 -13.853  0.00  0.00    +0.159 HD
ENDROOT
BRANCH   1  10
ATOM     10  C   UNL     1      -7.095  -4.039 -12.165  0.00  0.00    +0.151 C 
BRANCH  10  11
ATOM     11  C   UNL     1      -8.205  -4.950 -11.719  0.00  0.00    -0.028 A 
ATOM     12  C   UNL     1      -9.324  -5.162 -12.537  0.00  0.00    +0.005 A 
ATOM     13  C   UNL     1      -8.141  -5.609 -10.482  0.00  0.00    +0.005 A 
ATOM     14  C   UNL     1     -10.342  -6.031 -12.137  0.00  0.00    +0.000 A 
ATOM     15  C   UNL     1      -9.160  -6.476 -10.085  0.00  0.00    +0.000 A 
ATOM     16  C   UNL     1     -10.259  -6.689 -10.914  0.00  0.00    +0.000 A 
ENDBRANCH  10  11
ENDBRANCH   1  10
TORSDOF 2
ENDMDL
