MODEL 1
REMARK VINA RESULT:    -4.873      0.000      0.000
REMARK INTER + INTRA:          -5.569
REMARK INTER:                  -5.442
REMARK INTRA:                  -0.127
REMARK UNBOUND:                -0.127
REMARK  Name = 1550473
REMARK  2 active torsions:
REMARK  status: ('A' for Active; 'I' for Inactive)
REMARK    1  A    between atoms: N_1  and  C_4
REMARK    2  A    between atoms: C_4  and  C_5
REMARK                            x       y       z     vdW  Elec       q    Type
REMARK                         _______ _______ _______ _____ _____    ______ ____
ROOT
ATOM      1  N   UNL     1       0.806  14.087 -21.817  0.00  0.00    -0.354 N 
ATOM      2  N   UNL     1      -0.015  13.770 -23.959  0.00  0.00    -0.372 N 
ATOM      3  N   UNL     1       2.253  13.692 -23.617  0.00  0.00    -0.372 N 
ATOM      4  C   UNL     1       1.023  13.852 -23.117  0.00  0.00    +0.166 C 
ATOM      5  H   UNL     1      -0.149  14.229 -21.506  0.00  0.00    +0.163 HD
ATOM      6  H   UNL     1       0.118  13.590 -24.945  0.00  0.00    +0.159 HD
ATOM      7  H   UNL     1      -0.970  13.867 -23.638  0.00  0.00    +0.159 HD
ATOM      8  H   UNL     1       3.078  13.748 -23.035  0.00  0.00    +0.159 HD
ATOM      9  H   UNL     1       2.407  13.522 -24.603  0.00  0.00    +0.159 HD
ENDROOT
BRANCH   1  10
ATOM     10  C   UNL     1       1.862  14.141 -20.808  0.00  0.00    +0.151 C 
BRANCH  10  11
ATOM     11  C   UNL     1       1.394  13.431 -19.568  0.00  0.00    -0.028 A 
ATOM     12  C   UNL     1       1.038  12.075 -19.616  0.00  0.00    +0.005 A 
ATOM     13  C   UNL     1       1.310  14.106 -18.341  0.00  0.00    +0.005 A 
ATOM     14  C   UNL     1       0.632  11.407 -18.458  0.00  0.00    +0.000 A 
ATOM     15  C   UNL     1       0.903  13.436 -17.187  0.00  0.00    +0.000 A 
ATOM     16  C   UNL     1       0.567  12.085 -17.246  0.00  0.00    +0.000 A 
ENDBRANCH  10  11
ENDBRANCH   1  10
TORSDOF 2
ENDMDL
MODEL 2
REMARK VINA RESULT:    -4.617     41.266     43.182
REMARK INTER + INTRA:          -5.284
REMARK INTER:                  -5.144
REMARK INTRA:                  -0.140
REMARK UNBOUND:                -0.127
REMARK  Name = 1550473
REMARK  2 active torsions:
REMARK  status: ('A' for Active; 'I' for Inactive)
REMARK    1  A    between atoms: N_1  and  C_4
REMARK    2  A    between atoms: C_4  and  C_5
REMARK                            x       y       z     vdW  Elec       q    Type
REMARK                         _______ _______ _______ _____ _____    ______ ____
ROOT
ATOM      1  N   UNL     1       7.158  13.274  23.704  0.00  0.00    -0.354 N 
ATOM      2  N   UNL     1       8.709  12.132  24.989  0.00  0.00    -0.372 N 
ATOM      3  N   UNL     1       8.659  14.424  25.088  0.00  0.00    -0.372 N 
ATOM      4  C   UNL     1       8.166  13.287  24.586  0.00  0.00    +0.166 C 
ATOM      5  H   UNL     1       6.850  12.380  23.338  0.00  0.00    +0.163 HD
ATOM      6  H   UNL     1       9.469  12.110  25.657  0.00  0.00    +0.159 HD
ATOM      7  H   UNL     1       8.369  11.238  24.657  0.00  0.00    +0.159 HD
ATOM      8  H   UNL     1       8.297  15.329  24.819  0.00  0.00    +0.159 HD
ATOM      9  H   UNL     1       9.427  14.423  25.748  0.00  0.00    +0.159 HD
ENDROOT
BRANCH   1  10
ATOM     10  C   UNL     1       6.461  14.473  23.241  0.00  0.00    +0.151 C 
BRANCH  10  11
ATOM     11  C   UNL     1       6.337  14.421  21.743  0.00  0.00    -0.028 A 
ATOM     12  C   UNL     1       5.140  14.796  21.114  0.00  0.00    +0.005 A 
ATOM     13  C   UNL     1       7.413  14.002  20.946  0.00  0.00    +0.005 A 
ATOM     14  C   UNL     1       5.034  14.777  19.722  0.00  0.00    +0.000 A 
ATOM     15  C   UNL     1       7.303  13.983  19.556  0.00  0.00    +0.000 A 
ATOM     16  C   UNL     1       6.114  14.373  18.944  0.00  0.00    +0.000 A 
ENDBRANCH  10  11
ENDBRANCH   1  10
TORSDOF 2
ENDMDL
MODEL 3
REMARK VINA RESULT:    -4.531     31.686     33.566
REMARK INTER + INTRA:          -5.188
REMARK INTER:                  -5.093
REMARK INTRA:                  -0.095
REMARK UNBOUND:                -0.127
REMARK  Name = 1550473
REMARK  2 active torsions:
REMARK  status: ('A' for Active; 'I' for Inactive)
REMARK    1  A    between atoms: N_1  and  C_4
REMARK    2  A    between atoms: C_4  and  C_5
REMARK                            x       y       z     vdW  Elec       q    Type
REMARK                         _______ _______ _______ _____ _____    ______ ____
ROOT
ATOM      1  N   UNL     1      -2.595   2.338  12.172  0.00  0.00    -0.354 N 
ATOM      2  N   UNL     1      -0.999   1.297  13.488  0.00  0.00    -0.372 N 
ATOM      3  N   UNL     1      -2.346   2.895  14.435  0.00  0.00    -0.372 N 
ATOM      4  C   UNL     1      -1.991   2.185  13.358  0.00  0.00    +0.166 C 
ATOM      5  H   UNL     1      -2.259   1.791  11.387  0.00  0.00    +0.163 HD
ATOM      6  H   UNL     1      -0.527   1.157  14.372  0.00  0.00    +0.159 HD
ATOM      7  H   UNL     1      -0.696   0.719  12.714  0.00  0.00    +0.159 HD
ATOM      8  H   UNL     1      -3.083   3.586  14.401  0.00  0.00    +0.159 HD
ATOM      9  H   UNL     1      -1.877   2.778  15.325  0.00  0.00    +0.159 HD
ENDROOT
BRANCH   1  10
ATOM     10  C   UNL     1      -3.722   3.239  11.938  0.00  0.00    +0.151 C 
BRANCH  10  11
ATOM     11  C   UNL     1      -3.993   3.313  10.461  0.00  0.00    -0.028 A 
ATOM     12  C   UNL     1      -4.469   2.190   9.767  0.00  0.00    +0.005 A 
ATOM     13  C   UNL     1      -3.782   4.504   9.750  0.00  0.00    +0.005 A 
ATOM     14  C   UNL     1      -4.750   2.267   8.401  0.00  0.00    +0.000 A 
ATOM     15  C   UNL     1      -4.062   4.576   8.385  0.00  0.00    +0.000 A 
ATOM     16  C   UNL     1      -4.549   3.458   7.712  0.00  0.00    +0.000 A 
ENDBRANCH  10  11
ENDBRANCH   1  10
TORSDOF 2
ENDMDL
MODEL 4
REMARK VINA RESULT:    -4.500     43.548     44.647
REMARK INTER + INTRA:          -5.153
REMARK INTER:                  -5.049
REMARK INTRA:                  -0.104
REMARK UNBOUND:                -0.127
REMARK  Name = 1550473
REMARK  2 active torsions:
REMARK  status: ('A' for Active; 'I' for Inactive)
REMARK    1  A    between atoms: N_1  and  C_4
REMARK    2  A    between atoms: C_4  and  C_5
REMARK                            x       y       z     vdW  Elec       q    Type
REMARK                         _______ _______ _______ _____ _____    ______ ____
ROOT
ATOM      1  N   UNL     1       8.794  13.282  23.929  0.00  0.00    -0.354 N 
ATOM      2  N   UNL     1      10.958  12.711  23.332  0.00  0.00    -0.372 N 
ATOM      3  N   UNL     1      10.634  14.128  25.108  0.00  0.00    -0.372 N 
ATOM      4  C   UNL     1      10.115  13.379  24.129  0.00  0.00    +0.166 C 
ATOM      5  H   UNL     1       8.465  12.722  23.151  0.00  0.00    +0.163 HD
ATOM      6  H   UNL     1      11.960  12.762  23.461  0.00  0.00    +0.159 HD
ATOM      7  H   UNL     1      10.625  12.116  22.584  0.00  0.00    +0.159 HD
ATOM      8  H   UNL     1      10.053  14.662  25.740  0.00  0.00    +0.159 HD
ATOM      9  H   UNL     1      11.635  14.202  25.245  0.00  0.00    +0.159 HD
ENDROOT
BRANCH   1  10
ATOM     10  C   UNL     1       7.790  13.926  24.773  0.00  0.00    +0.151 C 
BRANCH  10  11
ATOM     11  C   UNL     1       6.561  14.202  23.951  0.00  0.00    -0.028 A 
ATOM     12  C   UNL     1       5.434  13.373  24.054  0.00  0.00    +0.005 A 
ATOM     13  C   UNL     1       6.515  15.294  23.072  0.00  0.00    +0.005 A 
ATOM     14  C   UNL     1       4.282  13.646  23.313  0.00  0.00    +0.000 A 
ATOM     15  C   UNL     1       5.363  15.563  22.333  0.00  0.00    +0.000 A 
ATOM     16  C   UNL     1       4.246  14.741  22.456  0.00  0.00    +0.000 A 
ENDBRANCH  10  11
ENDBRANCH   1  10
TORSDOF 2
ENDMDL
MODEL 5
REMARK VINA RESULT:    -4.148      3.707      4.672
REMARK INTER + INTRA:          -4.760
REMARK INTER:                  -4.591
REMARK INTRA:                  -0.170
REMARK UNBOUND:                -0.127
REMARK  Name = 1550473
REMARK  2 active torsions:
REMARK  status: ('A' for Active; 'I' for Inactive)
REMARK    1  A    between atoms: N_1  and  C_4
REMARK    2  A    between atoms: C_4  and  C_5
REMARK                            x       y       z     vdW  Elec       q    Type
REMARK                         _______ _______ _______ _____ _____    ______ ____
ROOT
ATOM      1  N   UNL     1      -0.135  13.770 -23.445  0.00  0.00    -0.354 N 
ATOM      2  N   UNL     1       1.761  14.694 -22.489  0.00  0.00    -0.372 N 
ATOM      3  N   UNL     1       1.963  12.757 -23.703  0.00  0.00    -0.372 N 
ATOM      4  C   UNL     1       1.185  13.732 -23.220  0.00  0.00    +0.166 C 
ATOM      5  H   UNL     1      -0.674  14.519 -23.025  0.00  0.00    +0.163 HD
ATOM      6  H   UNL     1       2.756  14.694 -22.305  0.00  0.00    +0.159 HD
ATOM      7  H   UNL     1       1.228  15.467 -22.109  0.00  0.00    +0.159 HD
ATOM      8  H   UNL     1       1.588  11.999 -24.257  0.00  0.00    +0.159 HD
ATOM      9  H   UNL     1       2.958  12.734 -23.520  0.00  0.00    +0.159 HD
ENDROOT
BRANCH   1  10
ATOM     10  C   UNL     1      -0.851  12.800 -24.272  0.00  0.00    +0.151 C 
BRANCH  10  11
ATOM     11  C   UNL     1      -1.693  11.925 -23.385  0.00  0.00    -0.028 A 
ATOM     12  C   UNL     1      -3.068  12.166 -23.245  0.00  0.00    +0.005 A 
ATOM     13  C   UNL     1      -1.124  10.850 -22.686  0.00  0.00    +0.005 A 
ATOM     14  C   UNL     1      -3.856  11.336 -22.445  0.00  0.00    +0.000 A 
ATOM     15  C   UNL     1      -1.914  10.023 -21.888  0.00  0.00    +0.000 A 
ATOM     16  C   UNL     1      -3.281  10.265 -21.769  0.00  0.00    +0.000 A 
ENDBRANCH  10  11
ENDBRANCH   1  10
TORSDOF 2
ENDMDL
MODEL 6
REMARK VINA RESULT:    -4.059     40.418     41.471
REMARK INTER + INTRA:          -4.661
REMARK INTER:                  -4.536
REMARK INTRA:                  -0.125
REMARK UNBOUND:                -0.127
REMARK  Name = 1550473
REMARK  2 active torsions:
REMARK  status: ('A' for Active; 'I' for Inactive)
REMARK    1  A    between atoms: N_1  and  C_4
REMARK    2  A    between atoms: C_4  and  C_5
REMARK                            x       y       z     vdW  Elec       q    Type
REMARK                         _______ _______ _______ _____ _____    ______ ____
ROOT
ATOM      1  N   UNL     1       6.593  14.033  21.254  0.00  0.00    -0.354 N 
ATOM      2  N   UNL     1       8.039  13.911  23.059  0.00  0.00    -0.372 N 
ATOM      3  N   UNL     1       6.594  15.687  22.914  0.00  0.00    -0.372 N 
ATOM      4  C   UNL     1       7.065  14.547  22.398  0.00  0.00    +0.166 C 
ATOM      5  H   UNL     1       7.013  13.181  20.900  0.00  0.00    +0.163 HD
ATOM      6  H   UNL     1       8.413  14.273  23.926  0.00  0.00    +0.159 HD
ATOM      7  H   UNL     1       8.425  13.035  22.727  0.00  0.00    +0.159 HD
ATOM      8  H   UNL     1       5.863  16.219  22.461  0.00  0.00    +0.159 HD
ATOM      9  H   UNL     1       6.963  16.072  23.775  0.00  0.00    +0.159 HD
ENDROOT
BRANCH   1  10
ATOM     10  C   UNL     1       5.497  14.619  20.485  0.00  0.00    +0.151 C 
BRANCH  10  11
ATOM     11  C   UNL     1       4.571  13.522  20.035  0.00  0.00    -0.028 A 
ATOM     12  C   UNL     1       5.081  12.275  19.648  0.00  0.00    +0.005 A 
ATOM     13  C   UNL     1       3.182  13.723  20.000  0.00  0.00    +0.005 A 
ATOM     14  C   UNL     1       4.219  11.246  19.259  0.00  0.00    +0.000 A 
ATOM     15  C   UNL     1       2.326  12.694  19.610  0.00  0.00    +0.000 A 
ATOM     16  C   UNL     1       2.844  11.455  19.242  0.00  0.00    +0.000 A 
ENDBRANCH  10  11
ENDBRANCH   1  10
TORSDOF 2
ENDMDL
MODEL 7
REMARK VINA RESULT:    -4.021      3.062      4.122
REMARK INTER + INTRA:          -4.618
REMARK INTER:                  -4.466
REMARK INTRA:                  -0.153
REMARK UNBOUND:                -0.127
REMARK  Name = 1550473
REMARK  2 active torsions:
REMARK  status: ('A' for Active; 'I' for Inactive)
REMARK    1  A    between atoms: N_1  and  C_4
REMARK    2  A    between atoms: C_4  and  C_5
REMARK                            x       y       z     vdW  Elec       q    Type
REMARK                         _______ _______ _______ _____ _____    ______ ____
ROOT
ATOM      1  N   UNL     1       1.199  14.041 -22.521  0.00  0.00    -0.354 N 
ATOM      2  N   UNL     1       3.404  14.600 -22.087  0.00  0.00    -0.372 N 
ATOM      3  N   UNL     1       2.869  13.704 -24.130  0.00  0.00    -0.372 N 
ATOM      4  C   UNL     1       2.477  14.110 -22.918  0.00  0.00    +0.166 C 
ATOM      5  H   UNL     1       0.971  14.337 -21.579  0.00  0.00    +0.163 HD
ATOM      6  H   UNL     1       4.376  14.668 -22.360  0.00  0.00    +0.159 HD
ATOM      7  H   UNL     1       3.166  14.938 -21.162  0.00  0.00    +0.159 HD
ATOM      8  H   UNL     1       2.219  13.319 -24.802  0.00  0.00    +0.159 HD
ATOM      9  H   UNL     1       3.838  13.753 -24.418  0.00  0.00    +0.159 HD
ENDROOT
BRANCH   1  10
ATOM     10  C   UNL     1       0.103  13.574 -23.368  0.00  0.00    +0.151 C 
BRANCH  10  11
ATOM     11  C   UNL     1      -0.178  12.131 -23.056  0.00  0.00    -0.028 A 
ATOM     12  C   UNL     1      -0.610  11.256 -24.064  0.00  0.00    +0.005 A 
ATOM     13  C   UNL     1      -0.009  11.630 -21.756  0.00  0.00    +0.005 A 
ATOM     14  C   UNL     1      -0.843   9.907 -23.781  0.00  0.00    +0.000 A 
ATOM     15  C   UNL     1      -0.243  10.283 -21.478  0.00  0.00    +0.000 A 
ATOM     16  C   UNL     1      -0.657   9.422 -22.491  0.00  0.00    +0.000 A 
ENDBRANCH  10  11
ENDBRANCH   1  10
TORSDOF 2
ENDMDL
MODEL 8
REMARK VINA RESULT:    -3.981      6.617      9.865
REMARK INTER + INTRA:          -4.573
REMARK INTER:                  -4.474
REMARK INTRA:                  -0.100
REMARK UNBOUND:                -0.127
REMARK  Name = 1550473
REMARK  2 active torsions:
REMARK  status: ('A' for Active; 'I' for Inactive)
REMARK    1  A    between atoms: N_1  and  C_4
REMARK    2  A    between atoms: C_4  and  C_5
REMARK                            x       y       z     vdW  Elec       q    Type
REMARK                         _______ _______ _______ _____ _____    ______ ____
ROOT
ATOM      1  N   UNL     1       4.699  14.766 -26.512  0.00  0.00    -0.354 N 
ATOM      2  N   UNL     1       3.620  13.650 -24.793  0.00  0.00    -0.372 N 
ATOM      3  N   UNL     1       5.828  14.217 -24.533  0.00  0.00    -0.372 N 
ATOM      4  C   UNL     1       4.726  14.218 -25.289  0.00  0.00    +0.166 C 
ATOM      5  H   UNL     1       3.841  14.707 -27.047  0.00  0.00    +0.163 HD
ATOM      6  H   UNL     1       3.609  13.231 -23.872  0.00  0.00    +0.159 HD
ATOM      7  H   UNL     1       2.751  13.633 -25.312  0.00  0.00    +0.159 HD
ATOM      8  H   UNL     1       6.697  14.624 -24.852  0.00  0.00    +0.159 HD
ATOM      9  H   UNL     1       5.840  13.793 -23.614  0.00  0.00    +0.159 HD
ENDROOT
BRANCH   1  10
ATOM     10  C   UNL     1       5.833  15.457 -27.123  0.00  0.00    +0.151 C 
BRANCH  10  11
ATOM     11  C   UNL     1       5.324  16.397 -28.180  0.00  0.00    -0.028 A 
ATOM     12  C   UNL     1       5.362  16.034 -29.534  0.00  0.00    +0.005 A 
ATOM     13  C   UNL     1       4.797  17.651 -27.833  0.00  0.00    +0.005 A 
ATOM     14  C   UNL     1       4.861  16.895 -30.514  0.00  0.00    +0.000 A 
ATOM     15  C   UNL     1       4.298  18.508 -28.814  0.00  0.00    +0.000 A 
ATOM     16  C   UNL     1       4.329  18.129 -30.154  0.00  0.00    +0.000 A 
ENDBRANCH  10  11
ENDBRANCH   1  10
TORSDOF 2
ENDMDL
MODEL 9
REMARK VINA RESULT:    -3.957      3.941      4.568
REMARK INTER + INTRA:          -4.547
REMARK INTER:                  -4.408
REMARK INTRA:                  -0.139
REMARK UNBOUND:                -0.127
REMARK  Name = 1550473
REMARK  2 active torsions:
REMARK  status: ('A' for Active; 'I' for Inactive)
REMARK    1  A    between atoms: N_1  and  C_4
REMARK    2  A    between atoms: C_4  and  C_5
REMARK                            x       y       z     vdW  Elec       q    Type
REMARK                         _______ _______ _______ _____ _____    ______ ____
ROOT
ATOM      1  N   UNL     1       1.811  13.107 -22.818  0.00  0.00    -0.354 N 
ATOM      2  N   UNL     1       3.229  14.877 -22.349  0.00  0.00    -0.372 N 
ATOM      3  N   UNL     1       3.308  13.913 -24.430  0.00  0.00    -0.372 N 
ATOM      4  C   UNL     1       2.774  13.953 -23.205  0.00  0.00    +0.166 C 
ATOM      5  H   UNL     1       1.469  13.169 -21.866  0.00  0.00    +0.163 HD
ATOM      6  H   UNL     1       3.952  15.532 -22.614  0.00  0.00    +0.159 HD
ATOM      7  H   UNL     1       2.853  14.967 -21.413  0.00  0.00    +0.159 HD
ATOM      8  H   UNL     1       3.013  13.236 -25.121  0.00  0.00    +0.159 HD
ATOM      9  H   UNL     1       4.042  14.553 -24.710  0.00  0.00    +0.159 HD
ENDROOT
BRANCH   1  10
ATOM     10  C   UNL     1       1.209  12.100 -23.690  0.00  0.00    +0.151 C 
BRANCH  10  11
ATOM     11  C   UNL     1      -0.281  12.101 -23.486  0.00  0.00    -0.028 A 
ATOM     12  C   UNL     1      -1.060  11.018 -23.922  0.00  0.00    +0.005 A 
ATOM     13  C   UNL     1      -0.919  13.178 -22.853  0.00  0.00    +0.005 A 
ATOM     14  C   UNL     1      -2.440  11.005 -23.706  0.00  0.00    +0.000 A 
ATOM     15  C   UNL     1      -2.298  13.161 -22.640  0.00  0.00    +0.000 A 
ATOM     16  C   UNL     1      -3.057  12.074 -23.064  0.00  0.00    +0.000 A 
ENDBRANCH  10  11
ENDBRANCH   1  10
TORSDOF 2
ENDMDL
