MODEL 1
REMARK VINA RESULT:    -4.931      0.000      0.000
REMARK INTER + INTRA:          -5.683
REMARK INTER:                  -5.507
REMARK INTRA:                  -0.176
REMARK UNBOUND:                -0.176
REMARK  Name = 1550473
REMARK  2 active torsions:
REMARK  status: ('A' for Active; 'I' for Inactive)
REMARK    1  A    between atoms: N_1  and  C_4
REMARK    2  A    between atoms: C_4  and  C_5
REMARK                            x       y       z     vdW  Elec       q    Type
REMARK                         _______ _______ _______ _____ _____    ______ ____
ROOT
ATOM      1  N   UNL     1     -46.680  -1.806 -31.151  0.00  0.00    -0.354 N 
ATOM      2  N   UNL     1     -44.876  -2.995 -30.318  0.00  0.00    -0.372 N 
ATOM      3  N   UNL     1     -44.486  -1.249 -31.754  0.00  0.00    -0.372 N 
ATOM      4  C   UNL     1     -45.358  -2.007 -31.082  0.00  0.00    +0.166 C 
ATOM      5  H   UNL     1     -47.290  -2.434 -30.641  0.00  0.00    +0.163 HD
ATOM      6  H   UNL     1     -43.883  -3.169 -30.243  0.00  0.00    +0.159 HD
ATOM      7  H   UNL     1     -45.486  -3.593 -29.773  0.00  0.00    +0.159 HD
ATOM      8  H   UNL     1     -44.785  -0.491 -32.353  0.00  0.00    +0.159 HD
ATOM      9  H   UNL     1     -43.488  -1.415 -31.702  0.00  0.00    +0.159 HD
ENDROOT
BRANCH   1  10
ATOM     10  C   UNL     1     -47.304  -0.724 -31.911  0.00  0.00    +0.151 C 
BRANCH  10  11
ATOM     11  C   UNL     1     -47.727  -1.248 -33.255  0.00  0.00    -0.028 A 
ATOM     12  C   UNL     1     -48.716  -2.238 -33.355  0.00  0.00    +0.005 A 
ATOM     13  C   UNL     1     -47.146  -0.755 -34.434  0.00  0.00    +0.005 A 
ATOM     14  C   UNL     1     -49.130  -2.704 -34.605  0.00  0.00    +0.000 A 
ATOM     15  C   UNL     1     -47.562  -1.223 -35.680  0.00  0.00    +0.000 A 
ATOM     16  C   UNL     1     -48.555  -2.196 -35.766  0.00  0.00    +0.000 A 
ENDBRANCH  10  11
ENDBRANCH   1  10
TORSDOF 2
ENDMDL
MODEL 2
REMARK VINA RESULT:    -4.881     38.550     40.005
REMARK INTER + INTRA:          -5.627
REMARK INTER:                  -5.581
REMARK INTRA:                  -0.046
REMARK UNBOUND:                -0.176
REMARK  Name = 1550473
REMARK  2 active torsions:
REMARK  status: ('A' for Active; 'I' for Inactive)
REMARK    1  A    between atoms: N_1  and  C_4
REMARK    2  A    between atoms: C_4  and  C_5
REMARK                            x       y       z     vdW  Elec       q    Type
REMARK                         _______ _______ _______ _____ _____    ______ ____
ROOT
ATOM      1  N   UNL     1     -12.028  11.655 -21.704  0.00  0.00    -0.354 N 
ATOM      2  N   UNL     1     -12.058  13.971 -21.710  0.00  0.00    -0.372 N 
ATOM      3  N   UNL     1     -13.668  12.844 -20.525  0.00  0.00    -0.372 N 
ATOM      4  C   UNL     1     -12.587  12.807 -21.311  0.00  0.00    +0.166 C 
ATOM      5  H   UNL     1     -11.228  11.695 -22.325  0.00  0.00    +0.163 HD
ATOM      6  H   UNL     1     -12.456  14.856 -21.427  0.00  0.00    +0.159 HD
ATOM      7  H   UNL     1     -11.231  14.008 -22.293  0.00  0.00    +0.159 HD
ATOM      8  H   UNL     1     -14.118  12.001 -20.194  0.00  0.00    +0.159 HD
ATOM      9  H   UNL     1     -14.087  13.720 -20.240  0.00  0.00    +0.159 HD
ENDROOT
BRANCH   1  10
ATOM     10  C   UNL     1     -12.494  10.335 -21.282  0.00  0.00    +0.151 C 
BRANCH  10  11
ATOM     11  C   UNL     1     -11.519   9.764 -20.289  0.00  0.00    -0.028 A 
ATOM     12  C   UNL     1     -10.914  10.589 -19.330  0.00  0.00    +0.005 A 
ATOM     13  C   UNL     1     -11.201   8.397 -20.298  0.00  0.00    +0.005 A 
ATOM     14  C   UNL     1     -10.031  10.054 -18.389  0.00  0.00    +0.000 A 
ATOM     15  C   UNL     1     -10.319   7.867 -19.357  0.00  0.00    +0.000 A 
ATOM     16  C   UNL     1      -9.736   8.695 -18.401  0.00  0.00    +0.000 A 
ENDBRANCH  10  11
ENDBRANCH   1  10
TORSDOF 2
ENDMDL
MODEL 3
REMARK VINA RESULT:    -4.609     80.645     81.760
REMARK INTER + INTRA:          -5.323
REMARK INTER:                  -5.174
REMARK INTRA:                  -0.149
REMARK UNBOUND:                -0.176
REMARK  Name = 1550473
REMARK  2 active torsions:
REMARK  status: ('A' for Active; 'I' for Inactive)
REMARK    1  A    between atoms: N_1  and  C_4
REMARK    2  A    between atoms: C_4  and  C_5
REMARK                            x       y       z     vdW  Elec       q    Type
REMARK                         _______ _______ _______ _____ _____    ______ ____
ROOT
ATOM      1  N   UNL     1      21.766 -27.977   4.372  0.00  0.00    -0.354 N 
ATOM      2  N   UNL     1      22.751 -26.618   5.968  0.00  0.00    -0.372 N 
ATOM      3  N   UNL     1      20.811 -25.920   4.963  0.00  0.00    -0.372 N 
ATOM      4  C   UNL     1      21.768 -26.846   5.090  0.00  0.00    +0.166 C 
ATOM      5  H   UNL     1      22.536 -28.625   4.493  0.00  0.00    +0.163 HD
ATOM      6  H   UNL     1      22.777 -25.776   6.526  0.00  0.00    +0.159 HD
ATOM      7  H   UNL     1      23.495 -27.289   6.120  0.00  0.00    +0.159 HD
ATOM      8  H   UNL     1      20.044 -26.029   4.313  0.00  0.00    +0.159 HD
ATOM      9  H   UNL     1      20.826 -25.065   5.504  0.00  0.00    +0.159 HD
ENDROOT
BRANCH   1  10
ATOM     10  C   UNL     1      20.712 -28.345   3.428  0.00  0.00    +0.151 C 
BRANCH  10  11
ATOM     11  C   UNL     1      21.300 -28.437   2.047  0.00  0.00    -0.028 A 
ATOM     12  C   UNL     1      22.103 -29.528   1.686  0.00  0.00    +0.005 A 
ATOM     13  C   UNL     1      21.053 -27.437   1.093  0.00  0.00    +0.005 A 
ATOM     14  C   UNL     1      22.625 -29.628   0.394  0.00  0.00    +0.000 A 
ATOM     15  C   UNL     1      21.576 -27.541  -0.196  0.00  0.00    +0.000 A 
ATOM     16  C   UNL     1      22.360 -28.638  -0.546  0.00  0.00    +0.000 A 
ENDBRANCH  10  11
ENDBRANCH   1  10
TORSDOF 2
ENDMDL
MODEL 4
REMARK VINA RESULT:    -4.342     35.558     37.009
REMARK INTER + INTRA:          -5.025
REMARK INTER:                  -4.906
REMARK INTRA:                  -0.119
REMARK UNBOUND:                -0.176
REMARK  Name = 1550473
REMARK  2 active torsions:
REMARK  status: ('A' for Active; 'I' for Inactive)
REMARK    1  A    between atoms: N_1  and  C_4
REMARK    2  A    between atoms: C_4  and  C_5
REMARK                            x       y       z     vdW  Elec       q    Type
REMARK                         _______ _______ _______ _____ _____    ______ ____
ROOT
ATOM      1  N   UNL     1     -18.055  12.333 -17.711  0.00  0.00    -0.354 N 
ATOM      2  N   UNL     1     -18.020  11.982 -20.000  0.00  0.00    -0.372 N 
ATOM      3  N   UNL     1     -16.344  13.222 -19.042  0.00  0.00    -0.372 N 
ATOM      4  C   UNL     1     -17.471  12.517 -18.902  0.00  0.00    +0.166 C 
ATOM      5  H   UNL     1     -18.925  11.814 -17.676  0.00  0.00    +0.163 HD
ATOM      6  H   UNL     1     -17.601  12.101 -20.912  0.00  0.00    +0.159 HD
ATOM      7  H   UNL     1     -18.865  11.425 -19.956  0.00  0.00    +0.159 HD
ATOM      8  H   UNL     1     -15.883  13.656 -18.254  0.00  0.00    +0.159 HD
ATOM      9  H   UNL     1     -15.915  13.362 -19.948  0.00  0.00    +0.159 HD
ENDROOT
BRANCH   1  10
ATOM     10  C   UNL     1     -17.510  12.827 -16.448  0.00  0.00    +0.151 C 
BRANCH  10  11
ATOM     11  C   UNL     1     -17.073  11.657 -15.610  0.00  0.00    -0.028 A 
ATOM     12  C   UNL     1     -17.256  10.345 -16.070  0.00  0.00    +0.005 A 
ATOM     13  C   UNL     1     -16.471  11.855 -14.358  0.00  0.00    +0.005 A 
ATOM     14  C   UNL     1     -16.824   9.259 -15.305  0.00  0.00    +0.000 A 
ATOM     15  C   UNL     1     -16.041  10.767 -13.597  0.00  0.00    +0.000 A 
ATOM     16  C   UNL     1     -16.215   9.470 -14.072  0.00  0.00    +0.000 A 
ENDBRANCH  10  11
ENDBRANCH   1  10
TORSDOF 2
ENDMDL
MODEL 5
REMARK VINA RESULT:    -4.318     67.666     70.494
REMARK INTER + INTRA:          -4.998
REMARK INTER:                  -4.887
REMARK INTRA:                  -0.111
REMARK UNBOUND:                -0.176
REMARK  Name = 1550473
REMARK  2 active torsions:
REMARK  status: ('A' for Active; 'I' for Inactive)
REMARK    1  A    between atoms: N_1  and  C_4
REMARK    2  A    between atoms: C_4  and  C_5
REMARK                            x       y       z     vdW  Elec       q    Type
REMARK                         _______ _______ _______ _____ _____    ______ ____
ROOT
ATOM      1  N   UNL     1       9.859 -13.336   4.261  0.00  0.00    -0.354 N 
ATOM      2  N   UNL     1       7.789 -12.505   4.884  0.00  0.00    -0.372 N 
ATOM      3  N   UNL     1       8.066 -13.305   2.751  0.00  0.00    -0.372 N 
ATOM      4  C   UNL     1       8.584 -13.055   3.959  0.00  0.00    +0.166 C 
ATOM      5  H   UNL     1      10.199 -13.094   5.184  0.00  0.00    +0.163 HD
ATOM      6  H   UNL     1       6.822 -12.285   4.686  0.00  0.00    +0.159 HD
ATOM      7  H   UNL     1       8.119 -12.307   5.821  0.00  0.00    +0.159 HD
ATOM      8  H   UNL     1       8.616 -13.714   2.007  0.00  0.00    +0.159 HD
ATOM      9  H   UNL     1       7.104 -13.081   2.531  0.00  0.00    +0.159 HD
ENDROOT
BRANCH   1  10
ATOM     10  C   UNL     1      10.793 -13.985   3.342  0.00  0.00    +0.151 C 
BRANCH  10  11
ATOM     11  C   UNL     1      11.911 -14.604   4.135  0.00  0.00    -0.028 A 
ATOM     12  C   UNL     1      12.445 -15.846   3.762  0.00  0.00    +0.005 A 
ATOM     13  C   UNL     1      12.445 -13.951   5.256  0.00  0.00    +0.005 A 
ATOM     14  C   UNL     1      13.503 -16.408   4.480  0.00  0.00    +0.000 A 
ATOM     15  C   UNL     1      13.501 -14.515   5.971  0.00  0.00    +0.000 A 
ATOM     16  C   UNL     1      14.032 -15.743   5.581  0.00  0.00    +0.000 A 
ENDBRANCH  10  11
ENDBRANCH   1  10
TORSDOF 2
ENDMDL
MODEL 6
REMARK VINA RESULT:    -4.297     73.363     74.565
REMARK INTER + INTRA:          -4.975
REMARK INTER:                  -4.839
REMARK INTRA:                  -0.136
REMARK UNBOUND:                -0.176
REMARK  Name = 1550473
REMARK  2 active torsions:
REMARK  status: ('A' for Active; 'I' for Inactive)
REMARK    1  A    between atoms: N_1  and  C_4
REMARK    2  A    between atoms: C_4  and  C_5
REMARK                            x       y       z     vdW  Elec       q    Type
REMARK                         _______ _______ _______ _____ _____    ______ ____
ROOT
ATOM      1  N   UNL     1       5.518   5.616  19.108  0.00  0.00    -0.354 N 
ATOM      2  N   UNL     1       4.206   5.602  21.017  0.00  0.00    -0.372 N 
ATOM      3  N   UNL     1       3.209   5.235  18.983  0.00  0.00    -0.372 N 
ATOM      4  C   UNL     1       4.318   5.484  19.688  0.00  0.00    +0.166 C 
ATOM      5  H   UNL     1       6.315   5.835  19.695  0.00  0.00    +0.163 HD
ATOM      6  H   UNL     1       3.314   5.503  21.483  0.00  0.00    +0.159 HD
ATOM      7  H   UNL     1       5.012   5.774  21.606  0.00  0.00    +0.159 HD
ATOM      8  H   UNL     1       3.224   5.141  17.976  0.00  0.00    +0.159 HD
ATOM      9  H   UNL     1       2.305   5.145  19.430  0.00  0.00    +0.159 HD
ENDROOT
BRANCH   1  10
ATOM     10  C   UNL     1       5.756   5.453  17.675  0.00  0.00    +0.151 C 
BRANCH  10  11
ATOM     11  C   UNL     1       7.071   4.754  17.472  0.00  0.00    -0.028 A 
ATOM     12  C   UNL     1       7.839   4.347  18.573  0.00  0.00    +0.005 A 
ATOM     13  C   UNL     1       7.554   4.490  16.180  0.00  0.00    +0.005 A 
ATOM     14  C   UNL     1       9.046   3.670  18.385  0.00  0.00    +0.000 A 
ATOM     15  C   UNL     1       8.760   3.816  15.997  0.00  0.00    +0.000 A 
ATOM     16  C   UNL     1       9.505   3.404  17.099  0.00  0.00    +0.000 A 
ENDBRANCH  10  11
ENDBRANCH   1  10
TORSDOF 2
ENDMDL
MODEL 7
REMARK VINA RESULT:    -4.296     73.252     74.516
REMARK INTER + INTRA:          -4.974
REMARK INTER:                  -4.870
REMARK INTRA:                  -0.104
REMARK UNBOUND:                -0.176
REMARK  Name = 1550473
REMARK  2 active torsions:
REMARK  status: ('A' for Active; 'I' for Inactive)
REMARK    1  A    between atoms: N_1  and  C_4
REMARK    2  A    between atoms: C_4  and  C_5
REMARK                            x       y       z     vdW  Elec       q    Type
REMARK                         _______ _______ _______ _____ _____    ______ ____
ROOT
ATOM      1  N   UNL     1       3.791   4.596  21.226  0.00  0.00    -0.354 N 
ATOM      2  N   UNL     1       1.998   3.671  22.364  0.00  0.00    -0.372 N 
ATOM      3  N   UNL     1       2.754   5.747  22.984  0.00  0.00    -0.372 N 
ATOM      4  C   UNL     1       2.860   4.680  22.186  0.00  0.00    +0.166 C 
ATOM      5  H   UNL     1       3.838   3.748  20.674  0.00  0.00    +0.163 HD
ATOM      6  H   UNL     1       1.283   3.707  23.078  0.00  0.00    +0.159 HD
ATOM      7  H   UNL     1       2.019   2.844  21.781  0.00  0.00    +0.159 HD
ATOM      8  H   UNL     1       3.377   6.539  22.905  0.00  0.00    +0.159 HD
ATOM      9  H   UNL     1       2.052   5.797  23.712  0.00  0.00    +0.159 HD
ENDROOT
BRANCH   1  10
ATOM     10  C   UNL     1       4.741   5.662  20.914  0.00  0.00    +0.151 C 
BRANCH  10  11
ATOM     11  C   UNL     1       5.417   5.350  19.607  0.00  0.00    -0.028 A 
ATOM     12  C   UNL     1       6.811   5.201  19.544  0.00  0.00    +0.005 A 
ATOM     13  C   UNL     1       4.670   5.197  18.430  0.00  0.00    +0.005 A 
ATOM     14  C   UNL     1       7.436   4.882  18.336  0.00  0.00    +0.000 A 
ATOM     15  C   UNL     1       5.298   4.879  17.226  0.00  0.00    +0.000 A 
ATOM     16  C   UNL     1       6.681   4.719  17.180  0.00  0.00    +0.000 A 
ENDBRANCH  10  11
ENDBRANCH   1  10
TORSDOF 2
ENDMDL
MODEL 8
REMARK VINA RESULT:    -4.267     72.228     73.641
REMARK INTER + INTRA:          -4.941
REMARK INTER:                  -4.828
REMARK INTRA:                  -0.113
REMARK UNBOUND:                -0.176
REMARK  Name = 1550473
REMARK  2 active torsions:
REMARK  status: ('A' for Active; 'I' for Inactive)
REMARK    1  A    between atoms: N_1  and  C_4
REMARK    2  A    between atoms: C_4  and  C_5
REMARK                            x       y       z     vdW  Elec       q    Type
REMARK                         _______ _______ _______ _____ _____    ______ ____
ROOT
ATOM      1  N   UNL     1       5.899   5.039  18.015  0.00  0.00    -0.354 N 
ATOM      2  N   UNL     1       4.157   5.818  19.326  0.00  0.00    -0.372 N 
ATOM      3  N   UNL     1       6.205   5.465  20.299  0.00  0.00    -0.372 N 
ATOM      4  C   UNL     1       5.434   5.435  19.207  0.00  0.00    +0.166 C 
ATOM      5  H   UNL     1       5.256   5.010  17.232  0.00  0.00    +0.163 HD
ATOM      6  H   UNL     1       3.778   6.126  20.212  0.00  0.00    +0.159 HD
ATOM      7  H   UNL     1       3.528   5.832  18.532  0.00  0.00    +0.159 HD
ATOM      8  H   UNL     1       7.176   5.183  20.276  0.00  0.00    +0.159 HD
ATOM      9  H   UNL     1       5.841   5.759  21.197  0.00  0.00    +0.159 HD
ENDROOT
BRANCH   1  10
ATOM     10  C   UNL     1       7.287   4.654  17.766  0.00  0.00    +0.151 C 
BRANCH  10  11
ATOM     11  C   UNL     1       7.452   4.324  16.308  0.00  0.00    -0.028 A 
ATOM     12  C   UNL     1       6.429   3.668  15.607  0.00  0.00    +0.005 A 
ATOM     13  C   UNL     1       8.626   4.669  15.621  0.00  0.00    +0.005 A 
ATOM     14  C   UNL     1       6.570   3.388  14.245  0.00  0.00    +0.000 A 
ATOM     15  C   UNL     1       8.762   4.387  14.262  0.00  0.00    +0.000 A 
ATOM     16  C   UNL     1       7.733   3.749  13.574  0.00  0.00    +0.000 A 
ENDBRANCH  10  11
ENDBRANCH   1  10
TORSDOF 2
ENDMDL
MODEL 9
REMARK VINA RESULT:    -4.225     34.839     36.721
REMARK INTER + INTRA:          -4.895
REMARK INTER:                  -4.732
REMARK INTRA:                  -0.163
REMARK UNBOUND:                -0.176
REMARK  Name = 1550473
REMARK  2 active torsions:
REMARK  status: ('A' for Active; 'I' for Inactive)
REMARK    1  A    between atoms: N_1  and  C_4
REMARK    2  A    between atoms: C_4  and  C_5
REMARK                            x       y       z     vdW  Elec       q    Type
REMARK                         _______ _______ _______ _____ _____    ______ ____
ROOT
ATOM      1  N   UNL     1     -17.475  10.387 -18.265  0.00  0.00    -0.354 N 
ATOM      2  N   UNL     1     -17.085  11.571 -20.217  0.00  0.00    -0.372 N 
ATOM      3  N   UNL     1     -18.941  12.075 -18.966  0.00  0.00    -0.372 N 
ATOM      4  C   UNL     1     -17.839  11.337 -19.136  0.00  0.00    +0.166 C 
ATOM      5  H   UNL     1     -16.644   9.842 -18.466  0.00  0.00    +0.163 HD
ATOM      6  H   UNL     1     -17.332  12.284 -20.890  0.00  0.00    +0.159 HD
ATOM      7  H   UNL     1     -16.230  11.056 -20.391  0.00  0.00    +0.159 HD
ATOM      8  H   UNL     1     -19.556  11.944 -18.174  0.00  0.00    +0.159 HD
ATOM      9  H   UNL     1     -19.212  12.785 -19.635  0.00  0.00    +0.159 HD
ENDROOT
BRANCH   1  10
ATOM     10  C   UNL     1     -18.197  10.090 -17.029  0.00  0.00    +0.151 C 
BRANCH  10  11
ATOM     11  C   UNL     1     -17.337  10.469 -15.855  0.00  0.00    -0.028 A 
ATOM     12  C   UNL     1     -17.169  11.815 -15.499  0.00  0.00    +0.005 A 
ATOM     13  C   UNL     1     -16.691   9.485 -15.090  0.00  0.00    +0.005 A 
ATOM     14  C   UNL     1     -16.395  12.165 -14.391  0.00  0.00    +0.000 A 
ATOM     15  C   UNL     1     -15.918   9.839 -13.984  0.00  0.00    +0.000 A 
ATOM     16  C   UNL     1     -15.772  11.178 -13.633  0.00  0.00    +0.000 A 
ENDBRANCH  10  11
ENDBRANCH   1  10
TORSDOF 2
ENDMDL
