MODEL 1
REMARK VINA RESULT:    -5.203      0.000      0.000
REMARK INTER + INTRA:          -5.935
REMARK INTER:                  -5.811
REMARK INTRA:                  -0.123
REMARK UNBOUND:                -0.123
REMARK  Name = 1550473
REMARK  2 active torsions:
REMARK  status: ('A' for Active; 'I' for Inactive)
REMARK    1  A    between atoms: N_1  and  C_4
REMARK    2  A    between atoms: C_4  and  C_5
REMARK                            x       y       z     vdW  Elec       q    Type
REMARK                         _______ _______ _______ _____ _____    ______ ____
ROOT
ATOM      1  N   UNL     1     -13.376 -11.246 -10.699  0.00  0.00    -0.354 N 
ATOM      2  N   UNL     1     -15.624 -11.362 -10.152  0.00  0.00    -0.372 N 
ATOM      3  N   UNL     1     -14.349  -9.680  -9.252  0.00  0.00    -0.372 N 
ATOM      4  C   UNL     1     -14.434 -10.760 -10.036  0.00  0.00    +0.166 C 
ATOM      5  H   UNL     1     -13.500 -12.085 -11.254  0.00  0.00    +0.163 HD
ATOM      6  H   UNL     1     -16.440 -11.016  -9.667  0.00  0.00    +0.159 HD
ATOM      7  H   UNL     1     -15.754 -12.174 -10.744  0.00  0.00    +0.159 HD
ATOM      8  H   UNL     1     -13.478  -9.184  -9.117  0.00  0.00    +0.159 HD
ATOM      9  H   UNL     1     -15.152  -9.326  -8.749  0.00  0.00    +0.159 HD
ENDROOT
BRANCH   1  10
ATOM     10  C   UNL     1     -12.049 -10.633 -10.683  0.00  0.00    +0.151 C 
BRANCH  10  11
ATOM     11  C   UNL     1     -11.157 -11.368 -11.645  0.00  0.00    -0.028 A 
ATOM     12  C   UNL     1     -11.599 -12.544 -12.270  0.00  0.00    +0.005 A 
ATOM     13  C   UNL     1      -9.870 -10.891 -11.941  0.00  0.00    +0.005 A 
ATOM     14  C   UNL     1     -10.782 -13.210 -13.186  0.00  0.00    +0.000 A 
ATOM     15  C   UNL     1      -9.058 -11.560 -12.855  0.00  0.00    +0.000 A 
ATOM     16  C   UNL     1      -9.514 -12.718 -13.480  0.00  0.00    +0.000 A 
ENDBRANCH  10  11
ENDBRANCH   1  10
TORSDOF 2
ENDMDL
MODEL 2
REMARK VINA RESULT:    -4.973     34.825     35.839
REMARK INTER + INTRA:          -5.677
REMARK INTER:                  -5.529
REMARK INTRA:                  -0.148
REMARK UNBOUND:                -0.123
REMARK  Name = 1550473
REMARK  2 active torsions:
REMARK  status: ('A' for Active; 'I' for Inactive)
REMARK    1  A    between atoms: N_1  and  C_4
REMARK    2  A    between atoms: C_4  and  C_5
REMARK                            x       y       z     vdW  Elec       q    Type
REMARK                         _______ _______ _______ _____ _____    ______ ____
ROOT
ATOM      1  N   UNL     1       3.817  14.352   7.473  0.00  0.00    -0.354 N 
ATOM      2  N   UNL     1       1.684  13.967   6.656  0.00  0.00    -0.372 N 
ATOM      3  N   UNL     1       2.907  15.705   5.790  0.00  0.00    -0.372 N 
ATOM      4  C   UNL     1       2.817  14.680   6.643  0.00  0.00    +0.166 C 
ATOM      5  H   UNL     1       3.676  13.582   8.116  0.00  0.00    +0.163 HD
ATOM      6  H   UNL     1       0.914  14.188   6.039  0.00  0.00    +0.159 HD
ATOM      7  H   UNL     1       1.563  13.169   7.268  0.00  0.00    +0.159 HD
ATOM      8  H   UNL     1       3.733  16.286   5.736  0.00  0.00    +0.159 HD
ATOM      9  H   UNL     1       2.142  15.950   5.174  0.00  0.00    +0.159 HD
ENDROOT
BRANCH   1  10
ATOM     10  C   UNL     1       5.112  15.030   7.501  0.00  0.00    +0.151 C 
BRANCH  10  11
ATOM     11  C   UNL     1       6.196  14.031   7.203  0.00  0.00    -0.028 A 
ATOM     12  C   UNL     1       7.483  14.462   6.849  0.00  0.00    +0.005 A 
ATOM     13  C   UNL     1       5.944  12.653   7.278  0.00  0.00    +0.005 A 
ATOM     14  C   UNL     1       8.498  13.535   6.601  0.00  0.00    +0.000 A 
ATOM     15  C   UNL     1       6.960  11.730   7.029  0.00  0.00    +0.000 A 
ATOM     16  C   UNL     1       8.238  12.172   6.693  0.00  0.00    +0.000 A 
ENDBRANCH  10  11
ENDBRANCH   1  10
TORSDOF 2
ENDMDL
MODEL 3
REMARK VINA RESULT:    -4.862      1.889      2.586
REMARK INTER + INTRA:          -5.554
REMARK INTER:                  -5.393
REMARK INTRA:                  -0.161
REMARK UNBOUND:                -0.123
REMARK  Name = 1550473
REMARK  2 active torsions:
REMARK  status: ('A' for Active; 'I' for Inactive)
REMARK    1  A    between atoms: N_1  and  C_4
REMARK    2  A    between atoms: C_4  and  C_5
REMARK                            x       y       z     vdW  Elec       q    Type
REMARK                         _______ _______ _______ _____ _____    ______ ____
ROOT
ATOM      1  N   UNL     1     -12.512 -10.771  -9.165  0.00  0.00    -0.354 N 
ATOM      2  N   UNL     1     -12.481 -11.316  -6.914  0.00  0.00    -0.372 N 
ATOM      3  N   UNL     1     -10.980  -9.770  -7.701  0.00  0.00    -0.372 N 
ATOM      4  C   UNL     1     -11.989 -10.614  -7.942  0.00  0.00    +0.166 C 
ATOM      5  H   UNL     1     -13.255 -11.449  -9.287  0.00  0.00    +0.163 HD
ATOM      6  H   UNL     1     -12.109 -11.216  -5.979  0.00  0.00    +0.159 HD
ATOM      7  H   UNL     1     -13.255 -11.959  -7.030  0.00  0.00    +0.159 HD
ATOM      8  H   UNL     1     -10.559  -9.215  -8.435  0.00  0.00    +0.159 HD
ATOM      9  H   UNL     1     -10.586  -9.664  -6.775  0.00  0.00    +0.159 HD
ENDROOT
BRANCH   1  10
ATOM     10  C   UNL     1     -12.084 -10.015 -10.341  0.00  0.00    +0.151 C 
BRANCH  10  11
ATOM     11  C   UNL     1     -11.392 -10.946 -11.298  0.00  0.00    -0.028 A 
ATOM     12  C   UNL     1     -10.014 -10.834 -11.530  0.00  0.00    +0.005 A 
ATOM     13  C   UNL     1     -12.110 -11.946 -11.973  0.00  0.00    +0.005 A 
ATOM     14  C   UNL     1      -9.366 -11.717 -12.397  0.00  0.00    +0.000 A 
ATOM     15  C   UNL     1     -11.459 -12.826 -12.838  0.00  0.00    +0.000 A 
ATOM     16  C   UNL     1     -10.087 -12.712 -13.048  0.00  0.00    +0.000 A 
ENDBRANCH  10  11
ENDBRANCH   1  10
TORSDOF 2
ENDMDL
MODEL 4
REMARK VINA RESULT:    -4.711     13.839     14.777
REMARK INTER + INTRA:          -5.385
REMARK INTER:                  -5.202
REMARK INTRA:                  -0.183
REMARK UNBOUND:                -0.123
REMARK  Name = 1550473
REMARK  2 active torsions:
REMARK  status: ('A' for Active; 'I' for Inactive)
REMARK    1  A    between atoms: N_1  and  C_4
REMARK    2  A    between atoms: C_4  and  C_5
REMARK                            x       y       z     vdW  Elec       q    Type
REMARK                         _______ _______ _______ _____ _____    ______ ____
ROOT
ATOM      1  N   UNL     1      -8.734   2.183 -18.991  0.00  0.00    -0.354 N 
ATOM      2  N   UNL     1     -10.450   3.510 -19.804  0.00  0.00    -0.372 N 
ATOM      3  N   UNL     1     -10.616   1.231 -20.013  0.00  0.00    -0.372 N 
ATOM      4  C   UNL     1      -9.923   2.297 -19.598  0.00  0.00    +0.166 C 
ATOM      5  H   UNL     1      -8.245   3.031 -18.728  0.00  0.00    +0.163 HD
ATOM      6  H   UNL     1     -11.347   3.627 -20.257  0.00  0.00    +0.159 HD
ATOM      7  H   UNL     1      -9.980   4.354 -19.499  0.00  0.00    +0.159 HD
ATOM      8  H   UNL     1     -10.271   0.288 -19.892  0.00  0.00    +0.159 HD
ATOM      9  H   UNL     1     -11.510   1.328 -20.478  0.00  0.00    +0.159 HD
ENDROOT
BRANCH   1  10
ATOM     10  C   UNL     1      -8.098   0.907 -18.671  0.00  0.00    +0.151 C 
BRANCH  10  11
ATOM     11  C   UNL     1      -8.311   0.603 -17.213  0.00  0.00    -0.028 A 
ATOM     12  C   UNL     1      -7.656   1.355 -16.227  0.00  0.00    +0.005 A 
ATOM     13  C   UNL     1      -9.172  -0.430 -16.813  0.00  0.00    +0.005 A 
ATOM     14  C   UNL     1      -7.877   1.093 -14.872  0.00  0.00    +0.000 A 
ATOM     15  C   UNL     1      -9.389  -0.689 -15.459  0.00  0.00    +0.000 A 
ATOM     16  C   UNL     1      -8.743   0.074 -14.490  0.00  0.00    +0.000 A 
ENDBRANCH  10  11
ENDBRANCH   1  10
TORSDOF 2
ENDMDL
MODEL 5
REMARK VINA RESULT:    -4.630     14.336     15.103
REMARK INTER + INTRA:          -5.295
REMARK INTER:                  -5.179
REMARK INTRA:                  -0.116
REMARK UNBOUND:                -0.123
REMARK  Name = 1550473
REMARK  2 active torsions:
REMARK  status: ('A' for Active; 'I' for Inactive)
REMARK    1  A    between atoms: N_1  and  C_4
REMARK    2  A    between atoms: C_4  and  C_5
REMARK                            x       y       z     vdW  Elec       q    Type
REMARK                         _______ _______ _______ _____ _____    ______ ____
ROOT
ATOM      1  N   UNL     1      -8.784   0.517 -18.240  0.00  0.00    -0.354 N 
ATOM      2  N   UNL     1      -8.055   0.319 -16.051  0.00  0.00    -0.372 N 
ATOM      3  N   UNL     1      -9.644  -1.143 -16.827  0.00  0.00    -0.372 N 
ATOM      4  C   UNL     1      -8.835  -0.103 -17.054  0.00  0.00    +0.166 C 
ATOM      5  H   UNL     1      -8.172   1.318 -18.339  0.00  0.00    +0.163 HD
ATOM      6  H   UNL     1      -8.069  -0.131 -15.146  0.00  0.00    +0.159 HD
ATOM      7  H   UNL     1      -7.410   1.092 -16.166  0.00  0.00    +0.159 HD
ATOM      8  H   UNL     1     -10.262  -1.507 -17.540  0.00  0.00    +0.159 HD
ATOM      9  H   UNL     1      -9.681  -1.599 -15.924  0.00  0.00    +0.159 HD
ENDROOT
BRANCH   1  10
ATOM     10  C   UNL     1      -9.552   0.101 -19.413  0.00  0.00    +0.151 C 
BRANCH  10  11
ATOM     11  C   UNL     1      -8.734   0.351 -20.650  0.00  0.00    -0.028 A 
ATOM     12  C   UNL     1      -9.118   1.336 -21.571  0.00  0.00    +0.005 A 
ATOM     13  C   UNL     1      -7.570  -0.392 -20.903  0.00  0.00    +0.005 A 
ATOM     14  C   UNL     1      -8.341   1.589 -22.704  0.00  0.00    +0.000 A 
ATOM     15  C   UNL     1      -6.798  -0.137 -22.037  0.00  0.00    +0.000 A 
ATOM     16  C   UNL     1      -7.183   0.855 -22.936  0.00  0.00    +0.000 A 
ENDBRANCH  10  11
ENDBRANCH   1  10
TORSDOF 2
ENDMDL
MODEL 6
REMARK VINA RESULT:    -4.596     23.216     24.388
REMARK INTER + INTRA:          -5.257
REMARK INTER:                  -5.153
REMARK INTRA:                  -0.104
REMARK UNBOUND:                -0.123
REMARK  Name = 1550473
REMARK  2 active torsions:
REMARK  status: ('A' for Active; 'I' for Inactive)
REMARK    1  A    between atoms: N_1  and  C_4
REMARK    2  A    between atoms: C_4  and  C_5
REMARK                            x       y       z     vdW  Elec       q    Type
REMARK                         _______ _______ _______ _____ _____    ______ ____
ROOT
ATOM      1  N   UNL     1     -17.434  11.951  -7.968  0.00  0.00    -0.354 N 
ATOM      2  N   UNL     1     -18.957  12.868  -9.452  0.00  0.00    -0.372 N 
ATOM      3  N   UNL     1     -16.769  12.641 -10.106  0.00  0.00    -0.372 N 
ATOM      4  C   UNL     1     -17.708  12.481  -9.167  0.00  0.00    +0.166 C 
ATOM      5  H   UNL     1     -18.184  11.884  -7.289  0.00  0.00    +0.163 HD
ATOM      6  H   UNL     1     -19.194  13.268 -10.350  0.00  0.00    +0.159 HD
ATOM      7  H   UNL     1     -19.714  12.758  -8.788  0.00  0.00    +0.159 HD
ATOM      8  H   UNL     1     -15.806  12.375  -9.951  0.00  0.00    +0.159 HD
ATOM      9  H   UNL     1     -16.985  13.051 -11.007  0.00  0.00    +0.159 HD
ENDROOT
BRANCH   1  10
ATOM     10  C   UNL     1     -16.118  11.449  -7.576  0.00  0.00    +0.151 C 
BRANCH  10  11
ATOM     11  C   UNL     1     -16.082  11.279  -6.083  0.00  0.00    -0.028 A 
ATOM     12  C   UNL     1     -15.868  10.014  -5.515  0.00  0.00    +0.005 A 
ATOM     13  C   UNL     1     -16.254  12.379  -5.229  0.00  0.00    +0.005 A 
ATOM     14  C   UNL     1     -15.804   9.861  -4.128  0.00  0.00    +0.000 A 
ATOM     15  C   UNL     1     -16.191  12.222  -3.845  0.00  0.00    +0.000 A 
ATOM     16  C   UNL     1     -15.963  10.963  -3.295  0.00  0.00    +0.000 A 
ENDBRANCH  10  11
ENDBRANCH   1  10
TORSDOF 2
ENDMDL
MODEL 7
REMARK VINA RESULT:    -4.548     29.488     30.670
REMARK INTER + INTRA:          -5.203
REMARK INTER:                  -5.073
REMARK INTRA:                  -0.130
REMARK UNBOUND:                -0.123
REMARK  Name = 1550473
REMARK  2 active torsions:
REMARK  status: ('A' for Active; 'I' for Inactive)
REMARK    1  A    between atoms: N_1  and  C_4
REMARK    2  A    between atoms: C_4  and  C_5
REMARK                            x       y       z     vdW  Elec       q    Type
REMARK                         _______ _______ _______ _____ _____    ______ ____
ROOT
ATOM      1  N   UNL     1       7.070  12.839  -4.831  0.00  0.00    -0.354 N 
ATOM      2  N   UNL     1       8.878  12.492  -3.426  0.00  0.00    -0.372 N 
ATOM      3  N   UNL     1       9.005  11.762  -5.598  0.00  0.00    -0.372 N 
ATOM      4  C   UNL     1       8.307  12.365  -4.630  0.00  0.00    +0.166 C 
ATOM      5  H   UNL     1       6.582  13.258  -4.048  0.00  0.00    +0.163 HD
ATOM      6  H   UNL     1       9.812  12.147  -3.245  0.00  0.00    +0.159 HD
ATOM      7  H   UNL     1       8.406  12.953  -2.658  0.00  0.00    +0.159 HD
ATOM      8  H   UNL     1       8.629  11.630  -6.527  0.00  0.00    +0.159 HD
ATOM      9  H   UNL     1       9.936  11.400  -5.433  0.00  0.00    +0.159 HD
ENDROOT
BRANCH   1  10
ATOM     10  C   UNL     1       6.379  12.799  -6.119  0.00  0.00    +0.151 C 
BRANCH  10  11
ATOM     11  C   UNL     1       4.900  12.668  -5.879  0.00  0.00    -0.028 A 
ATOM     12  C   UNL     1       3.981  13.119  -6.837  0.00  0.00    +0.005 A 
ATOM     13  C   UNL     1       4.412  12.089  -4.698  0.00  0.00    +0.005 A 
ATOM     14  C   UNL     1       2.608  12.971  -6.628  0.00  0.00    +0.000 A 
ATOM     15  C   UNL     1       3.040  11.943  -4.492  0.00  0.00    +0.000 A 
ATOM     16  C   UNL     1       2.139  12.382  -5.459  0.00  0.00    +0.000 A 
ENDBRANCH  10  11
ENDBRANCH   1  10
TORSDOF 2
ENDMDL
MODEL 8
REMARK VINA RESULT:    -4.529      3.326      6.302
REMARK INTER + INTRA:          -5.182
REMARK INTER:                  -5.043
REMARK INTRA:                  -0.139
REMARK UNBOUND:                -0.123
REMARK  Name = 1550473
REMARK  2 active torsions:
REMARK  status: ('A' for Active; 'I' for Inactive)
REMARK    1  A    between atoms: N_1  and  C_4
REMARK    2  A    between atoms: C_4  and  C_5
REMARK                            x       y       z     vdW  Elec       q    Type
REMARK                         _______ _______ _______ _____ _____    ______ ____
ROOT
ATOM      1  N   UNL     1     -13.657 -11.800  -9.614  0.00  0.00    -0.354 N 
ATOM      2  N   UNL     1     -13.710 -11.204 -11.851  0.00  0.00    -0.372 N 
ATOM      3  N   UNL     1     -13.493  -9.556 -10.269  0.00  0.00    -0.372 N 
ATOM      4  C   UNL     1     -13.620 -10.855 -10.562  0.00  0.00    +0.166 C 
ATOM      5  H   UNL     1     -13.785 -12.764  -9.900  0.00  0.00    +0.163 HD
ATOM      6  H   UNL     1     -13.681 -10.513 -12.589  0.00  0.00    +0.159 HD
ATOM      7  H   UNL     1     -13.791 -12.172 -12.136  0.00  0.00    +0.159 HD
ATOM      8  H   UNL     1     -13.426  -9.227  -9.315  0.00  0.00    +0.159 HD
ATOM      9  H   UNL     1     -13.474  -8.849 -10.993  0.00  0.00    +0.159 HD
ENDROOT
BRANCH   1  10
ATOM     10  C   UNL     1     -13.513 -11.531  -8.184  0.00  0.00    +0.151 C 
BRANCH  10  11
ATOM     11  C   UNL     1     -14.647 -12.184  -7.444  0.00  0.00    -0.028 A 
ATOM     12  C   UNL     1     -14.558 -12.414  -6.063  0.00  0.00    +0.005 A 
ATOM     13  C   UNL     1     -15.817 -12.570  -8.117  0.00  0.00    +0.005 A 
ATOM     14  C   UNL     1     -15.623 -12.994  -5.370  0.00  0.00    +0.000 A 
ATOM     15  C   UNL     1     -16.878 -13.149  -7.421  0.00  0.00    +0.000 A 
ATOM     16  C   UNL     1     -16.782 -13.358  -6.048  0.00  0.00    +0.000 A 
ENDBRANCH  10  11
ENDBRANCH   1  10
TORSDOF 2
ENDMDL
MODEL 9
REMARK VINA RESULT:    -4.430     17.538     18.629
REMARK INTER + INTRA:          -5.071
REMARK INTER:                  -4.952
REMARK INTRA:                  -0.119
REMARK UNBOUND:                -0.123
REMARK  Name = 1550473
REMARK  2 active torsions:
REMARK  status: ('A' for Active; 'I' for Inactive)
REMARK    1  A    between atoms: N_1  and  C_4
REMARK    2  A    between atoms: C_4  and  C_5
REMARK                            x       y       z     vdW  Elec       q    Type
REMARK                         _______ _______ _______ _____ _____    ______ ____
ROOT
ATOM      1  N   UNL     1       4.179 -10.452  -4.682  0.00  0.00    -0.354 N 
ATOM      2  N   UNL     1       4.230 -12.021  -2.980  0.00  0.00    -0.372 N 
ATOM      3  N   UNL     1       4.760 -12.681  -5.112  0.00  0.00    -0.372 N 
ATOM      4  C   UNL     1       4.390 -11.709  -4.271  0.00  0.00    +0.166 C 
ATOM      5  H   UNL     1       3.871  -9.768  -4.000  0.00  0.00    +0.163 HD
ATOM      6  H   UNL     1       4.385 -12.961  -2.640  0.00  0.00    +0.159 HD
ATOM      7  H   UNL     1       3.967 -11.326  -2.292  0.00  0.00    +0.159 HD
ATOM      8  H   UNL     1       4.891 -12.512  -6.101  0.00  0.00    +0.159 HD
ATOM      9  H   UNL     1       4.908 -13.630  -4.794  0.00  0.00    +0.159 HD
ENDROOT
BRANCH   1  10
ATOM     10  C   UNL     1       4.378  -9.996  -6.057  0.00  0.00    +0.151 C 
BRANCH  10  11
ATOM     11  C   UNL     1       5.069  -8.661  -6.037  0.00  0.00    -0.028 A 
ATOM     12  C   UNL     1       6.127  -8.393  -6.917  0.00  0.00    +0.005 A 
ATOM     13  C   UNL     1       4.665  -7.656  -5.144  0.00  0.00    +0.005 A 
ATOM     14  C   UNL     1       6.750  -7.143  -6.920  0.00  0.00    +0.000 A 
ATOM     15  C   UNL     1       5.290  -6.409  -5.149  0.00  0.00    +0.000 A 
ATOM     16  C   UNL     1       6.330  -6.152  -6.039  0.00  0.00    +0.000 A 
ENDBRANCH  10  11
ENDBRANCH   1  10
TORSDOF 2
ENDMDL
