MODEL 1
REMARK VINA RESULT:    -5.163      0.000      0.000
REMARK INTER + INTRA:          -5.916
REMARK INTER:                  -5.766
REMARK INTRA:                  -0.150
REMARK UNBOUND:                -0.150
REMARK  Name = 1550473
REMARK  2 active torsions:
REMARK  status: ('A' for Active; 'I' for Inactive)
REMARK    1  A    between atoms: N_1  and  C_4
REMARK    2  A    between atoms: C_4  and  C_5
REMARK                            x       y       z     vdW  Elec       q    Type
REMARK                         _______ _______ _______ _____ _____    ______ ____
ROOT
ATOM      1  N   UNL     1      -9.453 -11.710 -39.219  0.00  0.00    -0.354 N 
ATOM      2  N   UNL     1      -8.660  -9.850 -40.348  0.00  0.00    -0.372 N 
ATOM      3  N   UNL     1      -7.590 -10.525 -38.434  0.00  0.00    -0.372 N 
ATOM      4  C   UNL     1      -8.571 -10.707 -39.324  0.00  0.00    +0.166 C 
ATOM      5  H   UNL     1     -10.192 -11.776 -39.910  0.00  0.00    +0.163 HD
ATOM      6  H   UNL     1      -8.007  -9.086 -40.455  0.00  0.00    +0.159 HD
ATOM      7  H   UNL     1      -9.372  -9.945 -41.062  0.00  0.00    +0.159 HD
ATOM      8  H   UNL     1      -7.472 -11.134 -37.635  0.00  0.00    +0.159 HD
ATOM      9  H   UNL     1      -6.933  -9.759 -38.518  0.00  0.00    +0.159 HD
ENDROOT
BRANCH   1  10
ATOM     10  C   UNL     1      -9.412 -12.730 -38.172  0.00  0.00    +0.151 C 
BRANCH  10  11
ATOM     11  C   UNL     1      -9.199 -14.076 -38.806  0.00  0.00    -0.028 A 
ATOM     12  C   UNL     1      -9.523 -14.288 -40.154  0.00  0.00    +0.005 A 
ATOM     13  C   UNL     1      -8.667 -15.144 -38.066  0.00  0.00    +0.005 A 
ATOM     14  C   UNL     1      -9.297 -15.530 -40.752  0.00  0.00    +0.000 A 
ATOM     15  C   UNL     1      -8.444 -16.383 -38.666  0.00  0.00    +0.000 A 
ATOM     16  C   UNL     1      -8.757 -16.575 -40.009  0.00  0.00    +0.000 A 
ENDBRANCH  10  11
ENDBRANCH   1  10
TORSDOF 2
ENDMDL
MODEL 2
REMARK VINA RESULT:    -5.055      1.024      1.655
REMARK INTER + INTRA:          -5.796
REMARK INTER:                  -5.644
REMARK INTRA:                  -0.152
REMARK UNBOUND:                -0.150
REMARK  Name = 1550473
REMARK  2 active torsions:
REMARK  status: ('A' for Active; 'I' for Inactive)
REMARK    1  A    between atoms: N_1  and  C_4
REMARK    2  A    between atoms: C_4  and  C_5
REMARK                            x       y       z     vdW  Elec       q    Type
REMARK                         _______ _______ _______ _____ _____    ______ ____
ROOT
ATOM      1  N   UNL     1      -9.294 -11.603 -38.793  0.00  0.00    -0.354 N 
ATOM      2  N   UNL     1     -10.063  -9.772 -39.984  0.00  0.00    -0.372 N 
ATOM      3  N   UNL     1      -7.828  -9.909 -39.482  0.00  0.00    -0.372 N 
ATOM      4  C   UNL     1      -9.054 -10.439 -39.411  0.00  0.00    +0.166 C 
ATOM      5  H   UNL     1     -10.250 -11.936 -38.748  0.00  0.00    +0.163 HD
ATOM      6  H   UNL     1      -9.911  -8.893 -40.461  0.00  0.00    +0.159 HD
ATOM      7  H   UNL     1     -11.010 -10.130 -39.978  0.00  0.00    +0.159 HD
ATOM      8  H   UNL     1      -7.025 -10.360 -39.064  0.00  0.00    +0.159 HD
ATOM      9  H   UNL     1      -7.659  -9.025 -39.944  0.00  0.00    +0.159 HD
ENDROOT
BRANCH   1  10
ATOM     10  C   UNL     1      -8.257 -12.435 -38.184  0.00  0.00    +0.151 C 
BRANCH  10  11
ATOM     11  C   UNL     1      -8.258 -13.785 -38.847  0.00  0.00    -0.028 A 
ATOM     12  C   UNL     1      -8.600 -14.934 -38.120  0.00  0.00    +0.005 A 
ATOM     13  C   UNL     1      -7.923 -13.920 -40.203  0.00  0.00    +0.005 A 
ATOM     14  C   UNL     1      -8.630 -16.184 -38.742  0.00  0.00    +0.000 A 
ATOM     15  C   UNL     1      -7.954 -15.170 -40.821  0.00  0.00    +0.000 A 
ATOM     16  C   UNL     1      -8.310 -16.302 -40.091  0.00  0.00    +0.000 A 
ENDBRANCH  10  11
ENDBRANCH   1  10
TORSDOF 2
ENDMDL
MODEL 3
REMARK VINA RESULT:    -4.895     92.839     94.115
REMARK INTER + INTRA:          -5.617
REMARK INTER:                  -5.446
REMARK INTRA:                  -0.171
REMARK UNBOUND:                -0.150
REMARK  Name = 1550473
REMARK  2 active torsions:
REMARK  status: ('A' for Active; 'I' for Inactive)
REMARK    1  A    between atoms: N_1  and  C_4
REMARK    2  A    between atoms: C_4  and  C_5
REMARK                            x       y       z     vdW  Elec       q    Type
REMARK                         _______ _______ _______ _____ _____    ______ ____
ROOT
ATOM      1  N   UNL     1      10.971   8.158  51.263  0.00  0.00    -0.354 N 
ATOM      2  N   UNL     1       8.782   8.670  51.822  0.00  0.00    -0.372 N 
ATOM      3  N   UNL     1      10.366  10.328  51.908  0.00  0.00    -0.372 N 
ATOM      4  C   UNL     1      10.055   9.051  51.662  0.00  0.00    +0.166 C 
ATOM      5  H   UNL     1      10.677   7.198  51.122  0.00  0.00    +0.163 HD
ATOM      6  H   UNL     1       8.068   9.322  52.118  0.00  0.00    +0.159 HD
ATOM      7  H   UNL     1       8.483   7.721  51.636  0.00  0.00    +0.159 HD
ATOM      8  H   UNL     1      11.310  10.678  51.812  0.00  0.00    +0.159 HD
ATOM      9  H   UNL     1       9.668  10.993  52.217  0.00  0.00    +0.159 HD
ENDROOT
BRANCH   1  10
ATOM     10  C   UNL     1      12.373   8.483  51.007  0.00  0.00    +0.151 C 
BRANCH  10  11
ATOM     11  C   UNL     1      12.537   8.837  49.555  0.00  0.00    -0.028 A 
ATOM     12  C   UNL     1      12.282   7.886  48.556  0.00  0.00    +0.005 A 
ATOM     13  C   UNL     1      12.942  10.125  49.171  0.00  0.00    +0.005 A 
ATOM     14  C   UNL     1      12.405   8.224  47.206  0.00  0.00    +0.000 A 
ATOM     15  C   UNL     1      13.065  10.458  47.822  0.00  0.00    +0.000 A 
ATOM     16  C   UNL     1      12.794   9.508  46.840  0.00  0.00    +0.000 A 
ENDBRANCH  10  11
ENDBRANCH   1  10
TORSDOF 2
ENDMDL
MODEL 4
REMARK VINA RESULT:    -4.569     37.355     38.899
REMARK INTER + INTRA:          -5.253
REMARK INTER:                  -5.121
REMARK INTRA:                  -0.132
REMARK UNBOUND:                -0.150
REMARK  Name = 1550473
REMARK  2 active torsions:
REMARK  status: ('A' for Active; 'I' for Inactive)
REMARK    1  A    between atoms: N_1  and  C_4
REMARK    2  A    between atoms: C_4  and  C_5
REMARK                            x       y       z     vdW  Elec       q    Type
REMARK                         _______ _______ _______ _____ _____    ______ ____
ROOT
ATOM      1  N   UNL     1      -9.779   2.496  -5.434  0.00  0.00    -0.354 N 
ATOM      2  N   UNL     1     -11.739   1.530  -6.200  0.00  0.00    -0.372 N 
ATOM      3  N   UNL     1      -9.743   0.487  -6.639  0.00  0.00    -0.372 N 
ATOM      4  C   UNL     1     -10.405   1.509  -6.087  0.00  0.00    +0.166 C 
ATOM      5  H   UNL     1     -10.335   3.258  -5.064  0.00  0.00    +0.163 HD
ATOM      6  H   UNL     1     -12.240   0.797  -6.684  0.00  0.00    +0.159 HD
ATOM      7  H   UNL     1     -12.297   2.269  -5.790  0.00  0.00    +0.159 HD
ATOM      8  H   UNL     1      -8.735   0.415  -6.595  0.00  0.00    +0.159 HD
ATOM      9  H   UNL     1     -10.226  -0.250  -7.138  0.00  0.00    +0.159 HD
ENDROOT
BRANCH   1  10
ATOM     10  C   UNL     1      -8.335   2.539  -5.208  0.00  0.00    +0.151 C 
BRANCH  10  11
ATOM     11  C   UNL     1      -8.073   2.760  -3.744  0.00  0.00    -0.028 A 
ATOM     12  C   UNL     1      -8.040   1.675  -2.855  0.00  0.00    +0.005 A 
ATOM     13  C   UNL     1      -7.850   4.051  -3.240  0.00  0.00    +0.005 A 
ATOM     14  C   UNL     1      -7.767   1.876  -1.500  0.00  0.00    +0.000 A 
ATOM     15  C   UNL     1      -7.579   4.247  -1.886  0.00  0.00    +0.000 A 
ATOM     16  C   UNL     1      -7.535   3.160  -1.017  0.00  0.00    +0.000 A 
ENDBRANCH  10  11
ENDBRANCH   1  10
TORSDOF 2
ENDMDL
MODEL 5
REMARK VINA RESULT:    -4.424     76.153     77.431
REMARK INTER + INTRA:          -5.091
REMARK INTER:                  -4.968
REMARK INTRA:                  -0.123
REMARK UNBOUND:                -0.150
REMARK  Name = 1550473
REMARK  2 active torsions:
REMARK  status: ('A' for Active; 'I' for Inactive)
REMARK    1  A    between atoms: N_1  and  C_4
REMARK    2  A    between atoms: C_4  and  C_5
REMARK                            x       y       z     vdW  Elec       q    Type
REMARK                         _______ _______ _______ _____ _____    ______ ____
ROOT
ATOM      1  N   UNL     1      16.148   9.454  32.020  0.00  0.00    -0.354 N 
ATOM      2  N   UNL     1      16.990  10.892  33.629  0.00  0.00    -0.372 N 
ATOM      3  N   UNL     1      15.574   9.207  34.278  0.00  0.00    -0.372 N 
ATOM      4  C   UNL     1      16.230   9.840  33.300  0.00  0.00    +0.166 C 
ATOM      5  H   UNL     1      16.646   9.994  31.321  0.00  0.00    +0.163 HD
ATOM      6  H   UNL     1      17.074  11.204  34.587  0.00  0.00    +0.159 HD
ATOM      7  H   UNL     1      17.523  11.402  32.934  0.00  0.00    +0.159 HD
ATOM      8  H   UNL     1      14.979   8.410  34.096  0.00  0.00    +0.159 HD
ATOM      9  H   UNL     1      15.636   9.512  35.242  0.00  0.00    +0.159 HD
ENDROOT
BRANCH   1  10
ATOM     10  C   UNL     1      15.392   8.289  31.564  0.00  0.00    +0.151 C 
BRANCH  10  11
ATOM     11  C   UNL     1      15.556   8.148  30.076  0.00  0.00    -0.028 A 
ATOM     12  C   UNL     1      16.437   8.984  29.375  0.00  0.00    +0.005 A 
ATOM     13  C   UNL     1      14.837   7.177  29.362  0.00  0.00    +0.005 A 
ATOM     14  C   UNL     1      16.612   8.834  27.997  0.00  0.00    +0.000 A 
ATOM     15  C   UNL     1      15.015   7.031  27.986  0.00  0.00    +0.000 A 
ATOM     16  C   UNL     1      15.904   7.858  27.304  0.00  0.00    +0.000 A 
ENDBRANCH  10  11
ENDBRANCH   1  10
TORSDOF 2
ENDMDL
MODEL 6
REMARK VINA RESULT:    -4.287     81.573     82.838
REMARK INTER + INTRA:          -4.938
REMARK INTER:                  -4.811
REMARK INTRA:                  -0.127
REMARK UNBOUND:                -0.150
REMARK  Name = 1550473
REMARK  2 active torsions:
REMARK  status: ('A' for Active; 'I' for Inactive)
REMARK    1  A    between atoms: N_1  and  C_4
REMARK    2  A    between atoms: C_4  and  C_5
REMARK                            x       y       z     vdW  Elec       q    Type
REMARK                         _______ _______ _______ _____ _____    ______ ____
ROOT
ATOM      1  N   UNL     1      11.031   1.569  38.212  0.00  0.00    -0.354 N 
ATOM      2  N   UNL     1       9.017   0.511  37.777  0.00  0.00    -0.372 N 
ATOM      3  N   UNL     1       9.478   2.496  36.721  0.00  0.00    -0.372 N 
ATOM      4  C   UNL     1       9.855   1.535  37.572  0.00  0.00    +0.166 C 
ATOM      5  H   UNL     1      11.245   0.825  38.866  0.00  0.00    +0.163 HD
ATOM      6  H   UNL     1       8.125   0.456  37.306  0.00  0.00    +0.159 HD
ATOM      7  H   UNL     1       9.253  -0.254  38.397  0.00  0.00    +0.159 HD
ATOM      8  H   UNL     1      10.062   3.298  36.527  0.00  0.00    +0.159 HD
ATOM      9  H   UNL     1       8.583   2.464  36.249  0.00  0.00    +0.159 HD
ENDROOT
BRANCH   1  10
ATOM     10  C   UNL     1      12.038   2.611  38.017  0.00  0.00    +0.151 C 
BRANCH  10  11
ATOM     11  C   UNL     1      12.220   3.365  39.306  0.00  0.00    -0.028 A 
ATOM     12  C   UNL     1      13.506   3.644  39.791  0.00  0.00    +0.005 A 
ATOM     13  C   UNL     1      11.111   3.807  40.043  0.00  0.00    +0.005 A 
ATOM     14  C   UNL     1      13.676   4.370  40.973  0.00  0.00    +0.000 A 
ATOM     15  C   UNL     1      11.285   4.531  41.223  0.00  0.00    +0.000 A 
ATOM     16  C   UNL     1      12.568   4.814  41.686  0.00  0.00    +0.000 A 
ENDBRANCH  10  11
ENDBRANCH   1  10
TORSDOF 2
ENDMDL
MODEL 7
REMARK VINA RESULT:    -4.213     25.419     26.671
REMARK INTER + INTRA:          -4.856
REMARK INTER:                  -4.747
REMARK INTRA:                  -0.109
REMARK UNBOUND:                -0.150
REMARK  Name = 1550473
REMARK  2 active torsions:
REMARK  status: ('A' for Active; 'I' for Inactive)
REMARK    1  A    between atoms: N_1  and  C_4
REMARK    2  A    between atoms: C_4  and  C_5
REMARK                            x       y       z     vdW  Elec       q    Type
REMARK                         _______ _______ _______ _____ _____    ______ ____
ROOT
ATOM      1  N   UNL     1      -4.127 -14.164 -14.279  0.00  0.00    -0.354 N 
ATOM      2  N   UNL     1      -6.438 -14.314 -14.322  0.00  0.00    -0.372 N 
ATOM      3  N   UNL     1      -5.228 -15.375 -15.957  0.00  0.00    -0.372 N 
ATOM      4  C   UNL     1      -5.248 -14.618 -14.855  0.00  0.00    +0.166 C 
ATOM      5  H   UNL     1      -4.211 -13.569 -13.463  0.00  0.00    +0.163 HD
ATOM      6  H   UNL     1      -7.301 -14.645 -14.732  0.00  0.00    +0.159 HD
ATOM      7  H   UNL     1      -6.517 -13.757 -13.479  0.00  0.00    +0.159 HD
ATOM      8  H   UNL     1      -4.363 -15.635 -16.412  0.00  0.00    +0.159 HD
ATOM      9  H   UNL     1      -6.081 -15.706 -16.389  0.00  0.00    +0.159 HD
ENDROOT
BRANCH   1  10
ATOM     10  C   UNL     1      -2.780 -14.483 -14.750  0.00  0.00    +0.151 C 
BRANCH  10  11
ATOM     11  C   UNL     1      -1.782 -14.048 -13.712  0.00  0.00    -0.028 A 
ATOM     12  C   UNL     1      -0.666 -14.846 -13.419  0.00  0.00    +0.005 A 
ATOM     13  C   UNL     1      -1.943 -12.836 -13.023  0.00  0.00    +0.005 A 
ATOM     14  C   UNL     1       0.277 -14.428 -12.477  0.00  0.00    +0.000 A 
ATOM     15  C   UNL     1      -0.999 -12.423 -12.082  0.00  0.00    +0.000 A 
ATOM     16  C   UNL     1       0.112 -13.218 -11.811  0.00  0.00    +0.000 A 
ENDBRANCH  10  11
ENDBRANCH   1  10
TORSDOF 2
ENDMDL
MODEL 8
REMARK VINA RESULT:    -4.165     68.793     70.284
REMARK INTER + INTRA:          -4.802
REMARK INTER:                  -4.705
REMARK INTRA:                  -0.097
REMARK UNBOUND:                -0.150
REMARK  Name = 1550473
REMARK  2 active torsions:
REMARK  status: ('A' for Active; 'I' for Inactive)
REMARK    1  A    between atoms: N_1  and  C_4
REMARK    2  A    between atoms: C_4  and  C_5
REMARK                            x       y       z     vdW  Elec       q    Type
REMARK                         _______ _______ _______ _____ _____    ______ ____
ROOT
ATOM      1  N   UNL     1      11.264  15.456  22.987  0.00  0.00    -0.354 N 
ATOM      2  N   UNL     1      12.800  15.622  24.712  0.00  0.00    -0.372 N 
ATOM      3  N   UNL     1      11.350  13.844  24.686  0.00  0.00    -0.372 N 
ATOM      4  C   UNL     1      11.793  14.971  24.118  0.00  0.00    +0.166 C 
ATOM      5  H   UNL     1      11.624  16.331  22.623  0.00  0.00    +0.163 HD
ATOM      6  H   UNL     1      13.222  15.279  25.565  0.00  0.00    +0.159 HD
ATOM      7  H   UNL     1      13.189  16.472  24.322  0.00  0.00    +0.159 HD
ATOM      8  H   UNL     1      10.589  13.309  24.291  0.00  0.00    +0.159 HD
ATOM      9  H   UNL     1      11.751  13.491  25.546  0.00  0.00    +0.159 HD
ENDROOT
BRANCH   1  10
ATOM     10  C   UNL     1      10.201  14.795  22.232  0.00  0.00    +0.151 C 
BRANCH  10  11
ATOM     11  C   UNL     1       9.941  15.568  20.969  0.00  0.00    -0.028 A 
ATOM     12  C   UNL     1      10.140  14.971  19.715  0.00  0.00    +0.005 A 
ATOM     13  C   UNL     1       9.492  16.896  21.018  0.00  0.00    +0.005 A 
ATOM     14  C   UNL     1       9.871  15.678  18.541  0.00  0.00    +0.000 A 
ATOM     15  C   UNL     1       9.225  17.600  19.844  0.00  0.00    +0.000 A 
ATOM     16  C   UNL     1       9.412  16.990  18.606  0.00  0.00    +0.000 A 
ENDBRANCH  10  11
ENDBRANCH   1  10
TORSDOF 2
ENDMDL
MODEL 9
REMARK VINA RESULT:    -4.150     94.429     95.705
REMARK INTER + INTRA:          -4.785
REMARK INTER:                  -4.687
REMARK INTRA:                  -0.098
REMARK UNBOUND:                -0.150
REMARK  Name = 1550473
REMARK  2 active torsions:
REMARK  status: ('A' for Active; 'I' for Inactive)
REMARK    1  A    between atoms: N_1  and  C_4
REMARK    2  A    between atoms: C_4  and  C_5
REMARK                            x       y       z     vdW  Elec       q    Type
REMARK                         _______ _______ _______ _____ _____    ______ ____
ROOT
ATOM      1  N   UNL     1      10.384   8.167  52.663  0.00  0.00    -0.354 N 
ATOM      2  N   UNL     1       8.855   6.906  53.862  0.00  0.00    -0.372 N 
ATOM      3  N   UNL     1       9.806   8.739  54.861  0.00  0.00    -0.372 N 
ATOM      4  C   UNL     1       9.692   7.948  53.790  0.00  0.00    +0.166 C 
ATOM      5  H   UNL     1      10.275   7.513  51.897  0.00  0.00    +0.163 HD
ATOM      6  H   UNL     1       8.317   6.717  54.697  0.00  0.00    +0.159 HD
ATOM      7  H   UNL     1       8.714   6.280  53.078  0.00  0.00    +0.159 HD
ATOM      8  H   UNL     1      10.426   9.538  54.873  0.00  0.00    +0.159 HD
ATOM      9  H   UNL     1       9.286   8.559  55.711  0.00  0.00    +0.159 HD
ENDROOT
BRANCH   1  10
ATOM     10  C   UNL     1      11.281   9.304  52.463  0.00  0.00    +0.151 C 
BRANCH  10  11
ATOM     11  C   UNL     1      11.953   9.169  51.125  0.00  0.00    -0.028 A 
ATOM     12  C   UNL     1      13.345   9.015  51.040  0.00  0.00    +0.005 A 
ATOM     13  C   UNL     1      11.204   9.189  49.938  0.00  0.00    +0.005 A 
ATOM     14  C   UNL     1      13.967   8.859  49.798  0.00  0.00    +0.000 A 
ATOM     15  C   UNL     1      11.829   9.034  48.701  0.00  0.00    +0.000 A 
ATOM     16  C   UNL     1      13.210   8.867  48.632  0.00  0.00    +0.000 A 
ENDBRANCH  10  11
ENDBRANCH   1  10
TORSDOF 2
ENDMDL
