MODEL 1
REMARK VINA RESULT:    -4.704      0.000      0.000
REMARK INTER + INTRA:          -5.399
REMARK INTER:                  -5.254
REMARK INTRA:                  -0.145
REMARK UNBOUND:                -0.145
REMARK  Name = 1550473
REMARK  2 active torsions:
REMARK  status: ('A' for Active; 'I' for Inactive)
REMARK    1  A    between atoms: N_1  and  C_4
REMARK    2  A    between atoms: C_4  and  C_5
REMARK                            x       y       z     vdW  Elec       q    Type
REMARK                         _______ _______ _______ _____ _____    ______ ____
ROOT
ATOM      1  N   UNL     1      -8.168  -6.311 -11.394  0.00  0.00    -0.354 N 
ATOM      2  N   UNL     1      -9.487  -6.737 -13.249  0.00  0.00    -0.372 N 
ATOM      3  N   UNL     1     -10.446  -5.761 -11.407  0.00  0.00    -0.372 N 
ATOM      4  C   UNL     1      -9.360  -6.266 -12.003  0.00  0.00    +0.166 C 
ATOM      5  H   UNL     1      -7.391  -6.734 -11.888  0.00  0.00    +0.163 HD
ATOM      6  H   UNL     1     -10.373  -6.713 -13.736  0.00  0.00    +0.159 HD
ATOM      7  H   UNL     1      -8.698  -7.117 -13.758  0.00  0.00    +0.159 HD
ATOM      8  H   UNL     1     -10.418  -5.395 -10.465  0.00  0.00    +0.159 HD
ATOM      9  H   UNL     1     -11.344  -5.739 -11.873  0.00  0.00    +0.159 HD
ENDROOT
BRANCH   1  10
ATOM     10  C   UNL     1      -7.911  -5.776 -10.058  0.00  0.00    +0.151 C 
BRANCH  10  11
ATOM     11  C   UNL     1      -6.882  -4.684 -10.155  0.00  0.00    -0.028 A 
ATOM     12  C   UNL     1      -5.522  -4.998 -10.298  0.00  0.00    +0.005 A 
ATOM     13  C   UNL     1      -7.260  -3.334 -10.112  0.00  0.00    +0.005 A 
ATOM     14  C   UNL     1      -4.569  -3.984 -10.418  0.00  0.00    +0.000 A 
ATOM     15  C   UNL     1      -6.305  -2.324 -10.232  0.00  0.00    +0.000 A 
ATOM     16  C   UNL     1      -4.960  -2.650 -10.388  0.00  0.00    +0.000 A 
ENDBRANCH  10  11
ENDBRANCH   1  10
TORSDOF 2
ENDMDL
MODEL 2
REMARK VINA RESULT:    -4.634     30.736     32.427
REMARK INTER + INTRA:          -5.321
REMARK INTER:                  -5.187
REMARK INTRA:                  -0.134
REMARK UNBOUND:                -0.145
REMARK  Name = 1550473
REMARK  2 active torsions:
REMARK  status: ('A' for Active; 'I' for Inactive)
REMARK    1  A    between atoms: N_1  and  C_4
REMARK    2  A    between atoms: C_4  and  C_5
REMARK                            x       y       z     vdW  Elec       q    Type
REMARK                         _______ _______ _______ _____ _____    ______ ____
ROOT
ATOM      1  N   UNL     1      18.957  13.925  -1.384  0.00  0.00    -0.354 N 
ATOM      2  N   UNL     1      19.819  14.734   0.608  0.00  0.00    -0.372 N 
ATOM      3  N   UNL     1      17.820  15.564  -0.153  0.00  0.00    -0.372 N 
ATOM      4  C   UNL     1      18.857  14.737  -0.323  0.00  0.00    +0.166 C 
ATOM      5  H   UNL     1      19.783  13.345  -1.470  0.00  0.00    +0.163 HD
ATOM      6  H   UNL     1      19.770  15.334   1.421  0.00  0.00    +0.159 HD
ATOM      7  H   UNL     1      20.622  14.120   0.543  0.00  0.00    +0.159 HD
ATOM      8  H   UNL     1      17.064  15.618  -0.823  0.00  0.00    +0.159 HD
ATOM      9  H   UNL     1      17.758  16.179   0.648  0.00  0.00    +0.159 HD
ENDROOT
BRANCH   1  10
ATOM     10  C   UNL     1      17.938  13.813  -2.426  0.00  0.00    +0.151 C 
BRANCH  10  11
ATOM     11  C   UNL     1      17.781  12.366  -2.806  0.00  0.00    -0.028 A 
ATOM     12  C   UNL     1      18.737  11.419  -2.412  0.00  0.00    +0.005 A 
ATOM     13  C   UNL     1      16.674  11.936  -3.553  0.00  0.00    +0.005 A 
ATOM     14  C   UNL     1      18.576  10.070  -2.738  0.00  0.00    +0.000 A 
ATOM     15  C   UNL     1      16.517  10.588  -3.878  0.00  0.00    +0.000 A 
ATOM     16  C   UNL     1      17.467   9.656  -3.468  0.00  0.00    +0.000 A 
ENDBRANCH  10  11
ENDBRANCH   1  10
TORSDOF 2
ENDMDL
MODEL 3
REMARK VINA RESULT:    -4.532      2.742      4.987
REMARK INTER + INTRA:          -5.207
REMARK INTER:                  -5.063
REMARK INTRA:                  -0.145
REMARK UNBOUND:                -0.145
REMARK  Name = 1550473
REMARK  2 active torsions:
REMARK  status: ('A' for Active; 'I' for Inactive)
REMARK    1  A    between atoms: N_1  and  C_4
REMARK    2  A    between atoms: C_4  and  C_5
REMARK                            x       y       z     vdW  Elec       q    Type
REMARK                         _______ _______ _______ _____ _____    ______ ____
ROOT
ATOM      1  N   UNL     1      -6.303  -4.323 -10.269  0.00  0.00    -0.354 N 
ATOM      2  N   UNL     1      -5.918  -2.046 -10.446  0.00  0.00    -0.372 N 
ATOM      3  N   UNL     1      -5.634  -3.064  -8.409  0.00  0.00    -0.372 N 
ATOM      4  C   UNL     1      -5.954  -3.160  -9.704  0.00  0.00    +0.166 C 
ATOM      5  H   UNL     1      -6.564  -4.324 -11.248  0.00  0.00    +0.163 HD
ATOM      6  H   UNL     1      -5.655  -1.155 -10.048  0.00  0.00    +0.159 HD
ATOM      7  H   UNL     1      -6.135  -2.058 -11.435  0.00  0.00    +0.159 HD
ATOM      8  H   UNL     1      -5.647  -3.866  -7.794  0.00  0.00    +0.159 HD
ATOM      9  H   UNL     1      -5.379  -2.178  -7.990  0.00  0.00    +0.159 HD
ENDROOT
BRANCH   1  10
ATOM     10  C   UNL     1      -6.322  -5.603  -9.562  0.00  0.00    +0.151 C 
BRANCH  10  11
ATOM     11  C   UNL     1      -7.713  -6.170  -9.609  0.00  0.00    -0.028 A 
ATOM     12  C   UNL     1      -8.543  -5.929 -10.714  0.00  0.00    +0.005 A 
ATOM     13  C   UNL     1      -8.206  -6.955  -8.555  0.00  0.00    +0.005 A 
ATOM     14  C   UNL     1      -9.825  -6.481 -10.772  0.00  0.00    +0.000 A 
ATOM     15  C   UNL     1      -9.487  -7.504  -8.617  0.00  0.00    +0.000 A 
ATOM     16  C   UNL     1     -10.295  -7.269  -9.726  0.00  0.00    +0.000 A 
ENDBRANCH  10  11
ENDBRANCH   1  10
TORSDOF 2
ENDMDL
MODEL 4
REMARK VINA RESULT:    -4.507     26.012     26.780
REMARK INTER + INTRA:          -5.179
REMARK INTER:                  -5.061
REMARK INTRA:                  -0.117
REMARK UNBOUND:                -0.145
REMARK  Name = 1550473
REMARK  2 active torsions:
REMARK  status: ('A' for Active; 'I' for Inactive)
REMARK    1  A    between atoms: N_1  and  C_4
REMARK    2  A    between atoms: C_4  and  C_5
REMARK                            x       y       z     vdW  Elec       q    Type
REMARK                         _______ _______ _______ _____ _____    ______ ____
ROOT
ATOM      1  N   UNL     1      19.805  -9.238  -9.510  0.00  0.00    -0.354 N 
ATOM      2  N   UNL     1      21.222  -9.752 -11.269  0.00  0.00    -0.372 N 
ATOM      3  N   UNL     1      19.945 -11.421 -10.349  0.00  0.00    -0.372 N 
ATOM      4  C   UNL     1      20.314 -10.136 -10.364  0.00  0.00    +0.166 C 
ATOM      5  H   UNL     1      20.149  -8.285  -9.553  0.00  0.00    +0.163 HD
ATOM      6  H   UNL     1      21.621 -10.406 -11.928  0.00  0.00    +0.159 HD
ATOM      7  H   UNL     1      21.529  -8.789 -11.339  0.00  0.00    +0.159 HD
ATOM      8  H   UNL     1      19.268 -11.777  -9.687  0.00  0.00    +0.159 HD
ATOM      9  H   UNL     1      20.341 -12.094 -10.994  0.00  0.00    +0.159 HD
ENDROOT
BRANCH   1  10
ATOM     10  C   UNL     1      18.772  -9.543  -8.522  0.00  0.00    +0.151 C 
BRANCH  10  11
ATOM     11  C   UNL     1      18.330  -8.265  -7.863  0.00  0.00    -0.028 A 
ATOM     12  C   UNL     1      17.890  -8.266  -6.532  0.00  0.00    +0.005 A 
ATOM     13  C   UNL     1      18.355  -7.049  -8.564  0.00  0.00    +0.005 A 
ATOM     14  C   UNL     1      17.508  -7.074  -5.910  0.00  0.00    +0.000 A 
ATOM     15  C   UNL     1      17.972  -5.862  -7.940  0.00  0.00    +0.000 A 
ATOM     16  C   UNL     1      17.551  -5.875  -6.612  0.00  0.00    +0.000 A 
ENDBRANCH  10  11
ENDBRANCH   1  10
TORSDOF 2
ENDMDL
MODEL 5
REMARK VINA RESULT:    -4.441     24.411     25.995
REMARK INTER + INTRA:          -5.106
REMARK INTER:                  -5.012
REMARK INTRA:                  -0.094
REMARK UNBOUND:                -0.145
REMARK  Name = 1550473
REMARK  2 active torsions:
REMARK  status: ('A' for Active; 'I' for Inactive)
REMARK    1  A    between atoms: N_1  and  C_4
REMARK    2  A    between atoms: C_4  and  C_5
REMARK                            x       y       z     vdW  Elec       q    Type
REMARK                         _______ _______ _______ _____ _____    ______ ____
ROOT
ATOM      1  N   UNL     1      19.053  -9.323  -7.638  0.00  0.00    -0.354 N 
ATOM      2  N   UNL     1      20.202 -10.294  -9.400  0.00  0.00    -0.372 N 
ATOM      3  N   UNL     1      19.520 -11.620  -7.656  0.00  0.00    -0.372 N 
ATOM      4  C   UNL     1      19.584 -10.408  -8.218  0.00  0.00    +0.166 C 
ATOM      5  H   UNL     1      19.161  -8.428  -8.102  0.00  0.00    +0.163 HD
ATOM      6  H   UNL     1      20.609 -11.095  -9.863  0.00  0.00    +0.159 HD
ATOM      7  H   UNL     1      20.268  -9.406  -9.883  0.00  0.00    +0.159 HD
ATOM      8  H   UNL     1      19.073 -11.772  -6.762  0.00  0.00    +0.159 HD
ATOM      9  H   UNL     1      19.932 -12.432  -8.098  0.00  0.00    +0.159 HD
ENDROOT
BRANCH   1  10
ATOM     10  C   UNL     1      18.312  -9.350  -6.378  0.00  0.00    +0.151 C 
BRANCH  10  11
ATOM     11  C   UNL     1      17.431  -8.133  -6.301  0.00  0.00    -0.028 A 
ATOM     12  C   UNL     1      16.052  -8.237  -6.535  0.00  0.00    +0.005 A 
ATOM     13  C   UNL     1      17.969  -6.875  -5.988  0.00  0.00    +0.005 A 
ATOM     14  C   UNL     1      15.229  -7.113  -6.434  0.00  0.00    +0.000 A 
ATOM     15  C   UNL     1      17.143  -5.755  -5.888  0.00  0.00    +0.000 A 
ATOM     16  C   UNL     1      15.773  -5.875  -6.109  0.00  0.00    +0.000 A 
ENDBRANCH  10  11
ENDBRANCH   1  10
TORSDOF 2
ENDMDL
MODEL 6
REMARK VINA RESULT:    -4.436     13.592     14.669
REMARK INTER + INTRA:          -5.099
REMARK INTER:                  -4.924
REMARK INTRA:                  -0.175
REMARK UNBOUND:                -0.145
REMARK  Name = 1550473
REMARK  2 active torsions:
REMARK  status: ('A' for Active; 'I' for Inactive)
REMARK    1  A    between atoms: N_1  and  C_4
REMARK    2  A    between atoms: C_4  and  C_5
REMARK                            x       y       z     vdW  Elec       q    Type
REMARK                         _______ _______ _______ _____ _____    ______ ____
ROOT
ATOM      1  N   UNL     1      -4.365   4.617 -19.961  0.00  0.00    -0.354 N 
ATOM      2  N   UNL     1      -6.266   5.334 -18.849  0.00  0.00    -0.372 N 
ATOM      3  N   UNL     1      -4.510   4.505 -17.625  0.00  0.00    -0.372 N 
ATOM      4  C   UNL     1      -5.033   4.813 -18.817  0.00  0.00    +0.166 C 
ATOM      5  H   UNL     1      -4.828   4.843 -20.834  0.00  0.00    +0.163 HD
ATOM      6  H   UNL     1      -6.793   5.496 -18.002  0.00  0.00    +0.159 HD
ATOM      7  H   UNL     1      -6.708   5.601 -19.720  0.00  0.00    +0.159 HD
ATOM      8  H   UNL     1      -3.587   4.104 -17.533  0.00  0.00    +0.159 HD
ATOM      9  H   UNL     1      -5.027   4.650 -16.766  0.00  0.00    +0.159 HD
ENDROOT
BRANCH   1  10
ATOM     10  C   UNL     1      -2.997   4.106 -20.032  0.00  0.00    +0.151 C 
BRANCH  10  11
ATOM     11  C   UNL     1      -2.061   5.246 -20.326  0.00  0.00    -0.028 A 
ATOM     12  C   UNL     1      -1.724   5.567 -21.649  0.00  0.00    +0.005 A 
ATOM     13  C   UNL     1      -1.513   6.012 -19.286  0.00  0.00    +0.005 A 
ATOM     14  C   UNL     1      -0.879   6.645 -21.924  0.00  0.00    +0.000 A 
ATOM     15  C   UNL     1      -0.669   7.087 -19.565  0.00  0.00    +0.000 A 
ATOM     16  C   UNL     1      -0.354   7.404 -20.884  0.00  0.00    +0.000 A 
ENDBRANCH  10  11
ENDBRANCH   1  10
TORSDOF 2
ENDMDL
MODEL 7
REMARK VINA RESULT:    -4.420     30.072     31.687
REMARK INTER + INTRA:          -5.082
REMARK INTER:                  -4.959
REMARK INTRA:                  -0.123
REMARK UNBOUND:                -0.145
REMARK  Name = 1550473
REMARK  2 active torsions:
REMARK  status: ('A' for Active; 'I' for Inactive)
REMARK    1  A    between atoms: N_1  and  C_4
REMARK    2  A    between atoms: C_4  and  C_5
REMARK                            x       y       z     vdW  Elec       q    Type
REMARK                         _______ _______ _______ _____ _____    ______ ____
ROOT
ATOM      1  N   UNL     1      17.127  14.113  -2.573  0.00  0.00    -0.354 N 
ATOM      2  N   UNL     1      15.891  16.038  -2.211  0.00  0.00    -0.372 N 
ATOM      3  N   UNL     1      17.950  15.838  -1.216  0.00  0.00    -0.372 N 
ATOM      4  C   UNL     1      17.000  15.318  -2.001  0.00  0.00    +0.166 C 
ATOM      5  H   UNL     1      16.358  13.763  -3.133  0.00  0.00    +0.163 HD
ATOM      6  H   UNL     1      15.769  16.952  -1.795  0.00  0.00    +0.159 HD
ATOM      7  H   UNL     1      15.144  15.705  -2.807  0.00  0.00    +0.159 HD
ATOM      8  H   UNL     1      18.807  15.342  -1.013  0.00  0.00    +0.159 HD
ATOM      9  H   UNL     1      17.840  16.745  -0.781  0.00  0.00    +0.159 HD
ENDROOT
BRANCH   1  10
ATOM     10  C   UNL     1      18.316  13.272  -2.452  0.00  0.00    +0.151 C 
BRANCH  10  11
ATOM     11  C   UNL     1      17.960  11.861  -2.833  0.00  0.00    -0.028 A 
ATOM     12  C   UNL     1      16.783  11.592  -3.546  0.00  0.00    +0.005 A 
ATOM     13  C   UNL     1      18.800  10.790  -2.489  0.00  0.00    +0.005 A 
ATOM     14  C   UNL     1      16.467  10.285  -3.926  0.00  0.00    +0.000 A 
ATOM     15  C   UNL     1      18.480   9.487  -2.870  0.00  0.00    +0.000 A 
ATOM     16  C   UNL     1      17.316   9.235  -3.590  0.00  0.00    +0.000 A 
ENDBRANCH  10  11
ENDBRANCH   1  10
TORSDOF 2
ENDMDL
MODEL 8
REMARK VINA RESULT:    -4.384     22.830     23.801
REMARK INTER + INTRA:          -5.042
REMARK INTER:                  -4.923
REMARK INTRA:                  -0.118
REMARK UNBOUND:                -0.145
REMARK  Name = 1550473
REMARK  2 active torsions:
REMARK  status: ('A' for Active; 'I' for Inactive)
REMARK    1  A    between atoms: N_1  and  C_4
REMARK    2  A    between atoms: C_4  and  C_5
REMARK                            x       y       z     vdW  Elec       q    Type
REMARK                         _______ _______ _______ _____ _____    ______ ____
ROOT
ATOM      1  N   UNL     1      -7.637 -10.937  12.555  0.00  0.00    -0.354 N 
ATOM      2  N   UNL     1      -6.238 -12.401  13.679  0.00  0.00    -0.372 N 
ATOM      3  N   UNL     1      -7.723 -11.136  14.888  0.00  0.00    -0.372 N 
ATOM      4  C   UNL     1      -7.210 -11.480  13.702  0.00  0.00    +0.166 C 
ATOM      5  H   UNL     1      -7.187 -11.219  11.691  0.00  0.00    +0.163 HD
ATOM      6  H   UNL     1      -5.898 -12.831  14.528  0.00  0.00    +0.159 HD
ATOM      7  H   UNL     1      -5.821 -12.714  12.811  0.00  0.00    +0.159 HD
ATOM      8  H   UNL     1      -8.454 -10.443  14.974  0.00  0.00    +0.159 HD
ATOM      9  H   UNL     1      -7.387 -11.547  15.750  0.00  0.00    +0.159 HD
ENDROOT
BRANCH   1  10
ATOM     10  C   UNL     1      -8.727  -9.966  12.465  0.00  0.00    +0.151 C 
BRANCH  10  11
ATOM     11  C   UNL     1      -9.566 -10.280  11.257  0.00  0.00    -0.028 A 
ATOM     12  C   UNL     1      -8.961 -10.607  10.035  0.00  0.00    +0.005 A 
ATOM     13  C   UNL     1     -10.967 -10.256  11.330  0.00  0.00    +0.005 A 
ATOM     14  C   UNL     1      -9.740 -10.927   8.921  0.00  0.00    +0.000 A 
ATOM     15  C   UNL     1     -11.742 -10.576  10.215  0.00  0.00    +0.000 A 
ATOM     16  C   UNL     1     -11.128 -10.914   9.011  0.00  0.00    +0.000 A 
ENDBRANCH  10  11
ENDBRANCH   1  10
TORSDOF 2
ENDMDL
MODEL 9
REMARK VINA RESULT:    -4.293     27.938     29.188
REMARK INTER + INTRA:          -4.940
REMARK INTER:                  -4.760
REMARK INTRA:                  -0.180
REMARK UNBOUND:                -0.145
REMARK  Name = 1550473
REMARK  2 active torsions:
REMARK  status: ('A' for Active; 'I' for Inactive)
REMARK    1  A    between atoms: N_1  and  C_4
REMARK    2  A    between atoms: C_4  and  C_5
REMARK                            x       y       z     vdW  Elec       q    Type
REMARK                         _______ _______ _______ _____ _____    ______ ____
ROOT
ATOM      1  N   UNL     1      -2.930  24.995  -9.017  0.00  0.00    -0.354 N 
ATOM      2  N   UNL     1      -1.106  24.081  -7.921  0.00  0.00    -0.372 N 
ATOM      3  N   UNL     1      -3.132  24.138  -6.845  0.00  0.00    -0.372 N 
ATOM      4  C   UNL     1      -2.403  24.411  -7.933  0.00  0.00    +0.166 C 
ATOM      5  H   UNL     1      -2.318  25.203  -9.798  0.00  0.00    +0.163 HD
ATOM      6  H   UNL     1      -0.681  23.636  -7.119  0.00  0.00    +0.159 HD
ATOM      7  H   UNL     1      -0.506  24.248  -8.720  0.00  0.00    +0.159 HD
ATOM      8  H   UNL     1      -4.115  24.367  -6.788  0.00  0.00    +0.159 HD
ATOM      9  H   UNL     1      -2.722  23.704  -6.028  0.00  0.00    +0.159 HD
ENDROOT
BRANCH   1  10
ATOM     10  C   UNL     1      -4.343  25.345  -9.152  0.00  0.00    +0.151 C 
BRANCH  10  11
ATOM     11  C   UNL     1      -5.057  24.236  -9.874  0.00  0.00    -0.028 A 
ATOM     12  C   UNL     1      -4.677  23.873 -11.175  0.00  0.00    +0.005 A 
ATOM     13  C   UNL     1      -6.110  23.540  -9.261  0.00  0.00    +0.005 A 
ATOM     14  C   UNL     1      -5.320  22.823 -11.835  0.00  0.00    +0.000 A 
ATOM     15  C   UNL     1      -6.750  22.493  -9.924  0.00  0.00    +0.000 A 
ATOM     16  C   UNL     1      -6.353  22.133 -11.210  0.00  0.00    +0.000 A 
ENDBRANCH  10  11
ENDBRANCH   1  10
TORSDOF 2
ENDMDL
