MODEL 1
REMARK VINA RESULT:    -4.954      0.000      0.000
REMARK INTER + INTRA:          -5.713
REMARK INTER:                  -5.533
REMARK INTRA:                  -0.180
REMARK UNBOUND:                -0.180
REMARK  Name = 1550473
REMARK  2 active torsions:
REMARK  status: ('A' for Active; 'I' for Inactive)
REMARK    1  A    between atoms: N_1  and  C_4
REMARK    2  A    between atoms: C_4  and  C_5
REMARK                            x       y       z     vdW  Elec       q    Type
REMARK                         _______ _______ _______ _____ _____    ______ ____
ROOT
ATOM      1  N   UNL     1      -6.895   9.040   0.251  0.00  0.00    -0.354 N 
ATOM      2  N   UNL     1      -7.864  11.134   0.448  0.00  0.00    -0.372 N 
ATOM      3  N   UNL     1      -6.423  10.420   2.085  0.00  0.00    -0.372 N 
ATOM      4  C   UNL     1      -7.053  10.184   0.929  0.00  0.00    +0.166 C 
ATOM      5  H   UNL     1      -7.424   8.910  -0.604  0.00  0.00    +0.163 HD
ATOM      6  H   UNL     1      -8.000  12.009   0.935  0.00  0.00    +0.159 HD
ATOM      7  H   UNL     1      -8.356  11.020  -0.430  0.00  0.00    +0.159 HD
ATOM      8  H   UNL     1      -5.802   9.742   2.505  0.00  0.00    +0.159 HD
ATOM      9  H   UNL     1      -6.556  11.285   2.593  0.00  0.00    +0.159 HD
ENDROOT
BRANCH   1  10
ATOM     10  C   UNL     1      -5.994   7.964   0.661  0.00  0.00    +0.151 C 
BRANCH  10  11
ATOM     11  C   UNL     1      -6.804   6.847   1.259  0.00  0.00    -0.028 A 
ATOM     12  C   UNL     1      -7.598   6.027   0.444  0.00  0.00    +0.005 A 
ATOM     13  C   UNL     1      -6.777   6.599   2.640  0.00  0.00    +0.005 A 
ATOM     14  C   UNL     1      -8.326   4.970   0.995  0.00  0.00    +0.000 A 
ATOM     15  C   UNL     1      -7.506   5.543   3.187  0.00  0.00    +0.000 A 
ATOM     16  C   UNL     1      -8.279   4.727   2.364  0.00  0.00    +0.000 A 
ENDBRANCH  10  11
ENDBRANCH   1  10
TORSDOF 2
ENDMDL
MODEL 2
REMARK VINA RESULT:    -4.667      1.432      2.288
REMARK INTER + INTRA:          -5.392
REMARK INTER:                  -5.261
REMARK INTRA:                  -0.131
REMARK UNBOUND:                -0.180
REMARK  Name = 1550473
REMARK  2 active torsions:
REMARK  status: ('A' for Active; 'I' for Inactive)
REMARK    1  A    between atoms: N_1  and  C_4
REMARK    2  A    between atoms: C_4  and  C_5
REMARK                            x       y       z     vdW  Elec       q    Type
REMARK                         _______ _______ _______ _____ _____    ______ ____
ROOT
ATOM      1  N   UNL     1      -5.416   8.094   1.378  0.00  0.00    -0.354 N 
ATOM      2  N   UNL     1      -4.209   9.831   2.322  0.00  0.00    -0.372 N 
ATOM      3  N   UNL     1      -5.330  10.200   0.354  0.00  0.00    -0.372 N 
ATOM      4  C   UNL     1      -4.994   9.365   1.343  0.00  0.00    +0.166 C 
ATOM      5  H   UNL     1      -5.101   7.503   2.139  0.00  0.00    +0.163 HD
ATOM      6  H   UNL     1      -3.878  10.786   2.324  0.00  0.00    +0.159 HD
ATOM      7  H   UNL     1      -3.934   9.251   3.106  0.00  0.00    +0.159 HD
ATOM      8  H   UNL     1      -5.914   9.909  -0.418  0.00  0.00    +0.159 HD
ATOM      9  H   UNL     1      -4.999  11.157   0.333  0.00  0.00    +0.159 HD
ENDROOT
BRANCH   1  10
ATOM     10  C   UNL     1      -6.317   7.504   0.390  0.00  0.00    +0.151 C 
BRANCH  10  11
ATOM     11  C   UNL     1      -7.119   6.414   1.045  0.00  0.00    -0.028 A 
ATOM     12  C   UNL     1      -7.074   6.235   2.435  0.00  0.00    +0.005 A 
ATOM     13  C   UNL     1      -7.931   5.561   0.282  0.00  0.00    +0.005 A 
ATOM     14  C   UNL     1      -7.843   5.241   3.048  0.00  0.00    +0.000 A 
ATOM     15  C   UNL     1      -8.696   4.570   0.897  0.00  0.00    +0.000 A 
ATOM     16  C   UNL     1      -8.654   4.412   2.280  0.00  0.00    +0.000 A 
ENDBRANCH  10  11
ENDBRANCH   1  10
TORSDOF 2
ENDMDL
MODEL 3
REMARK VINA RESULT:    -4.615      1.818      2.805
REMARK INTER + INTRA:          -5.334
REMARK INTER:                  -5.195
REMARK INTRA:                  -0.139
REMARK UNBOUND:                -0.180
REMARK  Name = 1550473
REMARK  2 active torsions:
REMARK  status: ('A' for Active; 'I' for Inactive)
REMARK    1  A    between atoms: N_1  and  C_4
REMARK    2  A    between atoms: C_4  and  C_5
REMARK                            x       y       z     vdW  Elec       q    Type
REMARK                         _______ _______ _______ _____ _____    ______ ____
ROOT
ATOM      1  N   UNL     1      -8.339  11.187   0.356  0.00  0.00    -0.354 N 
ATOM      2  N   UNL     1     -10.128  12.612  -0.008  0.00  0.00    -0.372 N 
ATOM      3  N   UNL     1      -9.158  12.557   2.071  0.00  0.00    -0.372 N 
ATOM      4  C   UNL     1      -9.196  12.109   0.812  0.00  0.00    +0.166 C 
ATOM      5  H   UNL     1      -8.439  10.867  -0.601  0.00  0.00    +0.163 HD
ATOM      6  H   UNL     1     -10.786  13.312   0.307  0.00  0.00    +0.159 HD
ATOM      7  H   UNL     1     -10.196  12.324  -0.976  0.00  0.00    +0.159 HD
ATOM      8  H   UNL     1      -8.483  12.213   2.741  0.00  0.00    +0.159 HD
ATOM      9  H   UNL     1      -9.816  13.248   2.408  0.00  0.00    +0.159 HD
ENDROOT
BRANCH   1  10
ATOM     10  C   UNL     1      -7.253  10.615   1.151  0.00  0.00    +0.151 C 
BRANCH  10  11
ATOM     11  C   UNL     1      -7.268   9.119   0.999  0.00  0.00    -0.028 A 
ATOM     12  C   UNL     1      -8.420   8.383   1.313  0.00  0.00    +0.005 A 
ATOM     13  C   UNL     1      -6.135   8.432   0.536  0.00  0.00    +0.005 A 
ATOM     14  C   UNL     1      -8.444   6.996   1.144  0.00  0.00    +0.000 A 
ATOM     15  C   UNL     1      -6.163   7.048   0.369  0.00  0.00    +0.000 A 
ATOM     16  C   UNL     1      -7.318   6.331   0.671  0.00  0.00    +0.000 A 
ENDBRANCH  10  11
ENDBRANCH   1  10
TORSDOF 2
ENDMDL
MODEL 4
REMARK VINA RESULT:    -4.383     18.367     19.639
REMARK INTER + INTRA:          -5.075
REMARK INTER:                  -4.942
REMARK INTRA:                  -0.133
REMARK UNBOUND:                -0.180
REMARK  Name = 1550473
REMARK  2 active torsions:
REMARK  status: ('A' for Active; 'I' for Inactive)
REMARK    1  A    between atoms: N_1  and  C_4
REMARK    2  A    between atoms: C_4  and  C_5
REMARK                            x       y       z     vdW  Elec       q    Type
REMARK                         _______ _______ _______ _____ _____    ______ ____
ROOT
ATOM      1  N   UNL     1       4.077   2.324  14.604  0.00  0.00    -0.354 N 
ATOM      2  N   UNL     1       4.605   4.375  13.667  0.00  0.00    -0.372 N 
ATOM      3  N   UNL     1       3.317   4.321  15.565  0.00  0.00    -0.372 N 
ATOM      4  C   UNL     1       3.994   3.661  14.620  0.00  0.00    +0.166 C 
ATOM      5  H   UNL     1       4.581   1.882  13.843  0.00  0.00    +0.163 HD
ATOM      6  H   UNL     1       4.563   5.386  13.656  0.00  0.00    +0.159 HD
ATOM      7  H   UNL     1       5.146   3.933  12.934  0.00  0.00    +0.159 HD
ATOM      8  H   UNL     1       2.829   3.840  16.309  0.00  0.00    +0.159 HD
ATOM      9  H   UNL     1       3.253   5.331  15.564  0.00  0.00    +0.159 HD
ENDROOT
BRANCH   1  10
ATOM     10  C   UNL     1       3.494   1.456  15.625  0.00  0.00    +0.151 C 
BRANCH  10  11
ATOM     11  C   UNL     1       4.386   0.262  15.823  0.00  0.00    -0.028 A 
ATOM     12  C   UNL     1       4.078  -0.705  16.791  0.00  0.00    +0.005 A 
ATOM     13  C   UNL     1       5.539   0.088  15.041  0.00  0.00    +0.005 A 
ATOM     14  C   UNL     1       4.890  -1.830  16.955  0.00  0.00    +0.000 A 
ATOM     15  C   UNL     1       6.347  -1.036  15.208  0.00  0.00    +0.000 A 
ATOM     16  C   UNL     1       6.022  -1.996  16.163  0.00  0.00    +0.000 A 
ENDBRANCH  10  11
ENDBRANCH   1  10
TORSDOF 2
ENDMDL
MODEL 5
REMARK VINA RESULT:    -4.361      3.126      4.604
REMARK INTER + INTRA:          -5.050
REMARK INTER:                  -4.923
REMARK INTRA:                  -0.127
REMARK UNBOUND:                -0.180
REMARK  Name = 1550473
REMARK  2 active torsions:
REMARK  status: ('A' for Active; 'I' for Inactive)
REMARK    1  A    between atoms: N_1  and  C_4
REMARK    2  A    between atoms: C_4  and  C_5
REMARK                            x       y       z     vdW  Elec       q    Type
REMARK                         _______ _______ _______ _____ _____    ______ ____
ROOT
ATOM      1  N   UNL     1      -9.450   5.838   1.124  0.00  0.00    -0.354 N 
ATOM      2  N   UNL     1     -11.340   5.304   2.352  0.00  0.00    -0.372 N 
ATOM      3  N   UNL     1      -9.758   3.682   1.989  0.00  0.00    -0.372 N 
ATOM      4  C   UNL     1     -10.169   4.942   1.814  0.00  0.00    +0.166 C 
ATOM      5  H   UNL     1      -9.832   6.769   1.001  0.00  0.00    +0.163 HD
ATOM      6  H   UNL     1     -11.903   4.651   2.880  0.00  0.00    +0.159 HD
ATOM      7  H   UNL     1     -11.697   6.248   2.266  0.00  0.00    +0.159 HD
ATOM      8  H   UNL     1      -8.886   3.345   1.604  0.00  0.00    +0.159 HD
ATOM      9  H   UNL     1     -10.313   3.011   2.505  0.00  0.00    +0.159 HD
ENDROOT
BRANCH   1  10
ATOM     10  C   UNL     1      -8.137   5.561   0.544  0.00  0.00    +0.151 C 
BRANCH  10  11
ATOM     11  C   UNL     1      -7.103   6.394   1.250  0.00  0.00    -0.028 A 
ATOM     12  C   UNL     1      -6.966   6.328   2.644  0.00  0.00    +0.005 A 
ATOM     13  C   UNL     1      -6.252   7.246   0.529  0.00  0.00    +0.005 A 
ATOM     14  C   UNL     1      -5.986   7.079   3.297  0.00  0.00    +0.000 A 
ATOM     15  C   UNL     1      -5.275   7.995   1.185  0.00  0.00    +0.000 A 
ATOM     16  C   UNL     1      -5.140   7.909   2.568  0.00  0.00    +0.000 A 
ENDBRANCH  10  11
ENDBRANCH   1  10
TORSDOF 2
ENDMDL
MODEL 6
REMARK VINA RESULT:    -4.264      2.939      3.787
REMARK INTER + INTRA:          -4.942
REMARK INTER:                  -4.820
REMARK INTRA:                  -0.123
REMARK UNBOUND:                -0.180
REMARK  Name = 1550473
REMARK  2 active torsions:
REMARK  status: ('A' for Active; 'I' for Inactive)
REMARK    1  A    between atoms: N_1  and  C_4
REMARK    2  A    between atoms: C_4  and  C_5
REMARK                            x       y       z     vdW  Elec       q    Type
REMARK                         _______ _______ _______ _____ _____    ______ ____
ROOT
ATOM      1  N   UNL     1      -4.794   7.662   4.327  0.00  0.00    -0.354 N 
ATOM      2  N   UNL     1      -3.794   7.793   6.411  0.00  0.00    -0.372 N 
ATOM      3  N   UNL     1      -2.865   8.949   4.661  0.00  0.00    -0.372 N 
ATOM      4  C   UNL     1      -3.822   8.135   5.118  0.00  0.00    +0.166 C 
ATOM      5  H   UNL     1      -5.473   7.025   4.727  0.00  0.00    +0.163 HD
ATOM      6  H   UNL     1      -3.075   8.137   7.033  0.00  0.00    +0.159 HD
ATOM      7  H   UNL     1      -4.500   7.192   6.819  0.00  0.00    +0.159 HD
ATOM      8  H   UNL     1      -2.826   9.240   3.693  0.00  0.00    +0.159 HD
ATOM      9  H   UNL     1      -2.129   9.294   5.265  0.00  0.00    +0.159 HD
ENDROOT
BRANCH   1  10
ATOM     10  C   UNL     1      -4.946   8.016   2.917  0.00  0.00    +0.151 C 
BRANCH  10  11
ATOM     11  C   UNL     1      -6.019   7.156   2.307  0.00  0.00    -0.028 A 
ATOM     12  C   UNL     1      -6.249   7.179   0.924  0.00  0.00    +0.005 A 
ATOM     13  C   UNL     1      -6.805   6.313   3.107  0.00  0.00    +0.005 A 
ATOM     14  C   UNL     1      -7.224   6.358   0.353  0.00  0.00    +0.000 A 
ATOM     15  C   UNL     1      -7.779   5.496   2.533  0.00  0.00    +0.000 A 
ATOM     16  C   UNL     1      -7.987   5.517   1.156  0.00  0.00    +0.000 A 
ENDBRANCH  10  11
ENDBRANCH   1  10
TORSDOF 2
ENDMDL
MODEL 7
REMARK VINA RESULT:    -4.261     19.493     20.372
REMARK INTER + INTRA:          -4.938
REMARK INTER:                  -4.797
REMARK INTRA:                  -0.141
REMARK UNBOUND:                -0.180
REMARK  Name = 1550473
REMARK  2 active torsions:
REMARK  status: ('A' for Active; 'I' for Inactive)
REMARK    1  A    between atoms: N_1  and  C_4
REMARK    2  A    between atoms: C_4  and  C_5
REMARK                            x       y       z     vdW  Elec       q    Type
REMARK                         _______ _______ _______ _____ _____    ______ ____
ROOT
ATOM      1  N   UNL     1      10.243   1.320   8.972  0.00  0.00    -0.354 N 
ATOM      2  N   UNL     1      11.322   1.102  11.009  0.00  0.00    -0.372 N 
ATOM      3  N   UNL     1       9.685  -0.407  10.454  0.00  0.00    -0.372 N 
ATOM      4  C   UNL     1      10.408   0.671  10.132  0.00  0.00    +0.166 C 
ATOM      5  H   UNL     1      10.802   2.148   8.800  0.00  0.00    +0.163 HD
ATOM      6  H   UNL     1      11.471   0.630  11.891  0.00  0.00    +0.159 HD
ATOM      7  H   UNL     1      11.911   1.903  10.815  0.00  0.00    +0.159 HD
ATOM      8  H   UNL     1       8.974  -0.779   9.838  0.00  0.00    +0.159 HD
ATOM      9  H   UNL     1       9.811  -0.885  11.337  0.00  0.00    +0.159 HD
ENDROOT
BRANCH   1  10
ATOM     10  C   UNL     1       9.313   0.901   7.925  0.00  0.00    +0.151 C 
BRANCH  10  11
ATOM     11  C   UNL     1      10.076   0.677   6.649  0.00  0.00    -0.028 A 
ATOM     12  C   UNL     1       9.649   1.267   5.451  0.00  0.00    +0.005 A 
ATOM     13  C   UNL     1      11.232  -0.119   6.633  0.00  0.00    +0.005 A 
ATOM     14  C   UNL     1      10.375   1.084   4.271  0.00  0.00    +0.000 A 
ATOM     15  C   UNL     1      11.954  -0.300   5.453  0.00  0.00    +0.000 A 
ATOM     16  C   UNL     1      11.526   0.304   4.273  0.00  0.00    +0.000 A 
ENDBRANCH  10  11
ENDBRANCH   1  10
TORSDOF 2
ENDMDL
MODEL 8
REMARK VINA RESULT:    -4.209     19.045     19.960
REMARK INTER + INTRA:          -4.880
REMARK INTER:                  -4.713
REMARK INTRA:                  -0.167
REMARK UNBOUND:                -0.180
REMARK  Name = 1550473
REMARK  2 active torsions:
REMARK  status: ('A' for Active; 'I' for Inactive)
REMARK    1  A    between atoms: N_1  and  C_4
REMARK    2  A    between atoms: C_4  and  C_5
REMARK                            x       y       z     vdW  Elec       q    Type
REMARK                         _______ _______ _______ _____ _____    ______ ____
ROOT
ATOM      1  N   UNL     1       9.629   1.338   8.130  0.00  0.00    -0.354 N 
ATOM      2  N   UNL     1      10.618   1.033  10.202  0.00  0.00    -0.372 N 
ATOM      3  N   UNL     1       9.959  -0.811   9.005  0.00  0.00    -0.372 N 
ATOM      4  C   UNL     1      10.062   0.519   9.098  0.00  0.00    +0.166 C 
ATOM      5  H   UNL     1       9.708   2.338   8.274  0.00  0.00    +0.163 HD
ATOM      6  H   UNL     1      10.957   0.440  10.948  0.00  0.00    +0.159 HD
ATOM      7  H   UNL     1      10.737   2.031  10.323  0.00  0.00    +0.159 HD
ATOM      8  H   UNL     1       9.544  -1.261   8.201  0.00  0.00    +0.159 HD
ATOM      9  H   UNL     1      10.282  -1.420   9.747  0.00  0.00    +0.159 HD
ENDROOT
BRANCH   1  10
ATOM     10  C   UNL     1       9.057   0.878   6.865  0.00  0.00    +0.151 C 
BRANCH  10  11
ATOM     11  C   UNL     1      10.021   1.180   5.751  0.00  0.00    -0.028 A 
ATOM     12  C   UNL     1      10.867   0.180   5.250  0.00  0.00    +0.005 A 
ATOM     13  C   UNL     1      10.090   2.464   5.189  0.00  0.00    +0.005 A 
ATOM     14  C   UNL     1      11.741   0.453   4.195  0.00  0.00    +0.000 A 
ATOM     15  C   UNL     1      10.965   2.733   4.137  0.00  0.00    +0.000 A 
ATOM     16  C   UNL     1      11.788   1.726   3.638  0.00  0.00    +0.000 A 
ENDBRANCH  10  11
ENDBRANCH   1  10
TORSDOF 2
ENDMDL
MODEL 9
REMARK VINA RESULT:    -4.149      3.356      4.606
REMARK INTER + INTRA:          -4.813
REMARK INTER:                  -4.672
REMARK INTRA:                  -0.142
REMARK UNBOUND:                -0.180
REMARK  Name = 1550473
REMARK  2 active torsions:
REMARK  status: ('A' for Active; 'I' for Inactive)
REMARK    1  A    between atoms: N_1  and  C_4
REMARK    2  A    between atoms: C_4  and  C_5
REMARK                            x       y       z     vdW  Elec       q    Type
REMARK                         _______ _______ _______ _____ _____    ______ ____
ROOT
ATOM      1  N   UNL     1      -5.352   7.683   5.304  0.00  0.00    -0.354 N 
ATOM      2  N   UNL     1      -3.472   8.414   6.440  0.00  0.00    -0.372 N 
ATOM      3  N   UNL     1      -4.128   6.227   6.672  0.00  0.00    -0.372 N 
ATOM      4  C   UNL     1      -4.330   7.434   6.132  0.00  0.00    +0.166 C 
ATOM      5  H   UNL     1      -5.468   8.626   4.952  0.00  0.00    +0.163 HD
ATOM      6  H   UNL     1      -2.688   8.255   7.060  0.00  0.00    +0.159 HD
ATOM      7  H   UNL     1      -3.563   9.344   6.051  0.00  0.00    +0.159 HD
ATOM      8  H   UNL     1      -4.743   5.447   6.485  0.00  0.00    +0.159 HD
ATOM      9  H   UNL     1      -3.357   6.051   7.304  0.00  0.00    +0.159 HD
ENDROOT
BRANCH   1  10
ATOM     10  C   UNL     1      -6.312   6.672   4.862  0.00  0.00    +0.151 C 
BRANCH  10  11
ATOM     11  C   UNL     1      -6.413   6.713   3.362  0.00  0.00    -0.028 A 
ATOM     12  C   UNL     1      -7.371   5.938   2.692  0.00  0.00    +0.005 A 
ATOM     13  C   UNL     1      -5.558   7.528   2.606  0.00  0.00    +0.005 A 
ATOM     14  C   UNL     1      -7.486   5.998   1.301  0.00  0.00    +0.000 A 
ATOM     15  C   UNL     1      -5.675   7.585   1.217  0.00  0.00    +0.000 A 
ATOM     16  C   UNL     1      -6.640   6.822   0.566  0.00  0.00    +0.000 A 
ENDBRANCH  10  11
ENDBRANCH   1  10
TORSDOF 2
ENDMDL
