MODEL 1
REMARK VINA RESULT:    -5.272      0.000      0.000
REMARK INTER + INTRA:          -6.062
REMARK INTER:                  -5.889
REMARK INTRA:                  -0.173
REMARK UNBOUND:                -0.173
REMARK  Name = 1550473
REMARK  2 active torsions:
REMARK  status: ('A' for Active; 'I' for Inactive)
REMARK    1  A    between atoms: N_1  and  C_4
REMARK    2  A    between atoms: C_4  and  C_5
REMARK                            x       y       z     vdW  Elec       q    Type
REMARK                         _______ _______ _______ _____ _____    ______ ____
ROOT
ATOM      1  N   UNL     1       3.959 -17.261  -5.658  0.00  0.00    -0.354 N 
ATOM      2  N   UNL     1       1.758 -17.969  -5.784  0.00  0.00    -0.372 N 
ATOM      3  N   UNL     1       3.433 -19.469  -6.241  0.00  0.00    -0.372 N 
ATOM      4  C   UNL     1       3.066 -18.231  -5.894  0.00  0.00    +0.166 C 
ATOM      5  H   UNL     1       3.616 -16.336  -5.428  0.00  0.00    +0.163 HD
ATOM      6  H   UNL     1       1.060 -18.682  -5.953  0.00  0.00    +0.159 HD
ATOM      7  H   UNL     1       1.419 -17.055  -5.509  0.00  0.00    +0.159 HD
ATOM      8  H   UNL     1       4.404 -19.730  -6.348  0.00  0.00    +0.159 HD
ATOM      9  H   UNL     1       2.749 -20.193  -6.426  0.00  0.00    +0.159 HD
ENDROOT
BRANCH   1  10
ATOM     10  C   UNL     1       5.408 -17.456  -5.698  0.00  0.00    +0.151 C 
BRANCH  10  11
ATOM     11  C   UNL     1       5.940 -16.917  -6.997  0.00  0.00    -0.028 A 
ATOM     12  C   UNL     1       5.626 -15.613  -7.408  0.00  0.00    +0.005 A 
ATOM     13  C   UNL     1       6.763 -17.702  -7.818  0.00  0.00    +0.005 A 
ATOM     14  C   UNL     1       6.144 -15.100  -8.600  0.00  0.00    +0.000 A 
ATOM     15  C   UNL     1       7.278 -17.187  -9.008  0.00  0.00    +0.000 A 
ATOM     16  C   UNL     1       6.971 -15.885  -9.397  0.00  0.00    +0.000 A 
ENDBRANCH  10  11
ENDBRANCH   1  10
TORSDOF 2
ENDMDL
MODEL 2
REMARK VINA RESULT:    -4.574      3.663      5.334
REMARK INTER + INTRA:          -5.282
REMARK INTER:                  -5.111
REMARK INTRA:                  -0.171
REMARK UNBOUND:                -0.173
REMARK  Name = 1550473
REMARK  2 active torsions:
REMARK  status: ('A' for Active; 'I' for Inactive)
REMARK    1  A    between atoms: N_1  and  C_4
REMARK    2  A    between atoms: C_4  and  C_5
REMARK                            x       y       z     vdW  Elec       q    Type
REMARK                         _______ _______ _______ _____ _____    ______ ____
ROOT
ATOM      1  N   UNL     1       8.805 -15.424  -6.783  0.00  0.00    -0.354 N 
ATOM      2  N   UNL     1       9.907 -13.543  -6.005  0.00  0.00    -0.372 N 
ATOM      3  N   UNL     1       9.120 -13.554  -8.160  0.00  0.00    -0.372 N 
ATOM      4  C   UNL     1       9.270 -14.185  -6.991  0.00  0.00    +0.166 C 
ATOM      5  H   UNL     1       8.977 -15.859  -5.884  0.00  0.00    +0.163 HD
ATOM      6  H   UNL     1      10.266 -12.606  -6.131  0.00  0.00    +0.159 HD
ATOM      7  H   UNL     1      10.038 -13.962  -5.092  0.00  0.00    +0.159 HD
ATOM      8  H   UNL     1       8.653 -13.987  -8.946  0.00  0.00    +0.159 HD
ATOM      9  H   UNL     1       9.483 -12.621  -8.309  0.00  0.00    +0.159 HD
ENDROOT
BRANCH   1  10
ATOM     10  C   UNL     1       8.049 -16.191  -7.773  0.00  0.00    +0.151 C 
BRANCH  10  11
ATOM     11  C   UNL     1       6.620 -16.306  -7.319  0.00  0.00    -0.028 A 
ATOM     12  C   UNL     1       6.200 -17.411  -6.564  0.00  0.00    +0.005 A 
ATOM     13  C   UNL     1       5.683 -15.311  -7.637  0.00  0.00    +0.005 A 
ATOM     14  C   UNL     1       4.880 -17.503  -6.116  0.00  0.00    +0.000 A 
ATOM     15  C   UNL     1       4.365 -15.408  -7.189  0.00  0.00    +0.000 A 
ATOM     16  C   UNL     1       3.965 -16.503  -6.426  0.00  0.00    +0.000 A 
ENDBRANCH  10  11
ENDBRANCH   1  10
TORSDOF 2
ENDMDL
MODEL 3
REMARK VINA RESULT:    -4.457     23.784     25.028
REMARK INTER + INTRA:          -5.151
REMARK INTER:                  -5.058
REMARK INTRA:                  -0.094
REMARK UNBOUND:                -0.173
REMARK  Name = 1550473
REMARK  2 active torsions:
REMARK  status: ('A' for Active; 'I' for Inactive)
REMARK    1  A    between atoms: N_1  and  C_4
REMARK    2  A    between atoms: C_4  and  C_5
REMARK                            x       y       z     vdW  Elec       q    Type
REMARK                         _______ _______ _______ _____ _____    ______ ____
ROOT
ATOM      1  N   UNL     1      -7.340   2.670 -13.013  0.00  0.00    -0.354 N 
ATOM      2  N   UNL     1      -5.171   2.233 -13.696  0.00  0.00    -0.372 N 
ATOM      3  N   UNL     1      -6.805   2.481 -15.287  0.00  0.00    -0.372 N 
ATOM      4  C   UNL     1      -6.454   2.464 -13.997  0.00  0.00    +0.166 C 
ATOM      5  H   UNL     1      -7.016   2.615 -12.055  0.00  0.00    +0.163 HD
ATOM      6  H   UNL     1      -4.479   2.078 -14.417  0.00  0.00    +0.159 HD
ATOM      7  H   UNL     1      -4.841   2.224 -12.739  0.00  0.00    +0.159 HD
ATOM      8  H   UNL     1      -7.759   2.644 -15.580  0.00  0.00    +0.159 HD
ATOM      9  H   UNL     1      -6.130   2.316 -16.023  0.00  0.00    +0.159 HD
ENDROOT
BRANCH   1  10
ATOM     10  C   UNL     1      -8.750   2.984 -13.236  0.00  0.00    +0.151 C 
BRANCH  10  11
ATOM     11  C   UNL     1      -9.525   2.675 -11.984  0.00  0.00    -0.028 A 
ATOM     12  C   UNL     1      -9.632   3.627 -10.960  0.00  0.00    +0.005 A 
ATOM     13  C   UNL     1     -10.160   1.434 -11.819  0.00  0.00    +0.005 A 
ATOM     14  C   UNL     1     -10.377   3.352  -9.810  0.00  0.00    +0.000 A 
ATOM     15  C   UNL     1     -10.901   1.163 -10.670  0.00  0.00    +0.000 A 
ATOM     16  C   UNL     1     -11.012   2.123  -9.667  0.00  0.00    +0.000 A 
ENDBRANCH  10  11
ENDBRANCH   1  10
TORSDOF 2
ENDMDL
MODEL 4
REMARK VINA RESULT:    -4.372     25.721     26.758
REMARK INTER + INTRA:          -5.056
REMARK INTER:                  -4.895
REMARK INTRA:                  -0.162
REMARK UNBOUND:                -0.173
REMARK  Name = 1550473
REMARK  2 active torsions:
REMARK  status: ('A' for Active; 'I' for Inactive)
REMARK    1  A    between atoms: N_1  and  C_4
REMARK    2  A    between atoms: C_4  and  C_5
REMARK                            x       y       z     vdW  Elec       q    Type
REMARK                         _______ _______ _______ _____ _____    ______ ____
ROOT
ATOM      1  N   UNL     1       5.816   2.300   8.380  0.00  0.00    -0.354 N 
ATOM      2  N   UNL     1       6.579   0.256   7.603  0.00  0.00    -0.372 N 
ATOM      3  N   UNL     1       5.655   0.370   9.699  0.00  0.00    -0.372 N 
ATOM      4  C   UNL     1       6.011   0.988   8.568  0.00  0.00    +0.166 C 
ATOM      5  H   UNL     1       6.136   2.714   7.512  0.00  0.00    +0.163 HD
ATOM      6  H   UNL     1       6.736  -0.736   7.715  0.00  0.00    +0.159 HD
ATOM      7  H   UNL     1       6.856   0.664   6.718  0.00  0.00    +0.159 HD
ATOM      8  H   UNL     1       5.226   0.867  10.469  0.00  0.00    +0.159 HD
ATOM      9  H   UNL     1       5.814  -0.621   9.835  0.00  0.00    +0.159 HD
ENDROOT
BRANCH   1  10
ATOM     10  C   UNL     1       5.156   3.176   9.347  0.00  0.00    +0.151 C 
BRANCH  10  11
ATOM     11  C   UNL     1       6.159   4.162   9.879  0.00  0.00    -0.028 A 
ATOM     12  C   UNL     1       6.728   3.984  11.149  0.00  0.00    +0.005 A 
ATOM     13  C   UNL     1       6.548   5.275   9.117  0.00  0.00    +0.005 A 
ATOM     14  C   UNL     1       7.682   4.884  11.631  0.00  0.00    +0.000 A 
ATOM     15  C   UNL     1       7.499   6.171   9.603  0.00  0.00    +0.000 A 
ATOM     16  C   UNL     1       8.068   5.974  10.859  0.00  0.00    +0.000 A 
ENDBRANCH  10  11
ENDBRANCH   1  10
TORSDOF 2
ENDMDL
MODEL 5
REMARK VINA RESULT:    -4.313     29.587     30.612
REMARK INTER + INTRA:          -4.991
REMARK INTER:                  -4.817
REMARK INTRA:                  -0.173
REMARK UNBOUND:                -0.173
REMARK  Name = 1550473
REMARK  2 active torsions:
REMARK  status: ('A' for Active; 'I' for Inactive)
REMARK    1  A    between atoms: N_1  and  C_4
REMARK    2  A    between atoms: C_4  and  C_5
REMARK                            x       y       z     vdW  Elec       q    Type
REMARK                         _______ _______ _______ _____ _____    ______ ____
ROOT
ATOM      1  N   UNL     1      -9.440   5.058  11.237  0.00  0.00    -0.354 N 
ATOM      2  N   UNL     1     -10.073   7.234  10.760  0.00  0.00    -0.372 N 
ATOM      3  N   UNL     1     -10.637   5.567   9.288  0.00  0.00    -0.372 N 
ATOM      4  C   UNL     1     -10.047   5.938  10.429  0.00  0.00    +0.166 C 
ATOM      5  H   UNL     1      -8.985   5.407  12.073  0.00  0.00    +0.163 HD
ATOM      6  H   UNL     1     -10.526   7.921  10.172  0.00  0.00    +0.159 HD
ATOM      7  H   UNL     1      -9.657   7.573  11.619  0.00  0.00    +0.159 HD
ATOM      8  H   UNL     1     -10.647   4.605   8.978  0.00  0.00    +0.159 HD
ATOM      9  H   UNL     1     -11.086   6.241   8.680  0.00  0.00    +0.159 HD
ENDROOT
BRANCH   1  10
ATOM     10  C   UNL     1      -9.402   3.617  10.995  0.00  0.00    +0.151 C 
BRANCH  10  11
ATOM     11  C   UNL     1      -8.068   3.253  10.406  0.00  0.00    -0.028 A 
ATOM     12  C   UNL     1      -6.970   2.988  11.237  0.00  0.00    +0.005 A 
ATOM     13  C   UNL     1      -7.896   3.165   9.016  0.00  0.00    +0.005 A 
ATOM     14  C   UNL     1      -5.738   2.620  10.691  0.00  0.00    +0.000 A 
ATOM     15  C   UNL     1      -6.664   2.799   8.474  0.00  0.00    +0.000 A 
ATOM     16  C   UNL     1      -5.586   2.524   9.312  0.00  0.00    +0.000 A 
ENDBRANCH  10  11
ENDBRANCH   1  10
TORSDOF 2
ENDMDL
MODEL 6
REMARK VINA RESULT:    -4.301     29.532     30.659
REMARK INTER + INTRA:          -4.977
REMARK INTER:                  -4.831
REMARK INTRA:                  -0.146
REMARK UNBOUND:                -0.173
REMARK  Name = 1550473
REMARK  2 active torsions:
REMARK  status: ('A' for Active; 'I' for Inactive)
REMARK    1  A    between atoms: N_1  and  C_4
REMARK    2  A    between atoms: C_4  and  C_5
REMARK                            x       y       z     vdW  Elec       q    Type
REMARK                         _______ _______ _______ _____ _____    ______ ____
ROOT
ATOM      1  N   UNL     1      -8.737   2.052   9.470  0.00  0.00    -0.354 N 
ATOM      2  N   UNL     1      -8.678   0.678   7.607  0.00  0.00    -0.372 N 
ATOM      3  N   UNL     1      -6.853   1.988   8.077  0.00  0.00    -0.372 N 
ATOM      4  C   UNL     1      -8.087   1.583   8.396  0.00  0.00    +0.166 C 
ATOM      5  H   UNL     1      -9.682   1.728   9.641  0.00  0.00    +0.163 HD
ATOM      6  H   UNL     1      -8.211   0.303   6.792  0.00  0.00    +0.159 HD
ATOM      7  H   UNL     1      -9.604   0.322   7.806  0.00  0.00    +0.159 HD
ATOM      8  H   UNL     1      -6.355   2.673   8.629  0.00  0.00    +0.159 HD
ATOM      9  H   UNL     1      -6.374   1.633   7.259  0.00  0.00    +0.159 HD
ENDROOT
BRANCH   1  10
ATOM     10  C   UNL     1      -8.162   3.000  10.424  0.00  0.00    +0.151 C 
BRANCH  10  11
ATOM     11  C   UNL     1      -9.049   4.211  10.509  0.00  0.00    -0.028 A 
ATOM     12  C   UNL     1     -10.268   4.250   9.816  0.00  0.00    +0.005 A 
ATOM     13  C   UNL     1      -8.680   5.320  11.285  0.00  0.00    +0.005 A 
ATOM     14  C   UNL     1     -11.107   5.363   9.918  0.00  0.00    +0.000 A 
ATOM     15  C   UNL     1      -9.519   6.429  11.384  0.00  0.00    +0.000 A 
ATOM     16  C   UNL     1     -10.734   6.449  10.702  0.00  0.00    +0.000 A 
ENDBRANCH  10  11
ENDBRANCH   1  10
TORSDOF 2
ENDMDL
MODEL 7
REMARK VINA RESULT:    -4.137      1.244      2.315
REMARK INTER + INTRA:          -4.793
REMARK INTER:                  -4.716
REMARK INTRA:                  -0.078
REMARK UNBOUND:                -0.173
REMARK  Name = 1550473
REMARK  2 active torsions:
REMARK  status: ('A' for Active; 'I' for Inactive)
REMARK    1  A    between atoms: N_1  and  C_4
REMARK    2  A    between atoms: C_4  and  C_5
REMARK                            x       y       z     vdW  Elec       q    Type
REMARK                         _______ _______ _______ _____ _____    ______ ____
ROOT
ATOM      1  N   UNL     1       4.479 -16.438  -7.226  0.00  0.00    -0.354 N 
ATOM      2  N   UNL     1       3.163 -18.067  -6.237  0.00  0.00    -0.372 N 
ATOM      3  N   UNL     1       4.967 -17.246  -5.081  0.00  0.00    -0.372 N 
ATOM      4  C   UNL     1       4.214 -17.239  -6.186  0.00  0.00    +0.166 C 
ATOM      5  H   UNL     1       3.887 -16.502  -8.046  0.00  0.00    +0.163 HD
ATOM      6  H   UNL     1       2.936 -18.682  -5.467  0.00  0.00    +0.159 HD
ATOM      7  H   UNL     1       2.547 -18.097  -7.040  0.00  0.00    +0.159 HD
ATOM      8  H   UNL     1       5.777 -16.649  -4.982  0.00  0.00    +0.159 HD
ATOM      9  H   UNL     1       4.763 -17.862  -4.304  0.00  0.00    +0.159 HD
ENDROOT
BRANCH   1  10
ATOM     10  C   UNL     1       5.566 -15.461  -7.249  0.00  0.00    +0.151 C 
BRANCH  10  11
ATOM     11  C   UNL     1       6.611 -15.913  -8.231  0.00  0.00    -0.028 A 
ATOM     12  C   UNL     1       6.755 -17.273  -8.543  0.00  0.00    +0.005 A 
ATOM     13  C   UNL     1       7.458 -14.985  -8.858  0.00  0.00    +0.005 A 
ATOM     14  C   UNL     1       7.705 -17.690  -9.478  0.00  0.00    +0.000 A 
ATOM     15  C   UNL     1       8.406 -15.406  -9.790  0.00  0.00    +0.000 A 
ATOM     16  C   UNL     1       8.528 -16.758 -10.102  0.00  0.00    +0.000 A 
ENDBRANCH  10  11
ENDBRANCH   1  10
TORSDOF 2
ENDMDL
MODEL 8
REMARK VINA RESULT:    -4.082     27.195     28.192
REMARK INTER + INTRA:          -4.732
REMARK INTER:                  -4.633
REMARK INTRA:                  -0.099
REMARK UNBOUND:                -0.173
REMARK  Name = 1550473
REMARK  2 active torsions:
REMARK  status: ('A' for Active; 'I' for Inactive)
REMARK    1  A    between atoms: N_1  and  C_4
REMARK    2  A    between atoms: C_4  and  C_5
REMARK                            x       y       z     vdW  Elec       q    Type
REMARK                         _______ _______ _______ _____ _____    ______ ____
ROOT
ATOM      1  N   UNL     1       6.754   4.018   9.217  0.00  0.00    -0.354 N 
ATOM      2  N   UNL     1       5.712   2.011   9.716  0.00  0.00    -0.372 N 
ATOM      3  N   UNL     1       4.418   3.835   9.202  0.00  0.00    -0.372 N 
ATOM      4  C   UNL     1       5.633   3.303   9.375  0.00  0.00    +0.166 C 
ATOM      5  H   UNL     1       7.644   3.564   9.392  0.00  0.00    +0.163 HD
ATOM      6  H   UNL     1       4.883   1.445   9.839  0.00  0.00    +0.159 HD
ATOM      7  H   UNL     1       6.603   1.548   9.845  0.00  0.00    +0.159 HD
ATOM      8  H   UNL     1       4.290   4.806   8.950  0.00  0.00    +0.159 HD
ATOM      9  H   UNL     1       3.576   3.288   9.332  0.00  0.00    +0.159 HD
ENDROOT
BRANCH   1  10
ATOM     10  C   UNL     1       6.779   5.417   8.794  0.00  0.00    +0.151 C 
BRANCH  10  11
ATOM     11  C   UNL     1       8.046   6.057   9.290  0.00  0.00    -0.028 A 
ATOM     12  C   UNL     1       8.099   6.638  10.566  0.00  0.00    +0.005 A 
ATOM     13  C   UNL     1       9.200   6.082   8.491  0.00  0.00    +0.005 A 
ATOM     14  C   UNL     1       9.284   7.206  11.039  0.00  0.00    +0.000 A 
ATOM     15  C   UNL     1      10.381   6.651   8.967  0.00  0.00    +0.000 A 
ATOM     16  C   UNL     1      10.424   7.211  10.241  0.00  0.00    +0.000 A 
ENDBRANCH  10  11
ENDBRANCH   1  10
TORSDOF 2
ENDMDL
MODEL 9
REMARK VINA RESULT:    -4.002     18.663     19.638
REMARK INTER + INTRA:          -4.642
REMARK INTER:                  -4.528
REMARK INTRA:                  -0.114
REMARK UNBOUND:                -0.173
REMARK  Name = 1550473
REMARK  2 active torsions:
REMARK  status: ('A' for Active; 'I' for Inactive)
REMARK    1  A    between atoms: N_1  and  C_4
REMARK    2  A    between atoms: C_4  and  C_5
REMARK                            x       y       z     vdW  Elec       q    Type
REMARK                         _______ _______ _______ _____ _____    ______ ____
ROOT
ATOM      1  N   UNL     1      -3.968  -5.391 -20.154  0.00  0.00    -0.354 N 
ATOM      2  N   UNL     1      -6.133  -6.044 -20.653  0.00  0.00    -0.372 N 
ATOM      3  N   UNL     1      -4.642  -7.622 -19.912  0.00  0.00    -0.372 N 
ATOM      4  C   UNL     1      -4.899  -6.351 -20.236  0.00  0.00    +0.166 C 
ATOM      5  H   UNL     1      -4.218  -4.452 -20.443  0.00  0.00    +0.163 HD
ATOM      6  H   UNL     1      -6.858  -6.746 -20.722  0.00  0.00    +0.159 HD
ATOM      7  H   UNL     1      -6.393  -5.096 -20.898  0.00  0.00    +0.159 HD
ATOM      8  H   UNL     1      -3.729  -7.920 -19.596  0.00  0.00    +0.159 HD
ATOM      9  H   UNL     1      -5.351  -8.342 -19.986  0.00  0.00    +0.159 HD
ENDROOT
BRANCH   1  10
ATOM     10  C   UNL     1      -2.610  -5.610 -19.661  0.00  0.00    +0.151 C 
BRANCH  10  11
ATOM     11  C   UNL     1      -1.634  -5.341 -20.773  0.00  0.00    -0.028 A 
ATOM     12  C   UNL     1      -2.082  -5.199 -22.094  0.00  0.00    +0.005 A 
ATOM     13  C   UNL     1      -0.260  -5.222 -20.511  0.00  0.00    +0.005 A 
ATOM     14  C   UNL     1      -1.180  -4.920 -23.124  0.00  0.00    +0.000 A 
ATOM     15  C   UNL     1       0.638  -4.944 -21.542  0.00  0.00    +0.000 A 
ATOM     16  C   UNL     1       0.177  -4.791 -22.847  0.00  0.00    +0.000 A 
ENDBRANCH  10  11
ENDBRANCH   1  10
TORSDOF 2
ENDMDL
