MODEL 1
REMARK VINA RESULT:    -6.459      0.000      0.000
REMARK INTER + INTRA:          -7.353
REMARK INTER:                  -7.214
REMARK INTRA:                  -0.139
REMARK UNBOUND:                -0.139
REMARK  Name = 1550473
REMARK  2 active torsions:
REMARK  status: ('A' for Active; 'I' for Inactive)
REMARK    1  A    between atoms: N_1  and  C_4
REMARK    2  A    between atoms: C_4  and  C_5
REMARK                            x       y       z     vdW  Elec       q    Type
REMARK                         _______ _______ _______ _____ _____    ______ ____
ROOT
ATOM      1  N   UNL     1       9.671   4.958  -4.278  0.00  0.00    -0.354 N 
ATOM      2  N   UNL     1       8.996   6.715  -5.628  0.00  0.00    -0.372 N 
ATOM      3  N   UNL     1       8.433   4.574  -6.231  0.00  0.00    -0.372 N 
ATOM      4  C   UNL     1       9.037   5.402  -5.372  0.00  0.00    +0.166 C 
ATOM      5  H   UNL     1      10.135   5.634  -3.683  0.00  0.00    +0.163 HD
ATOM      6  H   UNL     1       8.523   7.080  -6.443  0.00  0.00    +0.159 HD
ATOM      7  H   UNL     1       9.422   7.392  -5.007  0.00  0.00    +0.159 HD
ATOM      8  H   UNL     1       8.432   3.571  -6.098  0.00  0.00    +0.159 HD
ATOM      9  H   UNL     1       7.964   4.919  -7.059  0.00  0.00    +0.159 HD
ENDROOT
BRANCH   1  10
ATOM     10  C   UNL     1       9.727   3.552  -3.880  0.00  0.00    +0.151 C 
BRANCH  10  11
ATOM     11  C   UNL     1       9.365   3.439  -2.425  0.00  0.00    -0.028 A 
ATOM     12  C   UNL     1       8.730   4.502  -1.764  0.00  0.00    +0.005 A 
ATOM     13  C   UNL     1       9.650   2.271  -1.701  0.00  0.00    +0.005 A 
ATOM     14  C   UNL     1       8.367   4.386  -0.420  0.00  0.00    +0.000 A 
ATOM     15  C   UNL     1       9.286   2.160  -0.360  0.00  0.00    +0.000 A 
ATOM     16  C   UNL     1       8.642   3.216   0.280  0.00  0.00    +0.000 A 
ENDBRANCH  10  11
ENDBRANCH   1  10
TORSDOF 2
ENDMDL
MODEL 2
REMARK VINA RESULT:    -5.666      7.601      8.554
REMARK INTER + INTRA:          -6.468
REMARK INTER:                  -6.307
REMARK INTRA:                  -0.161
REMARK UNBOUND:                -0.139
REMARK  Name = 1550473
REMARK  2 active torsions:
REMARK  status: ('A' for Active; 'I' for Inactive)
REMARK    1  A    between atoms: N_1  and  C_4
REMARK    2  A    between atoms: C_4  and  C_5
REMARK                            x       y       z     vdW  Elec       q    Type
REMARK                         _______ _______ _______ _____ _____    ______ ____
ROOT
ATOM      1  N   UNL     1       4.842  -1.199   0.626  0.00  0.00    -0.354 N 
ATOM      2  N   UNL     1       3.511   0.596   1.235  0.00  0.00    -0.372 N 
ATOM      3  N   UNL     1       3.287  -1.386   2.370  0.00  0.00    -0.372 N 
ATOM      4  C   UNL     1       3.888  -0.677   1.408  0.00  0.00    +0.166 C 
ATOM      5  H   UNL     1       5.236  -0.618  -0.105  0.00  0.00    +0.163 HD
ATOM      6  H   UNL     1       2.796   1.019   1.812  0.00  0.00    +0.159 HD
ATOM      7  H   UNL     1       3.939   1.188   0.534  0.00  0.00    +0.159 HD
ATOM      8  H   UNL     1       3.522  -2.353   2.548  0.00  0.00    +0.159 HD
ATOM      9  H   UNL     1       2.561  -0.984   2.950  0.00  0.00    +0.159 HD
ENDROOT
BRANCH   1  10
ATOM     10  C   UNL     1       5.362  -2.558   0.768  0.00  0.00    +0.151 C 
BRANCH  10  11
ATOM     11  C   UNL     1       6.684  -2.505   1.483  0.00  0.00    -0.028 A 
ATOM     12  C   UNL     1       7.542  -1.409   1.314  0.00  0.00    +0.005 A 
ATOM     13  C   UNL     1       7.082  -3.547   2.335  0.00  0.00    +0.005 A 
ATOM     14  C   UNL     1       8.757  -1.345   2.001  0.00  0.00    +0.000 A 
ATOM     15  C   UNL     1       8.296  -3.481   3.018  0.00  0.00    +0.000 A 
ATOM     16  C   UNL     1       9.132  -2.379   2.853  0.00  0.00    +0.000 A 
ENDBRANCH  10  11
ENDBRANCH   1  10
TORSDOF 2
ENDMDL
MODEL 3
REMARK VINA RESULT:    -5.583      8.157      9.346
REMARK INTER + INTRA:          -6.375
REMARK INTER:                  -6.276
REMARK INTRA:                  -0.099
REMARK UNBOUND:                -0.139
REMARK  Name = 1550473
REMARK  2 active torsions:
REMARK  status: ('A' for Active; 'I' for Inactive)
REMARK    1  A    between atoms: N_1  and  C_4
REMARK    2  A    between atoms: C_4  and  C_5
REMARK                            x       y       z     vdW  Elec       q    Type
REMARK                         _______ _______ _______ _____ _____    ______ ____
ROOT
ATOM      1  N   UNL     1       6.597  -1.953   1.743  0.00  0.00    -0.354 N 
ATOM      2  N   UNL     1       4.885  -0.491   1.202  0.00  0.00    -0.372 N 
ATOM      3  N   UNL     1       4.885  -2.590   0.276  0.00  0.00    -0.372 N 
ATOM      4  C   UNL     1       5.466  -1.690   1.076  0.00  0.00    +0.166 C 
ATOM      5  H   UNL     1       7.004  -1.218   2.310  0.00  0.00    +0.163 HD
ATOM      6  H   UNL     1       4.029  -0.264   0.714  0.00  0.00    +0.159 HD
ATOM      7  H   UNL     1       5.269   0.227   1.805  0.00  0.00    +0.159 HD
ATOM      8  H   UNL     1       5.276  -3.511   0.133  0.00  0.00    +0.159 HD
ATOM      9  H   UNL     1       4.034  -2.378  -0.231  0.00  0.00    +0.159 HD
ENDROOT
BRANCH   1  10
ATOM     10  C   UNL     1       7.280  -3.245   1.716  0.00  0.00    +0.151 C 
BRANCH  10  11
ATOM     11  C   UNL     1       8.078  -3.405   2.981  0.00  0.00    -0.028 A 
ATOM     12  C   UNL     1       9.157  -2.551   3.255  0.00  0.00    +0.005 A 
ATOM     13  C   UNL     1       7.758  -4.405   3.912  0.00  0.00    +0.005 A 
ATOM     14  C   UNL     1       9.880  -2.681   4.444  0.00  0.00    +0.000 A 
ATOM     15  C   UNL     1       8.482  -4.532   5.097  0.00  0.00    +0.000 A 
ATOM     16  C   UNL     1       9.542  -3.668   5.363  0.00  0.00    +0.000 A 
ENDBRANCH  10  11
ENDBRANCH   1  10
TORSDOF 2
ENDMDL
MODEL 4
REMARK VINA RESULT:    -5.185      9.360     10.440
REMARK INTER + INTRA:          -5.930
REMARK INTER:                  -5.818
REMARK INTRA:                  -0.112
REMARK UNBOUND:                -0.139
REMARK  Name = 1550473
REMARK  2 active torsions:
REMARK  status: ('A' for Active; 'I' for Inactive)
REMARK    1  A    between atoms: N_1  and  C_4
REMARK    2  A    between atoms: C_4  and  C_5
REMARK                            x       y       z     vdW  Elec       q    Type
REMARK                         _______ _______ _______ _____ _____    ______ ____
ROOT
ATOM      1  N   UNL     1       5.954  -3.763   2.564  0.00  0.00    -0.354 N 
ATOM      2  N   UNL     1       3.697  -4.091   2.162  0.00  0.00    -0.372 N 
ATOM      3  N   UNL     1       5.022  -3.294   0.466  0.00  0.00    -0.372 N 
ATOM      4  C   UNL     1       4.907  -3.712   1.731  0.00  0.00    +0.166 C 
ATOM      5  H   UNL     1       5.795  -4.061   3.520  0.00  0.00    +0.163 HD
ATOM      6  H   UNL     1       2.889  -4.067   1.555  0.00  0.00    +0.159 HD
ATOM      7  H   UNL     1       3.550  -4.432   3.104  0.00  0.00    +0.159 HD
ATOM      8  H   UNL     1       5.906  -2.989   0.081  0.00  0.00    +0.159 HD
ATOM      9  H   UNL     1       4.222  -3.252  -0.153  0.00  0.00    +0.159 HD
ENDROOT
BRANCH   1  10
ATOM     10  C   UNL     1       7.323  -3.424   2.178  0.00  0.00    +0.151 C 
BRANCH  10  11
ATOM     11  C   UNL     1       8.209  -3.500   3.391  0.00  0.00    -0.028 A 
ATOM     12  C   UNL     1       8.008  -4.497   4.358  0.00  0.00    +0.005 A 
ATOM     13  C   UNL     1       9.254  -2.582   3.577  0.00  0.00    +0.005 A 
ATOM     14  C   UNL     1       8.849  -4.586   5.470  0.00  0.00    +0.000 A 
ATOM     15  C   UNL     1      10.091  -2.674   4.689  0.00  0.00    +0.000 A 
ATOM     16  C   UNL     1       9.890  -3.678   5.634  0.00  0.00    +0.000 A 
ENDBRANCH  10  11
ENDBRANCH   1  10
TORSDOF 2
ENDMDL
MODEL 5
REMARK VINA RESULT:    -5.152      8.185      9.482
REMARK INTER + INTRA:          -5.893
REMARK INTER:                  -5.770
REMARK INTRA:                  -0.123
REMARK UNBOUND:                -0.139
REMARK  Name = 1550473
REMARK  2 active torsions:
REMARK  status: ('A' for Active; 'I' for Inactive)
REMARK    1  A    between atoms: N_1  and  C_4
REMARK    2  A    between atoms: C_4  and  C_5
REMARK                            x       y       z     vdW  Elec       q    Type
REMARK                         _______ _______ _______ _____ _____    ______ ____
ROOT
ATOM      1  N   UNL     1       6.291  -1.971   1.415  0.00  0.00    -0.354 N 
ATOM      2  N   UNL     1       8.440  -1.828   2.266  0.00  0.00    -0.372 N 
ATOM      3  N   UNL     1       7.652  -0.121   0.950  0.00  0.00    -0.372 N 
ATOM      4  C   UNL     1       7.447  -1.305   1.537  0.00  0.00    +0.166 C 
ATOM      5  H   UNL     1       6.209  -2.878   1.859  0.00  0.00    +0.163 HD
ATOM      6  H   UNL     1       9.323  -1.347   2.379  0.00  0.00    +0.159 HD
ATOM      7  H   UNL     1       8.340  -2.713   2.746  0.00  0.00    +0.159 HD
ATOM      8  H   UNL     1       6.945   0.325   0.382  0.00  0.00    +0.159 HD
ATOM      9  H   UNL     1       8.533   0.371   1.042  0.00  0.00    +0.159 HD
ENDROOT
BRANCH   1  10
ATOM     10  C   UNL     1       5.128  -1.465   0.688  0.00  0.00    +0.151 C 
BRANCH  10  11
ATOM     11  C   UNL     1       3.998  -2.447   0.825  0.00  0.00    -0.028 A 
ATOM     12  C   UNL     1       2.759  -2.195   0.217  0.00  0.00    +0.005 A 
ATOM     13  C   UNL     1       4.161  -3.634   1.555  0.00  0.00    +0.005 A 
ATOM     14  C   UNL     1       1.718  -3.121   0.319  0.00  0.00    +0.000 A 
ATOM     15  C   UNL     1       3.119  -4.555   1.655  0.00  0.00    +0.000 A 
ATOM     16  C   UNL     1       1.898  -4.300   1.034  0.00  0.00    +0.000 A 
ENDBRANCH  10  11
ENDBRANCH   1  10
TORSDOF 2
ENDMDL
MODEL 6
REMARK VINA RESULT:    -5.146      3.046      3.896
REMARK INTER + INTRA:          -5.886
REMARK INTER:                  -5.791
REMARK INTRA:                  -0.095
REMARK UNBOUND:                -0.139
REMARK  Name = 1550473
REMARK  2 active torsions:
REMARK  status: ('A' for Active; 'I' for Inactive)
REMARK    1  A    between atoms: N_1  and  C_4
REMARK    2  A    between atoms: C_4  and  C_5
REMARK                            x       y       z     vdW  Elec       q    Type
REMARK                         _______ _______ _______ _____ _____    ______ ____
ROOT
ATOM      1  N   UNL     1      11.770   1.825  -3.076  0.00  0.00    -0.354 N 
ATOM      2  N   UNL     1      13.943   1.057  -3.314  0.00  0.00    -0.372 N 
ATOM      3  N   UNL     1      12.234  -0.136  -4.274  0.00  0.00    -0.372 N 
ATOM      4  C   UNL     1      12.633   0.918  -3.554  0.00  0.00    +0.166 C 
ATOM      5  H   UNL     1      12.134   2.584  -2.512  0.00  0.00    +0.163 HD
ATOM      6  H   UNL     1      14.618   0.391  -3.665  0.00  0.00    +0.159 HD
ATOM      7  H   UNL     1      14.308   1.843  -2.789  0.00  0.00    +0.159 HD
ATOM      8  H   UNL     1      11.259  -0.301  -4.485  0.00  0.00    +0.159 HD
ATOM      9  H   UNL     1      12.893  -0.819  -4.624  0.00  0.00    +0.159 HD
ENDROOT
BRANCH   1  10
ATOM     10  C   UNL     1      10.330   1.794  -3.326  0.00  0.00    +0.151 C 
BRANCH  10  11
ATOM     11  C   UNL     1       9.645   2.729  -2.368  0.00  0.00    -0.028 A 
ATOM     12  C   UNL     1       9.239   4.005  -2.785  0.00  0.00    +0.005 A 
ATOM     13  C   UNL     1       9.394   2.342  -1.042  0.00  0.00    +0.005 A 
ATOM     14  C   UNL     1       8.576   4.862  -1.903  0.00  0.00    +0.000 A 
ATOM     15  C   UNL     1       8.732   3.201  -0.165  0.00  0.00    +0.000 A 
ATOM     16  C   UNL     1       8.322   4.460  -0.596  0.00  0.00    +0.000 A 
ENDBRANCH  10  11
ENDBRANCH   1  10
TORSDOF 2
ENDMDL
MODEL 7
REMARK VINA RESULT:    -5.125      9.138     10.453
REMARK INTER + INTRA:          -5.864
REMARK INTER:                  -5.739
REMARK INTRA:                  -0.124
REMARK UNBOUND:                -0.139
REMARK  Name = 1550473
REMARK  2 active torsions:
REMARK  status: ('A' for Active; 'I' for Inactive)
REMARK    1  A    between atoms: N_1  and  C_4
REMARK    2  A    between atoms: C_4  and  C_5
REMARK                            x       y       z     vdW  Elec       q    Type
REMARK                         _______ _______ _______ _____ _____    ______ ____
ROOT
ATOM      1  N   UNL     1       6.692  -3.173   2.046  0.00  0.00    -0.354 N 
ATOM      2  N   UNL     1       8.809  -2.288   2.363  0.00  0.00    -0.372 N 
ATOM      3  N   UNL     1       8.085  -3.959   3.759  0.00  0.00    -0.372 N 
ATOM      4  C   UNL     1       7.848  -3.147   2.723  0.00  0.00    +0.166 C 
ATOM      5  H   UNL     1       6.564  -2.511   1.289  0.00  0.00    +0.163 HD
ATOM      6  H   UNL     1       9.693  -2.249   2.853  0.00  0.00    +0.159 HD
ATOM      7  H   UNL     1       8.695  -1.660   1.577  0.00  0.00    +0.159 HD
ATOM      8  H   UNL     1       7.398  -4.626   4.084  0.00  0.00    +0.159 HD
ATOM      9  H   UNL     1       8.958  -3.926   4.269  0.00  0.00    +0.159 HD
ENDROOT
BRANCH   1  10
ATOM     10  C   UNL     1       5.603  -4.107   2.323  0.00  0.00    +0.151 C 
BRANCH  10  11
ATOM     11  C   UNL     1       4.367  -3.648   1.599  0.00  0.00    -0.028 A 
ATOM     12  C   UNL     1       3.155  -4.338   1.751  0.00  0.00    +0.005 A 
ATOM     13  C   UNL     1       4.400  -2.522   0.763  0.00  0.00    +0.005 A 
ATOM     14  C   UNL     1       2.000  -3.895   1.103  0.00  0.00    +0.000 A 
ATOM     15  C   UNL     1       3.244  -2.083   0.116  0.00  0.00    +0.000 A 
ATOM     16  C   UNL     1       2.044  -2.769   0.288  0.00  0.00    +0.000 A 
ENDBRANCH  10  11
ENDBRANCH   1  10
TORSDOF 2
ENDMDL
MODEL 8
REMARK VINA RESULT:    -4.964      9.124     10.414
REMARK INTER + INTRA:          -5.684
REMARK INTER:                  -5.534
REMARK INTRA:                  -0.150
REMARK UNBOUND:                -0.139
REMARK  Name = 1550473
REMARK  2 active torsions:
REMARK  status: ('A' for Active; 'I' for Inactive)
REMARK    1  A    between atoms: N_1  and  C_4
REMARK    2  A    between atoms: C_4  and  C_5
REMARK                            x       y       z     vdW  Elec       q    Type
REMARK                         _______ _______ _______ _____ _____    ______ ____
ROOT
ATOM      1  N   UNL     1       1.815  -3.075   1.477  0.00  0.00    -0.354 N 
ATOM      2  N   UNL     1       0.534  -2.882   3.397  0.00  0.00    -0.372 N 
ATOM      3  N   UNL     1       1.475  -0.993   2.497  0.00  0.00    -0.372 N 
ATOM      4  C   UNL     1       1.284  -2.315   2.444  0.00  0.00    +0.166 C 
ATOM      5  H   UNL     1       1.658  -4.076   1.510  0.00  0.00    +0.163 HD
ATOM      6  H   UNL     1       0.117  -2.334   4.137  0.00  0.00    +0.159 HD
ATOM      7  H   UNL     1       0.341  -3.876   3.402  0.00  0.00    +0.159 HD
ATOM      8  H   UNL     1       2.036  -0.505   1.812  0.00  0.00    +0.159 HD
ATOM      9  H   UNL     1       1.076  -0.429   3.237  0.00  0.00    +0.159 HD
ENDROOT
BRANCH   1  10
ATOM     10  C   UNL     1       2.602  -2.548   0.364  0.00  0.00    +0.151 C 
BRANCH  10  11
ATOM     11  C   UNL     1       4.056  -2.547   0.747  0.00  0.00    -0.028 A 
ATOM     12  C   UNL     1       4.642  -3.684   1.323  0.00  0.00    +0.005 A 
ATOM     13  C   UNL     1       4.855  -1.413   0.532  0.00  0.00    +0.005 A 
ATOM     14  C   UNL     1       6.000  -3.693   1.652  0.00  0.00    +0.000 A 
ATOM     15  C   UNL     1       6.210  -1.427   0.863  0.00  0.00    +0.000 A 
ATOM     16  C   UNL     1       6.783  -2.567   1.420  0.00  0.00    +0.000 A 
ENDBRANCH  10  11
ENDBRANCH   1  10
TORSDOF 2
ENDMDL
MODEL 9
REMARK VINA RESULT:    -4.917      7.172      8.922
REMARK INTER + INTRA:          -5.631
REMARK INTER:                  -5.495
REMARK INTRA:                  -0.135
REMARK UNBOUND:                -0.139
REMARK  Name = 1550473
REMARK  2 active torsions:
REMARK  status: ('A' for Active; 'I' for Inactive)
REMARK    1  A    between atoms: N_1  and  C_4
REMARK    2  A    between atoms: C_4  and  C_5
REMARK                            x       y       z     vdW  Elec       q    Type
REMARK                         _______ _______ _______ _____ _____    ______ ____
ROOT
ATOM      1  N   UNL     1       9.642  -1.384   1.674  0.00  0.00    -0.354 N 
ATOM      2  N   UNL     1      10.757   0.565   1.107  0.00  0.00    -0.372 N 
ATOM      3  N   UNL     1       8.491   0.646   1.455  0.00  0.00    -0.372 N 
ATOM      4  C   UNL     1       9.620  -0.069   1.416  0.00  0.00    +0.166 C 
ATOM      5  H   UNL     1      10.526  -1.875   1.598  0.00  0.00    +0.163 HD
ATOM      6  H   UNL     1      10.772   1.557   0.911  0.00  0.00    +0.159 HD
ATOM      7  H   UNL     1      11.646   0.081   1.077  0.00  0.00    +0.159 HD
ATOM      8  H   UNL     1       7.598   0.225   1.675  0.00  0.00    +0.159 HD
ATOM      9  H   UNL     1       8.484   1.637   1.250  0.00  0.00    +0.159 HD
ENDROOT
BRANCH   1  10
ATOM     10  C   UNL     1       8.468  -2.159   2.071  0.00  0.00    +0.151 C 
BRANCH  10  11
ATOM     11  C   UNL     1       8.773  -2.892   3.348  0.00  0.00    -0.028 A 
ATOM     12  C   UNL     1       8.005  -4.001   3.733  0.00  0.00    +0.005 A 
ATOM     13  C   UNL     1       9.832  -2.487   4.175  0.00  0.00    +0.005 A 
ATOM     14  C   UNL     1       8.307  -4.701   4.904  0.00  0.00    +0.000 A 
ATOM     15  C   UNL     1      10.130  -3.188   5.343  0.00  0.00    +0.000 A 
ATOM     16  C   UNL     1       9.369  -4.296   5.706  0.00  0.00    +0.000 A 
ENDBRANCH  10  11
ENDBRANCH   1  10
TORSDOF 2
ENDMDL
