MODEL 1
REMARK VINA RESULT:    -5.538      0.000      0.000
REMARK INTER + INTRA:          -6.288
REMARK INTER:                  -6.185
REMARK INTRA:                  -0.103
REMARK UNBOUND:                -0.103
REMARK  Name = 1550473
REMARK  2 active torsions:
REMARK  status: ('A' for Active; 'I' for Inactive)
REMARK    1  A    between atoms: N_1  and  C_4
REMARK    2  A    between atoms: C_4  and  C_5
REMARK                            x       y       z     vdW  Elec       q    Type
REMARK                         _______ _______ _______ _____ _____    ______ ____
ROOT
ATOM      1  N   UNL     1       4.412   0.450  -1.121  0.00  0.00    -0.354 N 
ATOM      2  N   UNL     1       3.090   2.328  -1.420  0.00  0.00    -0.372 N 
ATOM      3  N   UNL     1       3.123   0.723  -3.059  0.00  0.00    -0.372 N 
ATOM      4  C   UNL     1       3.550   1.154  -1.867  0.00  0.00    +0.166 C 
ATOM      5  H   UNL     1       4.720   0.846  -0.241  0.00  0.00    +0.163 HD
ATOM      6  H   UNL     1       2.436   2.880  -1.959  0.00  0.00    +0.159 HD
ATOM      7  H   UNL     1       3.365   2.700  -0.519  0.00  0.00    +0.159 HD
ATOM      8  H   UNL     1       3.437  -0.152  -3.456  0.00  0.00    +0.159 HD
ATOM      9  H   UNL     1       2.478   1.266  -3.619  0.00  0.00    +0.159 HD
ENDROOT
BRANCH   1  10
ATOM     10  C   UNL     1       4.931  -0.865  -1.493  0.00  0.00    +0.151 C 
BRANCH  10  11
ATOM     11  C   UNL     1       6.374  -0.728  -1.892  0.00  0.00    -0.028 A 
ATOM     12  C   UNL     1       7.106  -1.849  -2.313  0.00  0.00    +0.005 A 
ATOM     13  C   UNL     1       7.015   0.520  -1.858  0.00  0.00    +0.005 A 
ATOM     14  C   UNL     1       8.438  -1.717  -2.713  0.00  0.00    +0.000 A 
ATOM     15  C   UNL     1       8.345   0.647  -2.258  0.00  0.00    +0.000 A 
ATOM     16  C   UNL     1       9.056  -0.471  -2.687  0.00  0.00    +0.000 A 
ENDBRANCH  10  11
ENDBRANCH   1  10
TORSDOF 2
ENDMDL
MODEL 2
REMARK VINA RESULT:    -5.487      1.753      2.654
REMARK INTER + INTRA:          -6.231
REMARK INTER:                  -6.123
REMARK INTRA:                  -0.108
REMARK UNBOUND:                -0.103
REMARK  Name = 1550473
REMARK  2 active torsions:
REMARK  status: ('A' for Active; 'I' for Inactive)
REMARK    1  A    between atoms: N_1  and  C_4
REMARK    2  A    between atoms: C_4  and  C_5
REMARK                            x       y       z     vdW  Elec       q    Type
REMARK                         _______ _______ _______ _____ _____    ______ ____
ROOT
ATOM      1  N   UNL     1       4.065  -1.563  -1.314  0.00  0.00    -0.354 N 
ATOM      2  N   UNL     1       2.884  -3.369  -2.157  0.00  0.00    -0.372 N 
ATOM      3  N   UNL     1       2.861  -1.390  -3.317  0.00  0.00    -0.372 N 
ATOM      4  C   UNL     1       3.277  -2.094  -2.259  0.00  0.00    +0.166 C 
ATOM      5  H   UNL     1       4.321  -2.141  -0.522  0.00  0.00    +0.163 HD
ATOM      6  H   UNL     1       2.293  -3.798  -2.856  0.00  0.00    +0.159 HD
ATOM      7  H   UNL     1       3.179  -3.957  -1.387  0.00  0.00    +0.159 HD
ATOM      8  H   UNL     1       3.117  -0.421  -3.450  0.00  0.00    +0.159 HD
ATOM      9  H   UNL     1       2.259  -1.798  -4.022  0.00  0.00    +0.159 HD
ENDROOT
BRANCH   1  10
ATOM     10  C   UNL     1       4.592  -0.201  -1.359  0.00  0.00    +0.151 C 
BRANCH  10  11
ATOM     11  C   UNL     1       6.044  -0.248  -1.748  0.00  0.00    -0.028 A 
ATOM     12  C   UNL     1       6.741   0.933  -2.043  0.00  0.00    +0.005 A 
ATOM     13  C   UNL     1       6.730  -1.470  -1.817  0.00  0.00    +0.005 A 
ATOM     14  C   UNL     1       8.097   0.892  -2.375  0.00  0.00    +0.000 A 
ATOM     15  C   UNL     1       8.084  -1.507  -2.150  0.00  0.00    +0.000 A 
ATOM     16  C   UNL     1       8.768  -0.325  -2.426  0.00  0.00    +0.000 A 
ENDBRANCH  10  11
ENDBRANCH   1  10
TORSDOF 2
ENDMDL
MODEL 3
REMARK VINA RESULT:    -5.455      3.928      4.661
REMARK INTER + INTRA:          -6.195
REMARK INTER:                  -6.082
REMARK INTRA:                  -0.113
REMARK UNBOUND:                -0.103
REMARK  Name = 1550473
REMARK  2 active torsions:
REMARK  status: ('A' for Active; 'I' for Inactive)
REMARK    1  A    between atoms: N_1  and  C_4
REMARK    2  A    between atoms: C_4  and  C_5
REMARK                            x       y       z     vdW  Elec       q    Type
REMARK                         _______ _______ _______ _____ _____    ______ ____
ROOT
ATOM      1  N   UNL     1       5.507  -1.712  -4.040  0.00  0.00    -0.354 N 
ATOM      2  N   UNL     1       5.484  -2.978  -2.101  0.00  0.00    -0.372 N 
ATOM      3  N   UNL     1       5.081  -4.015  -4.108  0.00  0.00    -0.372 N 
ATOM      4  C   UNL     1       5.357  -2.896  -3.431  0.00  0.00    +0.166 C 
ATOM      5  H   UNL     1       5.685  -0.895  -3.467  0.00  0.00    +0.163 HD
ATOM      6  H   UNL     1       5.380  -3.858  -1.614  0.00  0.00    +0.159 HD
ATOM      7  H   UNL     1       5.708  -2.168  -1.536  0.00  0.00    +0.159 HD
ATOM      8  H   UNL     1       4.967  -4.019  -5.113  0.00  0.00    +0.159 HD
ATOM      9  H   UNL     1       4.962  -4.904  -3.637  0.00  0.00    +0.159 HD
ENDROOT
BRANCH   1  10
ATOM     10  C   UNL     1       5.441  -1.523  -5.488  0.00  0.00    +0.151 C 
BRANCH  10  11
ATOM     11  C   UNL     1       6.579  -0.640  -5.921  0.00  0.00    -0.028 A 
ATOM     12  C   UNL     1       6.525   0.745  -5.710  0.00  0.00    +0.005 A 
ATOM     13  C   UNL     1       7.717  -1.184  -6.537  0.00  0.00    +0.005 A 
ATOM     14  C   UNL     1       7.594   1.562  -6.085  0.00  0.00    +0.000 A 
ATOM     15  C   UNL     1       8.782  -0.365  -6.910  0.00  0.00    +0.000 A 
ATOM     16  C   UNL     1       8.722   1.008  -6.681  0.00  0.00    +0.000 A 
ENDBRANCH  10  11
ENDBRANCH   1  10
TORSDOF 2
ENDMDL
MODEL 4
REMARK VINA RESULT:    -5.446      2.906      3.094
REMARK INTER + INTRA:          -6.186
REMARK INTER:                  -6.042
REMARK INTRA:                  -0.143
REMARK UNBOUND:                -0.103
REMARK  Name = 1550473
REMARK  2 active torsions:
REMARK  status: ('A' for Active; 'I' for Inactive)
REMARK    1  A    between atoms: N_1  and  C_4
REMARK    2  A    between atoms: C_4  and  C_5
REMARK                            x       y       z     vdW  Elec       q    Type
REMARK                         _______ _______ _______ _____ _____    ______ ____
ROOT
ATOM      1  N   UNL     1       4.672   0.366  -3.385  0.00  0.00    -0.354 N 
ATOM      2  N   UNL     1       3.909   1.713  -1.663  0.00  0.00    -0.372 N 
ATOM      3  N   UNL     1       5.055  -0.205  -1.144  0.00  0.00    -0.372 N 
ATOM      4  C   UNL     1       4.551   0.614  -2.074  0.00  0.00    +0.166 C 
ATOM      5  H   UNL     1       4.242   1.010  -4.038  0.00  0.00    +0.163 HD
ATOM      6  H   UNL     1       3.805   1.928  -0.680  0.00  0.00    +0.159 HD
ATOM      7  H   UNL     1       3.519   2.379  -2.319  0.00  0.00    +0.159 HD
ATOM      8  H   UNL     1       5.546  -1.055  -1.389  0.00  0.00    +0.159 HD
ATOM      9  H   UNL     1       4.951  -0.013  -0.156  0.00  0.00    +0.159 HD
ENDROOT
BRANCH   1  10
ATOM     10  C   UNL     1       5.400  -0.775  -3.937  0.00  0.00    +0.151 C 
BRANCH  10  11
ATOM     11  C   UNL     1       6.421  -0.276  -4.922  0.00  0.00    -0.028 A 
ATOM     12  C   UNL     1       7.264  -1.176  -5.591  0.00  0.00    +0.005 A 
ATOM     13  C   UNL     1       6.548   1.094  -5.195  0.00  0.00    +0.005 A 
ATOM     14  C   UNL     1       8.193  -0.716  -6.528  0.00  0.00    +0.000 A 
ATOM     15  C   UNL     1       7.476   1.550  -6.130  0.00  0.00    +0.000 A 
ATOM     16  C   UNL     1       8.297   0.645  -6.798  0.00  0.00    +0.000 A 
ENDBRANCH  10  11
ENDBRANCH   1  10
TORSDOF 2
ENDMDL
MODEL 5
REMARK VINA RESULT:    -5.434      3.140      4.074
REMARK INTER + INTRA:          -6.172
REMARK INTER:                  -5.995
REMARK INTRA:                  -0.177
REMARK UNBOUND:                -0.103
REMARK  Name = 1550473
REMARK  2 active torsions:
REMARK  status: ('A' for Active; 'I' for Inactive)
REMARK    1  A    between atoms: N_1  and  C_4
REMARK    2  A    between atoms: C_4  and  C_5
REMARK                            x       y       z     vdW  Elec       q    Type
REMARK                         _______ _______ _______ _____ _____    ______ ____
ROOT
ATOM      1  N   UNL     1       6.349  -3.088  -2.320  0.00  0.00    -0.354 N 
ATOM      2  N   UNL     1       7.009  -4.814  -3.717  0.00  0.00    -0.372 N 
ATOM      3  N   UNL     1       5.095  -3.651  -4.218  0.00  0.00    -0.372 N 
ATOM      4  C   UNL     1       6.145  -3.839  -3.411  0.00  0.00    +0.166 C 
ATOM      5  H   UNL     1       7.147  -3.300  -1.733  0.00  0.00    +0.163 HD
ATOM      6  H   UNL     1       6.883  -5.394  -4.535  0.00  0.00    +0.159 HD
ATOM      7  H   UNL     1       7.831  -4.994  -3.153  0.00  0.00    +0.159 HD
ATOM      8  H   UNL     1       4.403  -2.936  -4.039  0.00  0.00    +0.159 HD
ATOM      9  H   UNL     1       4.945  -4.230  -5.035  0.00  0.00    +0.159 HD
ENDROOT
BRANCH   1  10
ATOM     10  C   UNL     1       5.497  -1.967  -1.928  0.00  0.00    +0.151 C 
BRANCH  10  11
ATOM     11  C   UNL     1       6.134  -0.683  -2.382  0.00  0.00    -0.028 A 
ATOM     12  C   UNL     1       7.103  -0.050  -1.590  0.00  0.00    +0.005 A 
ATOM     13  C   UNL     1       5.777  -0.097  -3.606  0.00  0.00    +0.005 A 
ATOM     14  C   UNL     1       7.717   1.127  -2.025  0.00  0.00    +0.000 A 
ATOM     15  C   UNL     1       6.392   1.079  -4.036  0.00  0.00    +0.000 A 
ATOM     16  C   UNL     1       7.364   1.689  -3.247  0.00  0.00    +0.000 A 
ENDBRANCH  10  11
ENDBRANCH   1  10
TORSDOF 2
ENDMDL
MODEL 6
REMARK VINA RESULT:    -5.411      3.589      4.520
REMARK INTER + INTRA:          -6.147
REMARK INTER:                  -5.967
REMARK INTRA:                  -0.180
REMARK UNBOUND:                -0.103
REMARK  Name = 1550473
REMARK  2 active torsions:
REMARK  status: ('A' for Active; 'I' for Inactive)
REMARK    1  A    between atoms: N_1  and  C_4
REMARK    2  A    between atoms: C_4  and  C_5
REMARK                            x       y       z     vdW  Elec       q    Type
REMARK                         _______ _______ _______ _____ _____    ______ ____
ROOT
ATOM      1  N   UNL     1       5.901  -2.826  -4.317  0.00  0.00    -0.354 N 
ATOM      2  N   UNL     1       6.989  -4.715  -3.537  0.00  0.00    -0.372 N 
ATOM      3  N   UNL     1       6.115  -3.233  -2.019  0.00  0.00    -0.372 N 
ATOM      4  C   UNL     1       6.327  -3.578  -3.294  0.00  0.00    +0.166 C 
ATOM      5  H   UNL     1       6.120  -3.127  -5.260  0.00  0.00    +0.163 HD
ATOM      6  H   UNL     1       7.320  -5.305  -2.785  0.00  0.00    +0.159 HD
ATOM      7  H   UNL     1       7.167  -5.037  -4.481  0.00  0.00    +0.159 HD
ATOM      8  H   UNL     1       5.627  -2.383  -1.768  0.00  0.00    +0.159 HD
ATOM      9  H   UNL     1       6.449  -3.804  -1.253  0.00  0.00    +0.159 HD
ENDROOT
BRANCH   1  10
ATOM     10  C   UNL     1       5.124  -1.597  -4.161  0.00  0.00    +0.151 C 
BRANCH  10  11
ATOM     11  C   UNL     1       6.018  -0.415  -4.420  0.00  0.00    -0.028 A 
ATOM     12  C   UNL     1       6.575   0.304  -3.352  0.00  0.00    +0.005 A 
ATOM     13  C   UNL     1       6.315  -0.013  -5.731  0.00  0.00    +0.005 A 
ATOM     14  C   UNL     1       7.429   1.383  -3.593  0.00  0.00    +0.000 A 
ATOM     15  C   UNL     1       7.168   1.066  -5.967  0.00  0.00    +0.000 A 
ATOM     16  C   UNL     1       7.726   1.762  -4.897  0.00  0.00    +0.000 A 
ENDBRANCH  10  11
ENDBRANCH   1  10
TORSDOF 2
ENDMDL
MODEL 7
REMARK VINA RESULT:    -5.401      4.635      5.374
REMARK INTER + INTRA:          -6.136
REMARK INTER:                  -6.039
REMARK INTRA:                  -0.097
REMARK UNBOUND:                -0.103
REMARK  Name = 1550473
REMARK  2 active torsions:
REMARK  status: ('A' for Active; 'I' for Inactive)
REMARK    1  A    between atoms: N_1  and  C_4
REMARK    2  A    between atoms: C_4  and  C_5
REMARK                            x       y       z     vdW  Elec       q    Type
REMARK                         _______ _______ _______ _____ _____    ______ ____
ROOT
ATOM      1  N   UNL     1       8.224   1.367  -4.277  0.00  0.00    -0.354 N 
ATOM      2  N   UNL     1       8.327   1.217  -1.968  0.00  0.00    -0.372 N 
ATOM      3  N   UNL     1       6.389   1.959  -2.945  0.00  0.00    -0.372 N 
ATOM      4  C   UNL     1       7.643   1.516  -3.079  0.00  0.00    +0.166 C 
ATOM      5  H   UNL     1       9.188   1.055  -4.309  0.00  0.00    +0.163 HD
ATOM      6  H   UNL     1       7.914   1.316  -1.050  0.00  0.00    +0.159 HD
ATOM      7  H   UNL     1       9.275   0.862  -2.005  0.00  0.00    +0.159 HD
ATOM      8  H   UNL     1       5.821   2.208  -3.744  0.00  0.00    +0.159 HD
ATOM      9  H   UNL     1       5.962   2.077  -2.035  0.00  0.00    +0.159 HD
ENDROOT
BRANCH   1  10
ATOM     10  C   UNL     1       7.548   1.614  -5.549  0.00  0.00    +0.151 C 
BRANCH  10  11
ATOM     11  C   UNL     1       8.393   1.068  -6.667  0.00  0.00    -0.028 A 
ATOM     12  C   UNL     1       8.504  -0.316  -6.865  0.00  0.00    +0.005 A 
ATOM     13  C   UNL     1       9.079   1.929  -7.537  0.00  0.00    +0.005 A 
ATOM     14  C   UNL     1       9.263  -0.823  -7.922  0.00  0.00    +0.000 A 
ATOM     15  C   UNL     1       9.838   1.419  -8.590  0.00  0.00    +0.000 A 
ATOM     16  C   UNL     1       9.927   0.043  -8.784  0.00  0.00    +0.000 A 
ENDBRANCH  10  11
ENDBRANCH   1  10
TORSDOF 2
ENDMDL
MODEL 8
REMARK VINA RESULT:    -5.333      3.232      3.955
REMARK INTER + INTRA:          -6.059
REMARK INTER:                  -5.939
REMARK INTRA:                  -0.120
REMARK UNBOUND:                -0.103
REMARK  Name = 1550473
REMARK  2 active torsions:
REMARK  status: ('A' for Active; 'I' for Inactive)
REMARK    1  A    between atoms: N_1  and  C_4
REMARK    2  A    between atoms: C_4  and  C_5
REMARK                            x       y       z     vdW  Elec       q    Type
REMARK                         _______ _______ _______ _____ _____    ______ ____
ROOT
ATOM      1  N   UNL     1       5.321  -0.999  -3.067  0.00  0.00    -0.354 N 
ATOM      2  N   UNL     1       5.142  -0.999  -0.757  0.00  0.00    -0.372 N 
ATOM      3  N   UNL     1       5.550  -2.981  -1.838  0.00  0.00    -0.372 N 
ATOM      4  C   UNL     1       5.339  -1.662  -1.903  0.00  0.00    +0.166 C 
ATOM      5  H   UNL     1       5.126  -0.004  -3.051  0.00  0.00    +0.163 HD
ATOM      6  H   UNL     1       5.154  -1.472   0.136  0.00  0.00    +0.159 HD
ATOM      7  H   UNL     1       4.993   0.003  -0.741  0.00  0.00    +0.159 HD
ATOM      8  H   UNL     1       5.699  -3.541  -2.667  0.00  0.00    +0.159 HD
ATOM      9  H   UNL     1       5.553  -3.475  -0.954  0.00  0.00    +0.159 HD
ENDROOT
BRANCH   1  10
ATOM     10  C   UNL     1       5.578  -1.619  -4.365  0.00  0.00    +0.151 C 
BRANCH  10  11
ATOM     11  C   UNL     1       6.454  -0.707  -5.180  0.00  0.00    -0.028 A 
ATOM     12  C   UNL     1       6.204   0.672  -5.219  0.00  0.00    +0.005 A 
ATOM     13  C   UNL     1       7.539  -1.217  -5.910  0.00  0.00    +0.005 A 
ATOM     14  C   UNL     1       7.036   1.523  -5.952  0.00  0.00    +0.000 A 
ATOM     15  C   UNL     1       8.366  -0.364  -6.641  0.00  0.00    +0.000 A 
ATOM     16  C   UNL     1       8.116   1.006  -6.659  0.00  0.00    +0.000 A 
ENDBRANCH  10  11
ENDBRANCH   1  10
TORSDOF 2
ENDMDL
MODEL 9
REMARK VINA RESULT:    -5.184      1.600      2.264
REMARK INTER + INTRA:          -5.893
REMARK INTER:                  -5.735
REMARK INTRA:                  -0.158
REMARK UNBOUND:                -0.103
REMARK  Name = 1550473
REMARK  2 active torsions:
REMARK  status: ('A' for Active; 'I' for Inactive)
REMARK    1  A    between atoms: N_1  and  C_4
REMARK    2  A    between atoms: C_4  and  C_5
REMARK                            x       y       z     vdW  Elec       q    Type
REMARK                         _______ _______ _______ _____ _____    ______ ____
ROOT
ATOM      1  N   UNL     1       5.192   1.138  -2.176  0.00  0.00    -0.354 N 
ATOM      2  N   UNL     1       3.442   1.908  -0.869  0.00  0.00    -0.372 N 
ATOM      3  N   UNL     1       2.965   0.801  -2.821  0.00  0.00    -0.372 N 
ATOM      4  C   UNL     1       3.876   1.276  -1.966  0.00  0.00    +0.166 C 
ATOM      5  H   UNL     1       5.832   1.548  -1.505  0.00  0.00    +0.163 HD
ATOM      6  H   UNL     1       2.455   2.024  -0.682  0.00  0.00    +0.159 HD
ATOM      7  H   UNL     1       4.083   2.276  -0.177  0.00  0.00    +0.159 HD
ATOM      8  H   UNL     1       3.227   0.319  -3.671  0.00  0.00    +0.159 HD
ATOM      9  H   UNL     1       1.973   0.918  -2.657  0.00  0.00    +0.159 HD
ENDROOT
BRANCH   1  10
ATOM     10  C   UNL     1       5.768   0.421  -3.311  0.00  0.00    +0.151 C 
BRANCH  10  11
ATOM     11  C   UNL     1       6.304  -0.902  -2.836  0.00  0.00    -0.028 A 
ATOM     12  C   UNL     1       6.766  -1.051  -1.520  0.00  0.00    +0.005 A 
ATOM     13  C   UNL     1       6.347  -2.011  -3.695  0.00  0.00    +0.005 A 
ATOM     14  C   UNL     1       7.236  -2.287  -1.069  0.00  0.00    +0.000 A 
ATOM     15  C   UNL     1       6.817  -3.243  -3.241  0.00  0.00    +0.000 A 
ATOM     16  C   UNL     1       7.260  -3.381  -1.928  0.00  0.00    +0.000 A 
ENDBRANCH  10  11
ENDBRANCH   1  10
TORSDOF 2
ENDMDL
