MODEL 1
REMARK VINA RESULT:    -6.407      0.000      0.000
REMARK INTER + INTRA:          -7.295
REMARK INTER:                  -7.156
REMARK INTRA:                  -0.139
REMARK UNBOUND:                -0.139
REMARK  Name = 1550473
REMARK  2 active torsions:
REMARK  status: ('A' for Active; 'I' for Inactive)
REMARK    1  A    between atoms: N_1  and  C_4
REMARK    2  A    between atoms: C_4  and  C_5
REMARK                            x       y       z     vdW  Elec       q    Type
REMARK                         _______ _______ _______ _____ _____    ______ ____
ROOT
ATOM      1  N   UNL     1      -0.424  -8.371  -3.575  0.00  0.00    -0.354 N 
ATOM      2  N   UNL     1       1.545  -8.375  -4.794  0.00  0.00    -0.372 N 
ATOM      3  N   UNL     1      -0.410  -8.960  -5.844  0.00  0.00    -0.372 N 
ATOM      4  C   UNL     1       0.223  -8.570  -4.732  0.00  0.00    +0.166 C 
ATOM      5  H   UNL     1       0.117  -8.104  -2.761  0.00  0.00    +0.163 HD
ATOM      6  H   UNL     1       2.060  -8.514  -5.654  0.00  0.00    +0.159 HD
ATOM      7  H   UNL     1       2.077  -8.064  -3.990  0.00  0.00    +0.159 HD
ATOM      8  H   UNL     1      -1.406  -9.130  -5.861  0.00  0.00    +0.159 HD
ATOM      9  H   UNL     1       0.090  -9.116  -6.710  0.00  0.00    +0.159 HD
ENDROOT
BRANCH   1  10
ATOM     10  C   UNL     1      -1.871  -8.503  -3.414  0.00  0.00    +0.151 C 
BRANCH  10  11
ATOM     11  C   UNL     1      -2.155  -9.484  -2.311  0.00  0.00    -0.028 A 
ATOM     12  C   UNL     1      -1.303  -9.572  -1.200  0.00  0.00    +0.005 A 
ATOM     13  C   UNL     1      -3.277 -10.325  -2.367  0.00  0.00    +0.005 A 
ATOM     14  C   UNL     1      -1.582 -10.462  -0.160  0.00  0.00    +0.000 A 
ATOM     15  C   UNL     1      -3.552 -11.213  -1.327  0.00  0.00    +0.000 A 
ATOM     16  C   UNL     1      -2.706 -11.279  -0.223  0.00  0.00    +0.000 A 
ENDBRANCH  10  11
ENDBRANCH   1  10
TORSDOF 2
ENDMDL
MODEL 2
REMARK VINA RESULT:    -6.069     17.300     18.570
REMARK INTER + INTRA:          -6.918
REMARK INTER:                  -6.782
REMARK INTRA:                  -0.135
REMARK UNBOUND:                -0.139
REMARK  Name = 1550473
REMARK  2 active torsions:
REMARK  status: ('A' for Active; 'I' for Inactive)
REMARK    1  A    between atoms: N_1  and  C_4
REMARK    2  A    between atoms: C_4  and  C_5
REMARK                            x       y       z     vdW  Elec       q    Type
REMARK                         _______ _______ _______ _____ _____    ______ ____
ROOT
ATOM      1  N   UNL     1      -1.453 -15.475 -21.028  0.00  0.00    -0.354 N 
ATOM      2  N   UNL     1      -2.169 -17.631 -20.576  0.00  0.00    -0.372 N 
ATOM      3  N   UNL     1       0.067 -17.146 -20.403  0.00  0.00    -0.372 N 
ATOM      4  C   UNL     1      -1.177 -16.737 -20.672  0.00  0.00    +0.166 C 
ATOM      5  H   UNL     1      -2.413 -15.236 -21.248  0.00  0.00    +0.163 HD
ATOM      6  H   UNL     1      -1.992 -18.590 -20.307  0.00  0.00    +0.159 HD
ATOM      7  H   UNL     1      -3.133 -17.378 -20.752  0.00  0.00    +0.159 HD
ATOM      8  H   UNL     1       0.860 -16.521 -20.462  0.00  0.00    +0.159 HD
ATOM      9  H   UNL     1       0.266 -18.104 -20.143  0.00  0.00    +0.159 HD
ENDROOT
BRANCH   1  10
ATOM     10  C   UNL     1      -0.453 -14.412 -21.109  0.00  0.00    +0.151 C 
BRANCH  10  11
ATOM     11  C   UNL     1      -1.021 -13.157 -20.505  0.00  0.00    -0.028 A 
ATOM     12  C   UNL     1      -1.855 -13.223 -19.378  0.00  0.00    +0.005 A 
ATOM     13  C   UNL     1      -0.725 -11.898 -21.051  0.00  0.00    +0.005 A 
ATOM     14  C   UNL     1      -2.358 -12.056 -18.799  0.00  0.00    +0.000 A 
ATOM     15  C   UNL     1      -1.231 -10.735 -20.470  0.00  0.00    +0.000 A 
ATOM     16  C   UNL     1      -2.045 -10.814 -19.343  0.00  0.00    +0.000 A 
ENDBRANCH  10  11
ENDBRANCH   1  10
TORSDOF 2
ENDMDL
MODEL 3
REMARK VINA RESULT:    -6.001      1.167      2.087
REMARK INTER + INTRA:          -6.843
REMARK INTER:                  -6.690
REMARK INTRA:                  -0.152
REMARK UNBOUND:                -0.139
REMARK  Name = 1550473
REMARK  2 active torsions:
REMARK  status: ('A' for Active; 'I' for Inactive)
REMARK    1  A    between atoms: N_1  and  C_4
REMARK    2  A    between atoms: C_4  and  C_5
REMARK                            x       y       z     vdW  Elec       q    Type
REMARK                         _______ _______ _______ _____ _____    ______ ____
ROOT
ATOM      1  N   UNL     1      -2.064  -9.913  -4.960  0.00  0.00    -0.354 N 
ATOM      2  N   UNL     1      -0.422 -10.823  -6.316  0.00  0.00    -0.372 N 
ATOM      3  N   UNL     1       0.119  -9.062  -4.949  0.00  0.00    -0.372 N 
ATOM      4  C   UNL     1      -0.798  -9.925  -5.398  0.00  0.00    +0.166 C 
ATOM      5  H   UNL     1      -2.719 -10.574  -5.363  0.00  0.00    +0.163 HD
ATOM      6  H   UNL     1       0.527 -10.858  -6.664  0.00  0.00    +0.159 HD
ATOM      7  H   UNL     1      -1.067 -11.512  -6.683  0.00  0.00    +0.159 HD
ATOM      8  H   UNL     1      -0.102  -8.355  -4.260  0.00  0.00    +0.159 HD
ATOM      9  H   UNL     1       1.071  -9.074  -5.293  0.00  0.00    +0.159 HD
ENDROOT
BRANCH   1  10
ATOM     10  C   UNL     1      -2.562  -9.011  -3.923  0.00  0.00    +0.151 C 
BRANCH  10  11
ATOM     11  C   UNL     1      -2.465  -9.696  -2.588  0.00  0.00    -0.028 A 
ATOM     12  C   UNL     1      -3.439 -10.623  -2.191  0.00  0.00    +0.005 A 
ATOM     13  C   UNL     1      -1.397  -9.426  -1.718  0.00  0.00    +0.005 A 
ATOM     14  C   UNL     1      -3.333 -11.282  -0.963  0.00  0.00    +0.000 A 
ATOM     15  C   UNL     1      -1.295 -10.085  -0.493  0.00  0.00    +0.000 A 
ATOM     16  C   UNL     1      -2.262 -11.015  -0.117  0.00  0.00    +0.000 A 
ENDBRANCH  10  11
ENDBRANCH   1  10
TORSDOF 2
ENDMDL
MODEL 4
REMARK VINA RESULT:    -5.977      3.911      4.914
REMARK INTER + INTRA:          -6.815
REMARK INTER:                  -6.675
REMARK INTRA:                  -0.140
REMARK UNBOUND:                -0.139
REMARK  Name = 1550473
REMARK  2 active torsions:
REMARK  status: ('A' for Active; 'I' for Inactive)
REMARK    1  A    between atoms: N_1  and  C_4
REMARK    2  A    between atoms: C_4  and  C_5
REMARK                            x       y       z     vdW  Elec       q    Type
REMARK                         _______ _______ _______ _____ _____    ______ ____
ROOT
ATOM      1  N   UNL     1      -0.576  -9.696  -5.632  0.00  0.00    -0.354 N 
ATOM      2  N   UNL     1       1.274  -8.611  -4.760  0.00  0.00    -0.372 N 
ATOM      3  N   UNL     1      -0.444  -9.179  -3.350  0.00  0.00    -0.372 N 
ATOM      4  C   UNL     1       0.071  -9.169  -4.584  0.00  0.00    +0.166 C 
ATOM      5  H   UNL     1      -0.145  -9.630  -6.547  0.00  0.00    +0.163 HD
ATOM      6  H   UNL     1       1.788  -8.208  -3.987  0.00  0.00    +0.159 HD
ATOM      7  H   UNL     1       1.723  -8.586  -5.667  0.00  0.00    +0.159 HD
ATOM      8  H   UNL     1      -1.351  -9.581  -3.151  0.00  0.00    +0.159 HD
ATOM      9  H   UNL     1       0.050  -8.771  -2.566  0.00  0.00    +0.159 HD
ENDROOT
BRANCH   1  10
ATOM     10  C   UNL     1      -1.867 -10.376  -5.538  0.00  0.00    +0.151 C 
BRANCH  10  11
ATOM     11  C   UNL     1      -1.766 -11.717  -6.211  0.00  0.00    -0.028 A 
ATOM     12  C   UNL     1      -0.785 -11.953  -7.185  0.00  0.00    +0.005 A 
ATOM     13  C   UNL     1      -2.645 -12.758  -5.875  0.00  0.00    +0.005 A 
ATOM     14  C   UNL     1      -0.672 -13.208  -7.788  0.00  0.00    +0.000 A 
ATOM     15  C   UNL     1      -2.530 -14.009  -6.480  0.00  0.00    +0.000 A 
ATOM     16  C   UNL     1      -1.541 -14.234  -7.435  0.00  0.00    +0.000 A 
ENDBRANCH  10  11
ENDBRANCH   1  10
TORSDOF 2
ENDMDL
MODEL 5
REMARK VINA RESULT:    -5.670     16.966     18.002
REMARK INTER + INTRA:          -6.472
REMARK INTER:                  -6.351
REMARK INTRA:                  -0.121
REMARK UNBOUND:                -0.139
REMARK  Name = 1550473
REMARK  2 active torsions:
REMARK  status: ('A' for Active; 'I' for Inactive)
REMARK    1  A    between atoms: N_1  and  C_4
REMARK    2  A    between atoms: C_4  and  C_5
REMARK                            x       y       z     vdW  Elec       q    Type
REMARK                         _______ _______ _______ _____ _____    ______ ____
ROOT
ATOM      1  N   UNL     1       0.096 -15.405 -19.995  0.00  0.00    -0.354 N 
ATOM      2  N   UNL     1       1.923 -16.721 -19.450  0.00  0.00    -0.372 N 
ATOM      3  N   UNL     1      -0.018 -16.966 -18.251  0.00  0.00    -0.372 N 
ATOM      4  C   UNL     1       0.653 -16.356 -19.234  0.00  0.00    +0.166 C 
ATOM      5  H   UNL     1       0.668 -14.960 -20.704  0.00  0.00    +0.163 HD
ATOM      6  H   UNL     1       2.369 -17.438 -18.894  0.00  0.00    +0.159 HD
ATOM      7  H   UNL     1       2.477 -16.307 -20.189  0.00  0.00    +0.159 HD
ATOM      8  H   UNL     1      -0.977 -16.732 -18.032  0.00  0.00    +0.159 HD
ATOM      9  H   UNL     1       0.415 -17.677 -17.675  0.00  0.00    +0.159 HD
ENDROOT
BRANCH   1  10
ATOM     10  C   UNL     1      -1.295 -14.973 -19.877  0.00  0.00    +0.151 C 
BRANCH  10  11
ATOM     11  C   UNL     1      -1.349 -13.471 -19.931  0.00  0.00    -0.028 A 
ATOM     12  C   UNL     1      -0.607 -12.766 -20.890  0.00  0.00    +0.005 A 
ATOM     13  C   UNL     1      -2.146 -12.748 -19.031  0.00  0.00    +0.005 A 
ATOM     14  C   UNL     1      -0.680 -11.373 -20.960  0.00  0.00    +0.000 A 
ATOM     15  C   UNL     1      -2.216 -11.357 -19.104  0.00  0.00    +0.000 A 
ATOM     16  C   UNL     1      -1.485 -10.670 -20.070  0.00  0.00    +0.000 A 
ENDBRANCH  10  11
ENDBRANCH   1  10
TORSDOF 2
ENDMDL
MODEL 6
REMARK VINA RESULT:    -5.542      1.784      2.590
REMARK INTER + INTRA:          -6.330
REMARK INTER:                  -6.222
REMARK INTRA:                  -0.108
REMARK UNBOUND:                -0.139
REMARK  Name = 1550473
REMARK  2 active torsions:
REMARK  status: ('A' for Active; 'I' for Inactive)
REMARK    1  A    between atoms: N_1  and  C_4
REMARK    2  A    between atoms: C_4  and  C_5
REMARK                            x       y       z     vdW  Elec       q    Type
REMARK                         _______ _______ _______ _____ _____    ______ ____
ROOT
ATOM      1  N   UNL     1      -1.768 -10.036  -4.856  0.00  0.00    -0.354 N 
ATOM      2  N   UNL     1       0.240  -8.892  -5.005  0.00  0.00    -0.372 N 
ATOM      3  N   UNL     1       0.261 -11.186  -5.083  0.00  0.00    -0.372 N 
ATOM      4  C   UNL     1      -0.435 -10.048  -4.980  0.00  0.00    +0.166 C 
ATOM      5  H   UNL     1      -2.234  -9.142  -4.752  0.00  0.00    +0.163 HD
ATOM      6  H   UNL     1       1.246  -8.870  -5.101  0.00  0.00    +0.159 HD
ATOM      7  H   UNL     1      -0.232  -7.998  -4.947  0.00  0.00    +0.159 HD
ATOM      8  H   UNL     1      -0.188 -12.091  -5.066  0.00  0.00    +0.159 HD
ATOM      9  H   UNL     1       1.270 -11.184  -5.169  0.00  0.00    +0.159 HD
ENDROOT
BRANCH   1  10
ATOM     10  C   UNL     1      -2.602 -11.237  -4.873  0.00  0.00    +0.151 C 
BRANCH  10  11
ATOM     11  C   UNL     1      -3.132 -11.486  -3.487  0.00  0.00    -0.028 A 
ATOM     12  C   UNL     1      -3.942 -12.600  -3.225  0.00  0.00    +0.005 A 
ATOM     13  C   UNL     1      -2.822 -10.615  -2.431  0.00  0.00    +0.005 A 
ATOM     14  C   UNL     1      -4.409 -12.849  -1.932  0.00  0.00    +0.000 A 
ATOM     15  C   UNL     1      -3.291 -10.867  -1.142  0.00  0.00    +0.000 A 
ATOM     16  C   UNL     1      -4.082 -11.985  -0.892  0.00  0.00    +0.000 A 
ENDBRANCH  10  11
ENDBRANCH   1  10
TORSDOF 2
ENDMDL
MODEL 7
REMARK VINA RESULT:    -5.167      2.980      5.928
REMARK INTER + INTRA:          -5.910
REMARK INTER:                  -5.798
REMARK INTRA:                  -0.112
REMARK UNBOUND:                -0.139
REMARK  Name = 1550473
REMARK  2 active torsions:
REMARK  status: ('A' for Active; 'I' for Inactive)
REMARK    1  A    between atoms: N_1  and  C_4
REMARK    2  A    between atoms: C_4  and  C_5
REMARK                            x       y       z     vdW  Elec       q    Type
REMARK                         _______ _______ _______ _____ _____    ______ ____
ROOT
ATOM      1  N   UNL     1      -0.995  -9.965  -4.872  0.00  0.00    -0.354 N 
ATOM      2  N   UNL     1      -0.697  -9.817  -2.580  0.00  0.00    -0.372 N 
ATOM      3  N   UNL     1      -2.722  -9.215  -3.477  0.00  0.00    -0.372 N 
ATOM      4  C   UNL     1      -1.476  -9.666  -3.658  0.00  0.00    +0.166 C 
ATOM      5  H   UNL     1      -0.032 -10.273  -4.946  0.00  0.00    +0.163 HD
ATOM      6  H   UNL     1      -1.034  -9.603  -1.651  0.00  0.00    +0.159 HD
ATOM      7  H   UNL     1       0.250 -10.169  -2.652  0.00  0.00    +0.159 HD
ATOM      8  H   UNL     1      -3.358  -9.073  -4.250  0.00  0.00    +0.159 HD
ATOM      9  H   UNL     1      -3.073  -8.984  -2.556  0.00  0.00    +0.159 HD
ENDROOT
BRANCH   1  10
ATOM     10  C   UNL     1      -1.778  -9.886  -6.104  0.00  0.00    +0.151 C 
BRANCH  10  11
ATOM     11  C   UNL     1      -1.155  -8.867  -7.018  0.00  0.00    -0.028 A 
ATOM     12  C   UNL     1      -0.375  -7.825  -6.496  0.00  0.00    +0.005 A 
ATOM     13  C   UNL     1      -1.336  -8.941  -8.407  0.00  0.00    +0.005 A 
ATOM     14  C   UNL     1       0.229  -6.896  -7.346  0.00  0.00    +0.000 A 
ATOM     15  C   UNL     1      -0.733  -8.011  -9.253  0.00  0.00    +0.000 A 
ATOM     16  C   UNL     1       0.052  -6.990  -8.722  0.00  0.00    +0.000 A 
ENDBRANCH  10  11
ENDBRANCH   1  10
TORSDOF 2
ENDMDL
MODEL 8
REMARK VINA RESULT:    -5.164     19.819     20.865
REMARK INTER + INTRA:          -5.908
REMARK INTER:                  -5.765
REMARK INTRA:                  -0.143
REMARK UNBOUND:                -0.139
REMARK  Name = 1550473
REMARK  2 active torsions:
REMARK  status: ('A' for Active; 'I' for Inactive)
REMARK    1  A    between atoms: N_1  and  C_4
REMARK    2  A    between atoms: C_4  and  C_5
REMARK                            x       y       z     vdW  Elec       q    Type
REMARK                         _______ _______ _______ _____ _____    ______ ____
ROOT
ATOM      1  N   UNL     1     -18.255   0.459  -7.068  0.00  0.00    -0.354 N 
ATOM      2  N   UNL     1     -19.632  -0.687  -8.537  0.00  0.00    -0.372 N 
ATOM      3  N   UNL     1     -20.581   0.746  -7.017  0.00  0.00    -0.372 N 
ATOM      4  C   UNL     1     -19.482   0.181  -7.529  0.00  0.00    +0.166 C 
ATOM      5  H   UNL     1     -17.466  -0.025  -7.479  0.00  0.00    +0.163 HD
ATOM      6  H   UNL     1     -20.544  -0.914  -8.908  0.00  0.00    +0.159 HD
ATOM      7  H   UNL     1     -18.837  -1.135  -8.976  0.00  0.00    +0.159 HD
ATOM      8  H   UNL     1     -20.537   1.405  -6.251  0.00  0.00    +0.159 HD
ATOM      9  H   UNL     1     -21.504   0.523  -7.367  0.00  0.00    +0.159 HD
ENDROOT
BRANCH   1  10
ATOM     10  C   UNL     1     -17.980   1.430  -6.011  0.00  0.00    +0.151 C 
BRANCH  10  11
ATOM     11  C   UNL     1     -17.037   2.477  -6.539  0.00  0.00    -0.028 A 
ATOM     12  C   UNL     1     -16.088   2.151  -7.519  0.00  0.00    +0.005 A 
ATOM     13  C   UNL     1     -17.092   3.797  -6.067  0.00  0.00    +0.005 A 
ATOM     14  C   UNL     1     -15.233   3.129  -8.031  0.00  0.00    +0.000 A 
ATOM     15  C   UNL     1     -16.236   4.771  -6.581  0.00  0.00    +0.000 A 
ATOM     16  C   UNL     1     -15.308   4.437  -7.565  0.00  0.00    +0.000 A 
ENDBRANCH  10  11
ENDBRANCH   1  10
TORSDOF 2
ENDMDL
MODEL 9
REMARK VINA RESULT:    -5.044     17.805     19.487
REMARK INTER + INTRA:          -5.773
REMARK INTER:                  -5.673
REMARK INTRA:                  -0.100
REMARK UNBOUND:                -0.139
REMARK  Name = 1550473
REMARK  2 active torsions:
REMARK  status: ('A' for Active; 'I' for Inactive)
REMARK    1  A    between atoms: N_1  and  C_4
REMARK    2  A    between atoms: C_4  and  C_5
REMARK                            x       y       z     vdW  Elec       q    Type
REMARK                         _______ _______ _______ _____ _____    ______ ____
ROOT
ATOM      1  N   UNL     1       0.707 -15.060 -22.074  0.00  0.00    -0.354 N 
ATOM      2  N   UNL     1       2.695 -15.821 -22.986  0.00  0.00    -0.372 N 
ATOM      3  N   UNL     1       0.714 -16.500 -23.923  0.00  0.00    -0.372 N 
ATOM      4  C   UNL     1       1.357 -15.791 -22.990  0.00  0.00    +0.166 C 
ATOM      5  H   UNL     1       1.253 -14.569 -21.375  0.00  0.00    +0.163 HD
ATOM      6  H   UNL     1       3.213 -16.360 -23.667  0.00  0.00    +0.159 HD
ATOM      7  H   UNL     1       3.239 -15.293 -22.315  0.00  0.00    +0.159 HD
ATOM      8  H   UNL     1      -0.296 -16.524 -23.976  0.00  0.00    +0.159 HD
ATOM      9  H   UNL     1       1.214 -17.055 -24.606  0.00  0.00    +0.159 HD
ENDROOT
BRANCH   1  10
ATOM     10  C   UNL     1      -0.746 -14.917 -22.024  0.00  0.00    +0.151 C 
BRANCH  10  11
ATOM     11  C   UNL     1      -1.094 -13.745 -21.147  0.00  0.00    -0.028 A 
ATOM     12  C   UNL     1      -0.817 -12.436 -21.566  0.00  0.00    +0.005 A 
ATOM     13  C   UNL     1      -1.707 -13.938 -19.899  0.00  0.00    +0.005 A 
ATOM     14  C   UNL     1      -1.168 -11.346 -20.765  0.00  0.00    +0.000 A 
ATOM     15  C   UNL     1      -2.054 -12.847 -19.103  0.00  0.00    +0.000 A 
ATOM     16  C   UNL     1      -1.787 -11.551 -19.537  0.00  0.00    +0.000 A 
ENDBRANCH  10  11
ENDBRANCH   1  10
TORSDOF 2
ENDMDL
