MODEL 1
REMARK VINA RESULT:    -4.968      0.000      0.000
REMARK INTER + INTRA:          -5.678
REMARK INTER:                  -5.549
REMARK INTRA:                  -0.129
REMARK UNBOUND:                -0.129
REMARK  Name = 1550473
REMARK  2 active torsions:
REMARK  status: ('A' for Active; 'I' for Inactive)
REMARK    1  A    between atoms: N_1  and  C_4
REMARK    2  A    between atoms: C_4  and  C_5
REMARK                            x       y       z     vdW  Elec       q    Type
REMARK                         _______ _______ _______ _____ _____    ______ ____
ROOT
ATOM      1  N   UNL     1       5.802   5.506  -5.430  0.00  0.00    -0.354 N 
ATOM      2  N   UNL     1       5.140   3.751  -6.788  0.00  0.00    -0.372 N 
ATOM      3  N   UNL     1       4.217   3.944  -4.696  0.00  0.00    -0.372 N 
ATOM      4  C   UNL     1       5.056   4.411  -5.627  0.00  0.00    +0.166 C 
ATOM      5  H   UNL     1       6.441   5.792  -6.163  0.00  0.00    +0.163 HD
ATOM      6  H   UNL     1       4.587   2.923  -6.967  0.00  0.00    +0.159 HD
ATOM      7  H   UNL     1       5.745   4.064  -7.537  0.00  0.00    +0.159 HD
ATOM      8  H   UNL     1       4.111   4.393  -3.796  0.00  0.00    +0.159 HD
ATOM      9  H   UNL     1       3.663   3.111  -4.852  0.00  0.00    +0.159 HD
ENDROOT
BRANCH   1  10
ATOM     10  C   UNL     1       5.745   6.328  -4.222  0.00  0.00    +0.151 C 
BRANCH  10  11
ATOM     11  C   UNL     1       7.102   6.344  -3.574  0.00  0.00    -0.028 A 
ATOM     12  C   UNL     1       7.367   7.203  -2.498  0.00  0.00    +0.005 A 
ATOM     13  C   UNL     1       8.125   5.497  -4.028  0.00  0.00    +0.005 A 
ATOM     14  C   UNL     1       8.618   7.196  -1.877  0.00  0.00    +0.000 A 
ATOM     15  C   UNL     1       9.373   5.494  -3.405  0.00  0.00    +0.000 A 
ATOM     16  C   UNL     1       9.618   6.342  -2.328  0.00  0.00    +0.000 A 
ENDBRANCH  10  11
ENDBRANCH   1  10
TORSDOF 2
ENDMDL
MODEL 2
REMARK VINA RESULT:    -4.884     17.750     19.180
REMARK INTER + INTRA:          -5.585
REMARK INTER:                  -5.456
REMARK INTRA:                  -0.129
REMARK UNBOUND:                -0.129
REMARK  Name = 1550473
REMARK  2 active torsions:
REMARK  status: ('A' for Active; 'I' for Inactive)
REMARK    1  A    between atoms: N_1  and  C_4
REMARK    2  A    between atoms: C_4  and  C_5
REMARK                            x       y       z     vdW  Elec       q    Type
REMARK                         _______ _______ _______ _____ _____    ______ ____
ROOT
ATOM      1  N   UNL     1       4.109  13.639  11.789  0.00  0.00    -0.354 N 
ATOM      2  N   UNL     1       3.814  13.046   9.570  0.00  0.00    -0.372 N 
ATOM      3  N   UNL     1       4.936  14.987  10.060  0.00  0.00    -0.372 N 
ATOM      4  C   UNL     1       4.289  13.897  10.487  0.00  0.00    +0.166 C 
ATOM      5  H   UNL     1       3.584  12.811  12.048  0.00  0.00    +0.163 HD
ATOM      6  H   UNL     1       3.938  13.212   8.580  0.00  0.00    +0.159 HD
ATOM      7  H   UNL     1       3.330  12.196   9.832  0.00  0.00    +0.159 HD
ATOM      8  H   UNL     1       5.313  15.671  10.701  0.00  0.00    +0.159 HD
ATOM      9  H   UNL     1       5.059  15.177   9.073  0.00  0.00    +0.159 HD
ENDROOT
BRANCH   1  10
ATOM     10  C   UNL     1       4.634  14.473  12.869  0.00  0.00    +0.151 C 
BRANCH  10  11
ATOM     11  C   UNL     1       5.064  13.591  14.008  0.00  0.00    -0.028 A 
ATOM     12  C   UNL     1       5.761  12.399  13.761  0.00  0.00    +0.005 A 
ATOM     13  C   UNL     1       4.782  13.943  15.336  0.00  0.00    +0.005 A 
ATOM     14  C   UNL     1       6.187  11.594  14.820  0.00  0.00    +0.000 A 
ATOM     15  C   UNL     1       5.208  13.136  16.391  0.00  0.00    +0.000 A 
ATOM     16  C   UNL     1       5.912  11.963  16.133  0.00  0.00    +0.000 A 
ENDBRANCH  10  11
ENDBRANCH   1  10
TORSDOF 2
ENDMDL
MODEL 3
REMARK VINA RESULT:    -4.701      4.721      6.326
REMARK INTER + INTRA:          -5.380
REMARK INTER:                  -5.232
REMARK INTRA:                  -0.148
REMARK UNBOUND:                -0.129
REMARK  Name = 1550473
REMARK  2 active torsions:
REMARK  status: ('A' for Active; 'I' for Inactive)
REMARK    1  A    between atoms: N_1  and  C_4
REMARK    2  A    between atoms: C_4  and  C_5
REMARK                            x       y       z     vdW  Elec       q    Type
REMARK                         _______ _______ _______ _____ _____    ______ ____
ROOT
ATOM      1  N   UNL     1       9.573   7.541   0.797  0.00  0.00    -0.354 N 
ATOM      2  N   UNL     1       9.388   6.705   2.948  0.00  0.00    -0.372 N 
ATOM      3  N   UNL     1      11.236   6.161   1.703  0.00  0.00    -0.372 N 
ATOM      4  C   UNL     1      10.069   6.806   1.801  0.00  0.00    +0.166 C 
ATOM      5  H   UNL     1       8.669   7.981   0.923  0.00  0.00    +0.163 HD
ATOM      6  H   UNL     1       9.738   6.160   3.725  0.00  0.00    +0.159 HD
ATOM      7  H   UNL     1       8.506   7.183   3.089  0.00  0.00    +0.159 HD
ATOM      8  H   UNL     1      11.796   6.193   0.861  0.00  0.00    +0.159 HD
ATOM      9  H   UNL     1      11.598   5.601   2.465  0.00  0.00    +0.159 HD
ENDROOT
BRANCH   1  10
ATOM     10  C   UNL     1      10.262   7.760  -0.474  0.00  0.00    +0.151 C 
BRANCH  10  11
ATOM     11  C   UNL     1       9.460   7.135  -1.582  0.00  0.00    -0.028 A 
ATOM     12  C   UNL     1      10.019   6.132  -2.387  0.00  0.00    +0.005 A 
ATOM     13  C   UNL     1       8.138   7.538  -1.828  0.00  0.00    +0.005 A 
ATOM     14  C   UNL     1       9.264   5.530  -3.397  0.00  0.00    +0.000 A 
ATOM     15  C   UNL     1       7.388   6.935  -2.837  0.00  0.00    +0.000 A 
ATOM     16  C   UNL     1       7.951   5.930  -3.620  0.00  0.00    +0.000 A 
ENDBRANCH  10  11
ENDBRANCH   1  10
TORSDOF 2
ENDMDL
MODEL 4
REMARK VINA RESULT:    -4.543      4.189      5.788
REMARK INTER + INTRA:          -5.203
REMARK INTER:                  -5.086
REMARK INTRA:                  -0.117
REMARK UNBOUND:                -0.129
REMARK  Name = 1550473
REMARK  2 active torsions:
REMARK  status: ('A' for Active; 'I' for Inactive)
REMARK    1  A    between atoms: N_1  and  C_4
REMARK    2  A    between atoms: C_4  and  C_5
REMARK                            x       y       z     vdW  Elec       q    Type
REMARK                         _______ _______ _______ _____ _____    ______ ____
ROOT
ATOM      1  N   UNL     1       8.899   9.049  -1.172  0.00  0.00    -0.354 N 
ATOM      2  N   UNL     1       8.712  11.208  -0.354  0.00  0.00    -0.372 N 
ATOM      3  N   UNL     1       9.568   9.575   1.012  0.00  0.00    -0.372 N 
ATOM      4  C   UNL     1       9.062   9.929  -0.174  0.00  0.00    +0.166 C 
ATOM      5  H   UNL     1       8.482   9.374  -2.036  0.00  0.00    +0.163 HD
ATOM      6  H   UNL     1       8.827  11.895   0.379  0.00  0.00    +0.159 HD
ATOM      7  H   UNL     1       8.338  11.540  -1.235  0.00  0.00    +0.159 HD
ATOM      8  H   UNL     1       9.846   8.624   1.214  0.00  0.00    +0.159 HD
ATOM      9  H   UNL     1       9.679  10.246   1.762  0.00  0.00    +0.159 HD
ENDROOT
BRANCH   1  10
ATOM     10  C   UNL     1       9.298   7.645  -1.097  0.00  0.00    +0.151 C 
BRANCH  10  11
ATOM     11  C   UNL     1       8.610   6.880  -2.193  0.00  0.00    -0.028 A 
ATOM     12  C   UNL     1       7.258   7.114  -2.485  0.00  0.00    +0.005 A 
ATOM     13  C   UNL     1       9.306   5.924  -2.949  0.00  0.00    +0.005 A 
ATOM     14  C   UNL     1       6.627   6.425  -3.523  0.00  0.00    +0.000 A 
ATOM     15  C   UNL     1       8.672   5.237  -3.984  0.00  0.00    +0.000 A 
ATOM     16  C   UNL     1       7.333   5.490  -4.273  0.00  0.00    +0.000 A 
ENDBRANCH  10  11
ENDBRANCH   1  10
TORSDOF 2
ENDMDL
MODEL 5
REMARK VINA RESULT:    -4.443      4.759      6.215
REMARK INTER + INTRA:          -5.092
REMARK INTER:                  -4.921
REMARK INTRA:                  -0.171
REMARK UNBOUND:                -0.129
REMARK  Name = 1550473
REMARK  2 active torsions:
REMARK  status: ('A' for Active; 'I' for Inactive)
REMARK    1  A    between atoms: N_1  and  C_4
REMARK    2  A    between atoms: C_4  and  C_5
REMARK                            x       y       z     vdW  Elec       q    Type
REMARK                         _______ _______ _______ _____ _____    ______ ____
ROOT
ATOM      1  N   UNL     1       9.749   7.488   0.883  0.00  0.00    -0.354 N 
ATOM      2  N   UNL     1       9.864   6.368   2.907  0.00  0.00    -0.372 N 
ATOM      3  N   UNL     1      11.481   5.973   1.327  0.00  0.00    -0.372 N 
ATOM      4  C   UNL     1      10.366   6.616   1.691  0.00  0.00    +0.166 C 
ATOM      5  H   UNL     1       8.891   7.920   1.206  0.00  0.00    +0.163 HD
ATOM      6  H   UNL     1      10.309   5.718   3.540  0.00  0.00    +0.159 HD
ATOM      7  H   UNL     1       9.032   6.836   3.245  0.00  0.00    +0.159 HD
ATOM      8  H   UNL     1      11.907   6.110   0.420  0.00  0.00    +0.159 HD
ATOM      9  H   UNL     1      11.934   5.309   1.942  0.00  0.00    +0.159 HD
ENDROOT
BRANCH   1  10
ATOM     10  C   UNL     1      10.244   7.868  -0.440  0.00  0.00    +0.151 C 
BRANCH  10  11
ATOM     11  C   UNL     1       9.367   7.244  -1.490  0.00  0.00    -0.028 A 
ATOM     12  C   UNL     1       8.049   7.688  -1.674  0.00  0.00    +0.005 A 
ATOM     13  C   UNL     1       9.850   6.212  -2.309  0.00  0.00    +0.005 A 
ATOM     14  C   UNL     1       7.245   7.129  -2.669  0.00  0.00    +0.000 A 
ATOM     15  C   UNL     1       9.043   5.656  -3.301  0.00  0.00    +0.000 A 
ATOM     16  C   UNL     1       7.741   6.116  -3.483  0.00  0.00    +0.000 A 
ENDBRANCH  10  11
ENDBRANCH   1  10
TORSDOF 2
ENDMDL
MODEL 6
REMARK VINA RESULT:    -4.221     17.138     18.563
REMARK INTER + INTRA:          -4.844
REMARK INTER:                  -4.707
REMARK INTRA:                  -0.138
REMARK UNBOUND:                -0.129
REMARK  Name = 1550473
REMARK  2 active torsions:
REMARK  status: ('A' for Active; 'I' for Inactive)
REMARK    1  A    between atoms: N_1  and  C_4
REMARK    2  A    between atoms: C_4  and  C_5
REMARK                            x       y       z     vdW  Elec       q    Type
REMARK                         _______ _______ _______ _____ _____    ______ ____
ROOT
ATOM      1  N   UNL     1       4.375  15.061  10.649  0.00  0.00    -0.354 N 
ATOM      2  N   UNL     1       2.239  14.835   9.782  0.00  0.00    -0.372 N 
ATOM      3  N   UNL     1       3.739  13.122   9.496  0.00  0.00    -0.372 N 
ATOM      4  C   UNL     1       3.466  14.338   9.980  0.00  0.00    +0.166 C 
ATOM      5  H   UNL     1       4.116  15.988  10.964  0.00  0.00    +0.163 HD
ATOM      6  H   UNL     1       1.532  14.312   9.284  0.00  0.00    +0.159 HD
ATOM      7  H   UNL     1       1.968  15.744  10.138  0.00  0.00    +0.159 HD
ATOM      8  H   UNL     1       4.648  12.693   9.607  0.00  0.00    +0.159 HD
ATOM      9  H   UNL     1       3.048  12.588   8.985  0.00  0.00    +0.159 HD
ENDROOT
BRANCH   1  10
ATOM     10  C   UNL     1       5.722  14.589  10.965  0.00  0.00    +0.151 C 
BRANCH  10  11
ATOM     11  C   UNL     1       5.815  14.322  12.442  0.00  0.00    -0.028 A 
ATOM     12  C   UNL     1       5.079  13.279  13.024  0.00  0.00    +0.005 A 
ATOM     13  C   UNL     1       6.641  15.104  13.264  0.00  0.00    +0.005 A 
ATOM     14  C   UNL     1       5.188  13.011  14.391  0.00  0.00    +0.000 A 
ATOM     15  C   UNL     1       6.746  14.833  14.628  0.00  0.00    +0.000 A 
ATOM     16  C   UNL     1       6.021  13.786  15.191  0.00  0.00    +0.000 A 
ENDBRANCH  10  11
ENDBRANCH   1  10
TORSDOF 2
ENDMDL
MODEL 7
REMARK VINA RESULT:    -4.118      9.568     10.750
REMARK INTER + INTRA:          -4.729
REMARK INTER:                  -4.625
REMARK INTRA:                  -0.105
REMARK UNBOUND:                -0.129
REMARK  Name = 1550473
REMARK  2 active torsions:
REMARK  status: ('A' for Active; 'I' for Inactive)
REMARK    1  A    between atoms: N_1  and  C_4
REMARK    2  A    between atoms: C_4  and  C_5
REMARK                            x       y       z     vdW  Elec       q    Type
REMARK                         _______ _______ _______ _____ _____    ______ ____
ROOT
ATOM      1  N   UNL     1       5.274  -4.057  -4.354  0.00  0.00    -0.354 N 
ATOM      2  N   UNL     1       5.927  -3.874  -2.140  0.00  0.00    -0.372 N 
ATOM      3  N   UNL     1       4.581  -5.626  -2.757  0.00  0.00    -0.372 N 
ATOM      4  C   UNL     1       5.254  -4.523  -3.098  0.00  0.00    +0.166 C 
ATOM      5  H   UNL     1       5.778  -3.199  -4.542  0.00  0.00    +0.163 HD
ATOM      6  H   UNL     1       5.934  -4.203  -1.184  0.00  0.00    +0.159 HD
ATOM      7  H   UNL     1       6.468  -3.042  -2.339  0.00  0.00    +0.159 HD
ATOM      8  H   UNL     1       4.048  -6.158  -3.432  0.00  0.00    +0.159 HD
ATOM      9  H   UNL     1       4.566  -5.965  -1.803  0.00  0.00    +0.159 HD
ENDROOT
BRANCH   1  10
ATOM     10  C   UNL     1       4.619  -4.719  -5.481  0.00  0.00    +0.151 C 
BRANCH  10  11
ATOM     11  C   UNL     1       5.085  -4.084  -6.762  0.00  0.00    -0.028 A 
ATOM     12  C   UNL     1       5.055  -2.691  -6.918  0.00  0.00    +0.005 A 
ATOM     13  C   UNL     1       5.564  -4.870  -7.821  0.00  0.00    +0.005 A 
ATOM     14  C   UNL     1       5.517  -2.099  -8.097  0.00  0.00    +0.000 A 
ATOM     15  C   UNL     1       6.024  -4.276  -8.996  0.00  0.00    +0.000 A 
ATOM     16  C   UNL     1       6.002  -2.890  -9.133  0.00  0.00    +0.000 A 
ENDBRANCH  10  11
ENDBRANCH   1  10
TORSDOF 2
ENDMDL
MODEL 8
REMARK VINA RESULT:    -4.102     12.452     13.532
REMARK INTER + INTRA:          -4.712
REMARK INTER:                  -4.553
REMARK INTRA:                  -0.159
REMARK UNBOUND:                -0.129
REMARK  Name = 1550473
REMARK  2 active torsions:
REMARK  status: ('A' for Active; 'I' for Inactive)
REMARK    1  A    between atoms: N_1  and  C_4
REMARK    2  A    between atoms: C_4  and  C_5
REMARK                            x       y       z     vdW  Elec       q    Type
REMARK                         _______ _______ _______ _____ _____    ______ ____
ROOT
ATOM      1  N   UNL     1       6.168  -7.929   1.560  0.00  0.00    -0.354 N 
ATOM      2  N   UNL     1       4.364  -8.605   2.847  0.00  0.00    -0.372 N 
ATOM      3  N   UNL     1       5.330  -6.568   3.275  0.00  0.00    -0.372 N 
ATOM      4  C   UNL     1       5.300  -7.694   2.554  0.00  0.00    +0.166 C 
ATOM      5  H   UNL     1       6.111  -8.815   1.071  0.00  0.00    +0.163 HD
ATOM      6  H   UNL     1       3.694  -8.454   3.588  0.00  0.00    +0.159 HD
ATOM      7  H   UNL     1       4.281  -9.470   2.326  0.00  0.00    +0.159 HD
ATOM      8  H   UNL     1       6.016  -5.844   3.108  0.00  0.00    +0.159 HD
ATOM      9  H   UNL     1       4.675  -6.404   4.029  0.00  0.00    +0.159 HD
ENDROOT
BRANCH   1  10
ATOM     10  C   UNL     1       7.190  -6.979   1.126  0.00  0.00    +0.151 C 
BRANCH  10  11
ATOM     11  C   UNL     1       6.717  -6.284  -0.121  0.00  0.00    -0.028 A 
ATOM     12  C   UNL     1       5.885  -6.949  -1.034  0.00  0.00    +0.005 A 
ATOM     13  C   UNL     1       7.093  -4.960  -0.393  0.00  0.00    +0.005 A 
ATOM     14  C   UNL     1       5.421  -6.294  -2.178  0.00  0.00    +0.000 A 
ATOM     15  C   UNL     1       6.629  -4.310  -1.536  0.00  0.00    +0.000 A 
ATOM     16  C   UNL     1       5.791  -4.976  -2.427  0.00  0.00    +0.000 A 
ENDBRANCH  10  11
ENDBRANCH   1  10
TORSDOF 2
ENDMDL
MODEL 9
REMARK VINA RESULT:    -4.075     10.922     11.906
REMARK INTER + INTRA:          -4.681
REMARK INTER:                  -4.564
REMARK INTRA:                  -0.117
REMARK UNBOUND:                -0.129
REMARK  Name = 1550473
REMARK  2 active torsions:
REMARK  status: ('A' for Active; 'I' for Inactive)
REMARK    1  A    between atoms: N_1  and  C_4
REMARK    2  A    between atoms: C_4  and  C_5
REMARK                            x       y       z     vdW  Elec       q    Type
REMARK                         _______ _______ _______ _____ _____    ______ ____
ROOT
ATOM      1  N   UNL     1       5.509  -5.301  -3.646  0.00  0.00    -0.354 N 
ATOM      2  N   UNL     1       4.245  -4.970  -5.559  0.00  0.00    -0.372 N 
ATOM      3  N   UNL     1       6.089  -3.651  -5.206  0.00  0.00    -0.372 N 
ATOM      4  C   UNL     1       5.291  -4.641  -4.792  0.00  0.00    +0.166 C 
ATOM      5  H   UNL     1       4.850  -6.021  -3.373  0.00  0.00    +0.163 HD
ATOM      6  H   UNL     1       4.057  -4.492  -6.430  0.00  0.00    +0.159 HD
ATOM      7  H   UNL     1       3.614  -5.721  -5.306  0.00  0.00    +0.159 HD
ATOM      8  H   UNL     1       6.892  -3.350  -4.670  0.00  0.00    +0.159 HD
ATOM      9  H   UNL     1       5.911  -3.153  -6.069  0.00  0.00    +0.159 HD
ENDROOT
BRANCH   1  10
ATOM     10  C   UNL     1       6.650  -5.056  -2.766  0.00  0.00    +0.151 C 
BRANCH  10  11
ATOM     11  C   UNL     1       6.432  -5.781  -1.466  0.00  0.00    -0.028 A 
ATOM     12  C   UNL     1       5.642  -6.939  -1.421  0.00  0.00    +0.005 A 
ATOM     13  C   UNL     1       7.017  -5.318  -0.278  0.00  0.00    +0.005 A 
ATOM     14  C   UNL     1       5.464  -7.629  -0.220  0.00  0.00    +0.000 A 
ATOM     15  C   UNL     1       6.836  -6.009   0.919  0.00  0.00    +0.000 A 
ATOM     16  C   UNL     1       6.061  -7.167   0.948  0.00  0.00    +0.000 A 
ENDBRANCH  10  11
ENDBRANCH   1  10
TORSDOF 2
ENDMDL
