MODEL 1
REMARK VINA RESULT:    -6.322      0.000      0.000
REMARK INTER + INTRA:          -7.239
REMARK INTER:                  -7.061
REMARK INTRA:                  -0.178
REMARK UNBOUND:                -0.178
REMARK  Name = 1550473
REMARK  2 active torsions:
REMARK  status: ('A' for Active; 'I' for Inactive)
REMARK    1  A    between atoms: N_1  and  C_4
REMARK    2  A    between atoms: C_4  and  C_5
REMARK                            x       y       z     vdW  Elec       q    Type
REMARK                         _______ _______ _______ _____ _____    ______ ____
ROOT
ATOM      1  N   UNL     1      -4.545  -1.534   5.931  0.00  0.00    -0.354 N 
ATOM      2  N   UNL     1      -4.104  -3.670   5.149  0.00  0.00    -0.372 N 
ATOM      3  N   UNL     1      -3.746  -1.882   3.755  0.00  0.00    -0.372 N 
ATOM      4  C   UNL     1      -4.134  -2.347   4.947  0.00  0.00    +0.166 C 
ATOM      5  H   UNL     1      -4.854  -1.951   6.801  0.00  0.00    +0.163 HD
ATOM      6  H   UNL     1      -3.796  -4.307   4.427  0.00  0.00    +0.159 HD
ATOM      7  H   UNL     1      -4.371  -4.080   6.036  0.00  0.00    +0.159 HD
ATOM      8  H   UNL     1      -3.751  -0.895   3.537  0.00  0.00    +0.159 HD
ATOM      9  H   UNL     1      -3.446  -2.505   3.016  0.00  0.00    +0.159 HD
ENDROOT
BRANCH   1  10
ATOM     10  C   UNL     1      -4.564  -0.076   5.832  0.00  0.00    +0.151 C 
BRANCH  10  11
ATOM     11  C   UNL     1      -3.404   0.484   6.608  0.00  0.00    -0.028 A 
ATOM     12  C   UNL     1      -3.542   0.794   7.969  0.00  0.00    +0.005 A 
ATOM     13  C   UNL     1      -2.163   0.702   5.990  0.00  0.00    +0.005 A 
ATOM     14  C   UNL     1      -2.456   1.286   8.699  0.00  0.00    +0.000 A 
ATOM     15  C   UNL     1      -1.082   1.194   6.722  0.00  0.00    +0.000 A 
ATOM     16  C   UNL     1      -1.228   1.484   8.076  0.00  0.00    +0.000 A 
ENDBRANCH  10  11
ENDBRANCH   1  10
TORSDOF 2
ENDMDL
MODEL 2
REMARK VINA RESULT:    -6.173      3.103      3.987
REMARK INTER + INTRA:          -7.072
REMARK INTER:                  -6.938
REMARK INTRA:                  -0.134
REMARK UNBOUND:                -0.178
REMARK  Name = 1550473
REMARK  2 active torsions:
REMARK  status: ('A' for Active; 'I' for Inactive)
REMARK    1  A    between atoms: N_1  and  C_4
REMARK    2  A    between atoms: C_4  and  C_5
REMARK                            x       y       z     vdW  Elec       q    Type
REMARK                         _______ _______ _______ _____ _____    ______ ____
ROOT
ATOM      1  N   UNL     1      -1.431  -2.610   4.259  0.00  0.00    -0.354 N 
ATOM      2  N   UNL     1       0.568  -3.165   5.289  0.00  0.00    -0.372 N 
ATOM      3  N   UNL     1       0.625  -2.060   3.278  0.00  0.00    -0.372 N 
ATOM      4  C   UNL     1      -0.091  -2.607   4.266  0.00  0.00    +0.166 C 
ATOM      5  H   UNL     1      -1.915  -3.068   5.023  0.00  0.00    +0.163 HD
ATOM      6  H   UNL     1       1.579  -3.175   5.323  0.00  0.00    +0.159 HD
ATOM      7  H   UNL     1       0.082  -3.581   6.073  0.00  0.00    +0.159 HD
ATOM      8  H   UNL     1       0.188  -1.628   2.475  0.00  0.00    +0.159 HD
ATOM      9  H   UNL     1       1.637  -2.070   3.289  0.00  0.00    +0.159 HD
ENDROOT
BRANCH   1  10
ATOM     10  C   UNL     1      -2.245  -1.982   3.220  0.00  0.00    +0.151 C 
BRANCH  10  11
ATOM     11  C   UNL     1      -3.134  -0.947   3.851  0.00  0.00    -0.028 A 
ATOM     12  C   UNL     1      -4.055  -1.310   4.844  0.00  0.00    +0.005 A 
ATOM     13  C   UNL     1      -3.057   0.400   3.464  0.00  0.00    +0.005 A 
ATOM     14  C   UNL     1      -4.861  -0.343   5.452  0.00  0.00    +0.000 A 
ATOM     15  C   UNL     1      -3.863   1.361   4.072  0.00  0.00    +0.000 A 
ATOM     16  C   UNL     1      -4.763   0.990   5.068  0.00  0.00    +0.000 A 
ENDBRANCH  10  11
ENDBRANCH   1  10
TORSDOF 2
ENDMDL
MODEL 3
REMARK VINA RESULT:    -5.901      3.460      4.995
REMARK INTER + INTRA:          -6.769
REMARK INTER:                  -6.649
REMARK INTRA:                  -0.119
REMARK UNBOUND:                -0.178
REMARK  Name = 1550473
REMARK  2 active torsions:
REMARK  status: ('A' for Active; 'I' for Inactive)
REMARK    1  A    between atoms: N_1  and  C_4
REMARK    2  A    between atoms: C_4  and  C_5
REMARK                            x       y       z     vdW  Elec       q    Type
REMARK                         _______ _______ _______ _____ _____    ______ ____
ROOT
ATOM      1  N   UNL     1      -0.928   1.175   7.601  0.00  0.00    -0.354 N 
ATOM      2  N   UNL     1       0.509   2.212   9.092  0.00  0.00    -0.372 N 
ATOM      3  N   UNL     1       1.225   1.829   6.946  0.00  0.00    -0.372 N 
ATOM      4  C   UNL     1       0.261   1.732   7.868  0.00  0.00    +0.166 C 
ATOM      5  H   UNL     1      -1.606   1.105   8.351  0.00  0.00    +0.163 HD
ATOM      6  H   UNL     1       1.395   2.641   9.322  0.00  0.00    +0.159 HD
ATOM      7  H   UNL     1      -0.187   2.182   9.827  0.00  0.00    +0.159 HD
ATOM      8  H   UNL     1       1.103   1.480   6.005  0.00  0.00    +0.159 HD
ATOM      9  H   UNL     1       2.123   2.243   7.160  0.00  0.00    +0.159 HD
ENDROOT
BRANCH   1  10
ATOM     10  C   UNL     1      -1.318   0.670   6.286  0.00  0.00    +0.151 C 
BRANCH  10  11
ATOM     11  C   UNL     1      -2.815   0.743   6.156  0.00  0.00    -0.028 A 
ATOM     12  C   UNL     1      -3.413   0.896   4.897  0.00  0.00    +0.005 A 
ATOM     13  C   UNL     1      -3.640   0.653   7.287  0.00  0.00    +0.005 A 
ATOM     14  C   UNL     1      -4.804   0.934   4.772  0.00  0.00    +0.000 A 
ATOM     15  C   UNL     1      -5.028   0.691   7.159  0.00  0.00    +0.000 A 
ATOM     16  C   UNL     1      -5.610   0.829   5.901  0.00  0.00    +0.000 A 
ENDBRANCH  10  11
ENDBRANCH   1  10
TORSDOF 2
ENDMDL
MODEL 4
REMARK VINA RESULT:    -5.768      2.561      3.585
REMARK INTER + INTRA:          -6.621
REMARK INTER:                  -6.487
REMARK INTRA:                  -0.134
REMARK UNBOUND:                -0.178
REMARK  Name = 1550473
REMARK  2 active torsions:
REMARK  status: ('A' for Active; 'I' for Inactive)
REMARK    1  A    between atoms: N_1  and  C_4
REMARK    2  A    between atoms: C_4  and  C_5
REMARK                            x       y       z     vdW  Elec       q    Type
REMARK                         _______ _______ _______ _____ _____    ______ ____
ROOT
ATOM      1  N   UNL     1      -0.750  -0.967   5.455  0.00  0.00    -0.354 N 
ATOM      2  N   UNL     1       0.184  -3.039   5.014  0.00  0.00    -0.372 N 
ATOM      3  N   UNL     1      -0.173  -1.591   3.271  0.00  0.00    -0.372 N 
ATOM      4  C   UNL     1      -0.253  -1.851   4.580  0.00  0.00    +0.166 C 
ATOM      5  H   UNL     1      -0.812  -1.236   6.430  0.00  0.00    +0.163 HD
ATOM      6  H   UNL     1       0.568  -3.725   4.378  0.00  0.00    +0.159 HD
ATOM      7  H   UNL     1       0.164  -3.288   5.995  0.00  0.00    +0.159 HD
ATOM      8  H   UNL     1      -0.491  -0.714   2.879  0.00  0.00    +0.159 HD
ATOM      9  H   UNL     1       0.198  -2.269   2.617  0.00  0.00    +0.159 HD
ENDROOT
BRANCH   1  10
ATOM     10  C   UNL     1      -1.203   0.375   5.092  0.00  0.00    +0.151 C 
BRANCH  10  11
ATOM     11  C   UNL     1      -2.637   0.541   5.516  0.00  0.00    -0.028 A 
ATOM     12  C   UNL     1      -3.651   0.679   4.556  0.00  0.00    +0.005 A 
ATOM     13  C   UNL     1      -2.988   0.555   6.874  0.00  0.00    +0.005 A 
ATOM     14  C   UNL     1      -4.986   0.802   4.948  0.00  0.00    +0.000 A 
ATOM     15  C   UNL     1      -4.322   0.680   7.261  0.00  0.00    +0.000 A 
ATOM     16  C   UNL     1      -5.321   0.801   6.298  0.00  0.00    +0.000 A 
ENDBRANCH  10  11
ENDBRANCH   1  10
TORSDOF 2
ENDMDL
MODEL 5
REMARK VINA RESULT:    -5.738     11.396     12.687
REMARK INTER + INTRA:          -6.587
REMARK INTER:                  -6.433
REMARK INTRA:                  -0.154
REMARK UNBOUND:                -0.178
REMARK  Name = 1550473
REMARK  2 active torsions:
REMARK  status: ('A' for Active; 'I' for Inactive)
REMARK    1  A    between atoms: N_1  and  C_4
REMARK    2  A    between atoms: C_4  and  C_5
REMARK                            x       y       z     vdW  Elec       q    Type
REMARK                         _______ _______ _______ _____ _____    ______ ____
ROOT
ATOM      1  N   UNL     1      10.274  -1.974   2.668  0.00  0.00    -0.354 N 
ATOM      2  N   UNL     1      10.245  -3.501   0.927  0.00  0.00    -0.372 N 
ATOM      3  N   UNL     1      10.130  -4.276   3.084  0.00  0.00    -0.372 N 
ATOM      4  C   UNL     1      10.217  -3.242   2.240  0.00  0.00    +0.166 C 
ATOM      5  H   UNL     1      10.369  -1.237   1.979  0.00  0.00    +0.163 HD
ATOM      6  H   UNL     1      10.200  -4.447   0.574  0.00  0.00    +0.159 HD
ATOM      7  H   UNL     1      10.294  -2.760   0.239  0.00  0.00    +0.159 HD
ATOM      8  H   UNL     1      10.111  -4.148   4.087  0.00  0.00    +0.159 HD
ATOM      9  H   UNL     1      10.096  -5.231   2.750  0.00  0.00    +0.159 HD
ENDROOT
BRANCH   1  10
ATOM     10  C   UNL     1      10.196  -1.581   4.074  0.00  0.00    +0.151 C 
BRANCH  10  11
ATOM     11  C   UNL     1       8.919  -0.820   4.302  0.00  0.00    -0.028 A 
ATOM     12  C   UNL     1       7.870  -1.393   5.035  0.00  0.00    +0.005 A 
ATOM     13  C   UNL     1       8.755   0.477   3.791  0.00  0.00    +0.005 A 
ATOM     14  C   UNL     1       6.695  -0.675   5.272  0.00  0.00    +0.000 A 
ATOM     15  C   UNL     1       7.580   1.190   4.029  0.00  0.00    +0.000 A 
ATOM     16  C   UNL     1       6.552   0.615   4.772  0.00  0.00    +0.000 A 
ENDBRANCH  10  11
ENDBRANCH   1  10
TORSDOF 2
ENDMDL
MODEL 6
REMARK VINA RESULT:    -5.514      3.843      5.012
REMARK INTER + INTRA:          -6.337
REMARK INTER:                  -6.201
REMARK INTRA:                  -0.136
REMARK UNBOUND:                -0.178
REMARK  Name = 1550473
REMARK  2 active torsions:
REMARK  status: ('A' for Active; 'I' for Inactive)
REMARK    1  A    between atoms: N_1  and  C_4
REMARK    2  A    between atoms: C_4  and  C_5
REMARK                            x       y       z     vdW  Elec       q    Type
REMARK                         _______ _______ _______ _____ _____    ______ ____
ROOT
ATOM      1  N   UNL     1       0.598   1.898   7.044  0.00  0.00    -0.354 N 
ATOM      2  N   UNL     1       2.483   1.825   5.701  0.00  0.00    -0.372 N 
ATOM      3  N   UNL     1       2.392   0.479   7.557  0.00  0.00    -0.372 N 
ATOM      4  C   UNL     1       1.813   1.399   6.778  0.00  0.00    +0.166 C 
ATOM      5  H   UNL     1       0.227   2.615   6.432  0.00  0.00    +0.163 HD
ATOM      6  H   UNL     1       3.400   1.465   5.472  0.00  0.00    +0.159 HD
ATOM      7  H   UNL     1       2.091   2.509   5.065  0.00  0.00    +0.159 HD
ATOM      8  H   UNL     1       1.941   0.121   8.388  0.00  0.00    +0.159 HD
ATOM      9  H   UNL     1       3.314   0.115   7.351  0.00  0.00    +0.159 HD
ENDROOT
BRANCH   1  10
ATOM     10  C   UNL     1      -0.237   1.462   8.162  0.00  0.00    +0.151 C 
BRANCH  10  11
ATOM     11  C   UNL     1      -1.600   1.093   7.642  0.00  0.00    -0.028 A 
ATOM     12  C   UNL     1      -2.710   1.087   8.499  0.00  0.00    +0.005 A 
ATOM     13  C   UNL     1      -1.787   0.755   6.293  0.00  0.00    +0.005 A 
ATOM     14  C   UNL     1      -3.981   0.773   8.010  0.00  0.00    +0.000 A 
ATOM     15  C   UNL     1      -3.057   0.443   5.809  0.00  0.00    +0.000 A 
ATOM     16  C   UNL     1      -4.154   0.454   6.667  0.00  0.00    +0.000 A 
ENDBRANCH  10  11
ENDBRANCH   1  10
TORSDOF 2
ENDMDL
MODEL 7
REMARK VINA RESULT:    -5.454      2.205      2.886
REMARK INTER + INTRA:          -6.270
REMARK INTER:                  -6.106
REMARK INTRA:                  -0.164
REMARK UNBOUND:                -0.178
REMARK  Name = 1550473
REMARK  2 active torsions:
REMARK  status: ('A' for Active; 'I' for Inactive)
REMARK    1  A    between atoms: N_1  and  C_4
REMARK    2  A    between atoms: C_4  and  C_5
REMARK                            x       y       z     vdW  Elec       q    Type
REMARK                         _______ _______ _______ _____ _____    ______ ____
ROOT
ATOM      1  N   UNL     1      -0.531  -1.206   4.530  0.00  0.00    -0.354 N 
ATOM      2  N   UNL     1       0.299  -3.361   4.351  0.00  0.00    -0.372 N 
ATOM      3  N   UNL     1      -1.880  -2.959   3.754  0.00  0.00    -0.372 N 
ATOM      4  C   UNL     1      -0.712  -2.495   4.212  0.00  0.00    +0.166 C 
ATOM      5  H   UNL     1       0.369  -0.924   4.900  0.00  0.00    +0.163 HD
ATOM      6  H   UNL     1       0.193  -4.339   4.115  0.00  0.00    +0.159 HD
ATOM      7  H   UNL     1       1.211  -3.067   4.678  0.00  0.00    +0.159 HD
ATOM      8  H   UNL     1      -2.684  -2.358   3.632  0.00  0.00    +0.159 HD
ATOM      9  H   UNL     1      -2.008  -3.936   3.524  0.00  0.00    +0.159 HD
ENDROOT
BRANCH   1  10
ATOM     10  C   UNL     1      -1.551  -0.172   4.365  0.00  0.00    +0.151 C 
BRANCH  10  11
ATOM     11  C   UNL     1      -2.068   0.228   5.719  0.00  0.00    -0.028 A 
ATOM     12  C   UNL     1      -1.189   0.691   6.709  0.00  0.00    +0.005 A 
ATOM     13  C   UNL     1      -3.438   0.153   6.016  0.00  0.00    +0.005 A 
ATOM     14  C   UNL     1      -1.672   1.091   7.956  0.00  0.00    +0.000 A 
ATOM     15  C   UNL     1      -3.916   0.553   7.264  0.00  0.00    +0.000 A 
ATOM     16  C   UNL     1      -3.034   1.024   8.233  0.00  0.00    +0.000 A 
ENDBRANCH  10  11
ENDBRANCH   1  10
TORSDOF 2
ENDMDL
MODEL 8
REMARK VINA RESULT:    -5.327      3.903      5.069
REMARK INTER + INTRA:          -6.128
REMARK INTER:                  -5.966
REMARK INTRA:                  -0.162
REMARK UNBOUND:                -0.178
REMARK  Name = 1550473
REMARK  2 active torsions:
REMARK  status: ('A' for Active; 'I' for Inactive)
REMARK    1  A    between atoms: N_1  and  C_4
REMARK    2  A    between atoms: C_4  and  C_5
REMARK                            x       y       z     vdW  Elec       q    Type
REMARK                         _______ _______ _______ _____ _____    ______ ____
ROOT
ATOM      1  N   UNL     1       0.727   0.479   6.016  0.00  0.00    -0.354 N 
ATOM      2  N   UNL     1       2.511   1.937   5.791  0.00  0.00    -0.372 N 
ATOM      3  N   UNL     1       2.274   0.233   4.273  0.00  0.00    -0.372 N 
ATOM      4  C   UNL     1       1.826   0.871   5.359  0.00  0.00    +0.166 C 
ATOM      5  H   UNL     1       0.457   0.987   6.850  0.00  0.00    +0.163 HD
ATOM      6  H   UNL     1       3.343   2.259   5.314  0.00  0.00    +0.159 HD
ATOM      7  H   UNL     1       2.213   2.471   6.598  0.00  0.00    +0.159 HD
ATOM      8  H   UNL     1       1.806  -0.582   3.900  0.00  0.00    +0.159 HD
ATOM      9  H   UNL     1       3.111   0.533   3.789  0.00  0.00    +0.159 HD
ENDROOT
BRANCH   1  10
ATOM     10  C   UNL     1      -0.121  -0.636   5.597  0.00  0.00    +0.151 C 
BRANCH  10  11
ATOM     11  C   UNL     1      -1.433  -0.096   5.098  0.00  0.00    -0.028 A 
ATOM     12  C   UNL     1      -2.334   0.514   5.982  0.00  0.00    +0.005 A 
ATOM     13  C   UNL     1      -1.777  -0.185   3.740  0.00  0.00    +0.005 A 
ATOM     14  C   UNL     1      -3.540   1.043   5.514  0.00  0.00    +0.000 A 
ATOM     15  C   UNL     1      -2.982   0.344   3.277  0.00  0.00    +0.000 A 
ATOM     16  C   UNL     1      -3.861   0.960   4.163  0.00  0.00    +0.000 A 
ENDBRANCH  10  11
ENDBRANCH   1  10
TORSDOF 2
ENDMDL
MODEL 9
REMARK VINA RESULT:    -5.249      8.281      9.771
REMARK INTER + INTRA:          -6.041
REMARK INTER:                  -5.867
REMARK INTRA:                  -0.175
REMARK UNBOUND:                -0.178
REMARK  Name = 1550473
REMARK  2 active torsions:
REMARK  status: ('A' for Active; 'I' for Inactive)
REMARK    1  A    between atoms: N_1  and  C_4
REMARK    2  A    between atoms: C_4  and  C_5
REMARK                            x       y       z     vdW  Elec       q    Type
REMARK                         _______ _______ _______ _____ _____    ______ ____
ROOT
ATOM      1  N   UNL     1       3.758   0.389   1.651  0.00  0.00    -0.354 N 
ATOM      2  N   UNL     1       2.580   2.351   1.292  0.00  0.00    -0.372 N 
ATOM      3  N   UNL     1       2.536   1.398   3.378  0.00  0.00    -0.372 N 
ATOM      4  C   UNL     1       2.965   1.366   2.112  0.00  0.00    +0.166 C 
ATOM      5  H   UNL     1       4.023   0.407   0.673  0.00  0.00    +0.163 HD
ATOM      6  H   UNL     1       1.986   3.104   1.612  0.00  0.00    +0.159 HD
ATOM      7  H   UNL     1       2.885   2.391   0.327  0.00  0.00    +0.159 HD
ATOM      8  H   UNL     1       2.786   0.681   4.046  0.00  0.00    +0.159 HD
ATOM      9  H   UNL     1       1.930   2.136   3.714  0.00  0.00    +0.159 HD
ENDROOT
BRANCH   1  10
ATOM     10  C   UNL     1       4.276  -0.700   2.476  0.00  0.00    +0.151 C 
BRANCH  10  11
ATOM     11  C   UNL     1       5.687  -0.378   2.884  0.00  0.00    -0.028 A 
ATOM     12  C   UNL     1       6.765  -0.725   2.057  0.00  0.00    +0.005 A 
ATOM     13  C   UNL     1       5.953   0.279   4.096  0.00  0.00    +0.005 A 
ATOM     14  C   UNL     1       8.074  -0.399   2.422  0.00  0.00    +0.000 A 
ATOM     15  C   UNL     1       7.261   0.602   4.457  0.00  0.00    +0.000 A 
ATOM     16  C   UNL     1       8.320   0.265   3.619  0.00  0.00    +0.000 A 
ENDBRANCH  10  11
ENDBRANCH   1  10
TORSDOF 2
ENDMDL
