MODEL 1
REMARK VINA RESULT:    -5.856      0.000      0.000
REMARK INTER + INTRA:          -6.644
REMARK INTER:                  -6.541
REMARK INTRA:                  -0.103
REMARK UNBOUND:                -0.103
REMARK  Name = 1550473
REMARK  2 active torsions:
REMARK  status: ('A' for Active; 'I' for Inactive)
REMARK    1  A    between atoms: N_1  and  C_4
REMARK    2  A    between atoms: C_4  and  C_5
REMARK                            x       y       z     vdW  Elec       q    Type
REMARK                         _______ _______ _______ _____ _____    ______ ____
ROOT
ATOM      1  N   UNL     1      -3.863  -2.616  -6.701  0.00  0.00    -0.354 N 
ATOM      2  N   UNL     1      -3.546  -3.298  -8.891  0.00  0.00    -0.372 N 
ATOM      3  N   UNL     1      -5.520  -2.277  -8.322  0.00  0.00    -0.372 N 
ATOM      4  C   UNL     1      -4.315  -2.725  -7.957  0.00  0.00    +0.166 C 
ATOM      5  H   UNL     1      -2.952  -3.003  -6.482  0.00  0.00    +0.163 HD
ATOM      6  H   UNL     1      -3.859  -3.391  -9.848  0.00  0.00    +0.159 HD
ATOM      7  H   UNL     1      -2.618  -3.643  -8.680  0.00  0.00    +0.159 HD
ATOM      8  H   UNL     1      -6.151  -1.840  -7.663  0.00  0.00    +0.159 HD
ATOM      9  H   UNL     1      -5.856  -2.371  -9.273  0.00  0.00    +0.159 HD
ENDROOT
BRANCH   1  10
ATOM     10  C   UNL     1      -4.599  -1.961  -5.621  0.00  0.00    +0.151 C 
BRANCH  10  11
ATOM     11  C   UNL     1      -4.351  -0.479  -5.686  0.00  0.00    -0.028 A 
ATOM     12  C   UNL     1      -3.065   0.038  -5.467  0.00  0.00    +0.005 A 
ATOM     13  C   UNL     1      -5.396   0.413  -5.973  0.00  0.00    +0.005 A 
ATOM     14  C   UNL     1      -2.828   1.412  -5.557  0.00  0.00    +0.000 A 
ATOM     15  C   UNL     1      -5.155   1.784  -6.061  0.00  0.00    +0.000 A 
ATOM     16  C   UNL     1      -3.871   2.283  -5.856  0.00  0.00    +0.000 A 
ENDBRANCH  10  11
ENDBRANCH   1  10
TORSDOF 2
ENDMDL
MODEL 2
REMARK VINA RESULT:    -5.726      2.950      3.639
REMARK INTER + INTRA:          -6.498
REMARK INTER:                  -6.356
REMARK INTRA:                  -0.143
REMARK UNBOUND:                -0.103
REMARK  Name = 1550473
REMARK  2 active torsions:
REMARK  status: ('A' for Active; 'I' for Inactive)
REMARK    1  A    between atoms: N_1  and  C_4
REMARK    2  A    between atoms: C_4  and  C_5
REMARK                            x       y       z     vdW  Elec       q    Type
REMARK                         _______ _______ _______ _____ _____    ______ ____
ROOT
ATOM      1  N   UNL     1      -2.891  -2.327 -10.024  0.00  0.00    -0.354 N 
ATOM      2  N   UNL     1      -1.577  -4.074 -10.790  0.00  0.00    -0.372 N 
ATOM      3  N   UNL     1      -2.153  -4.011  -8.570  0.00  0.00    -0.372 N 
ATOM      4  C   UNL     1      -2.216  -3.460  -9.787  0.00  0.00    +0.166 C 
ATOM      5  H   UNL     1      -2.875  -1.945 -10.962  0.00  0.00    +0.163 HD
ATOM      6  H   UNL     1      -1.062  -4.932 -10.643  0.00  0.00    +0.159 HD
ATOM      7  H   UNL     1      -1.601  -3.714 -11.737  0.00  0.00    +0.159 HD
ATOM      8  H   UNL     1      -2.608  -3.594  -7.769  0.00  0.00    +0.159 HD
ATOM      9  H   UNL     1      -1.633  -4.863  -8.400  0.00  0.00    +0.159 HD
ENDROOT
BRANCH   1  10
ATOM     10  C   UNL     1      -3.664  -1.610  -9.012  0.00  0.00    +0.151 C 
BRANCH  10  11
ATOM     11  C   UNL     1      -3.282  -0.156  -9.042  0.00  0.00    -0.028 A 
ATOM     12  C   UNL     1      -3.771   0.729  -8.070  0.00  0.00    +0.005 A 
ATOM     13  C   UNL     1      -2.426   0.343 -10.036  0.00  0.00    +0.005 A 
ATOM     14  C   UNL     1      -3.392   2.074  -8.079  0.00  0.00    +0.000 A 
ATOM     15  C   UNL     1      -2.051   1.686 -10.043  0.00  0.00    +0.000 A 
ATOM     16  C   UNL     1      -2.533   2.551  -9.063  0.00  0.00    +0.000 A 
ENDBRANCH  10  11
ENDBRANCH   1  10
TORSDOF 2
ENDMDL
MODEL 3
REMARK VINA RESULT:    -5.642      1.758      2.210
REMARK INTER + INTRA:          -6.405
REMARK INTER:                  -6.265
REMARK INTRA:                  -0.140
REMARK UNBOUND:                -0.103
REMARK  Name = 1550473
REMARK  2 active torsions:
REMARK  status: ('A' for Active; 'I' for Inactive)
REMARK    1  A    between atoms: N_1  and  C_4
REMARK    2  A    between atoms: C_4  and  C_5
REMARK                            x       y       z     vdW  Elec       q    Type
REMARK                         _______ _______ _______ _____ _____    ______ ____
ROOT
ATOM      1  N   UNL     1      -3.985  -2.597  -8.919  0.00  0.00    -0.354 N 
ATOM      2  N   UNL     1      -2.542  -3.482 -10.500  0.00  0.00    -0.372 N 
ATOM      3  N   UNL     1      -2.147  -3.902  -8.279  0.00  0.00    -0.372 N 
ATOM      4  C   UNL     1      -2.899  -3.322  -9.220  0.00  0.00    +0.166 C 
ATOM      5  H   UNL     1      -4.496  -2.158  -9.677  0.00  0.00    +0.163 HD
ATOM      6  H   UNL     1      -1.730  -4.027 -10.758  0.00  0.00    +0.159 HD
ATOM      7  H   UNL     1      -3.081  -3.080 -11.258  0.00  0.00    +0.159 HD
ATOM      8  H   UNL     1      -2.359  -3.814  -7.294  0.00  0.00    +0.159 HD
ATOM      9  H   UNL     1      -1.324  -4.441  -8.517  0.00  0.00    +0.159 HD
ENDROOT
BRANCH   1  10
ATOM     10  C   UNL     1      -4.490  -2.406  -7.561  0.00  0.00    +0.151 C 
BRANCH  10  11
ATOM     11  C   UNL     1      -4.739  -0.940  -7.331  0.00  0.00    -0.028 A 
ATOM     12  C   UNL     1      -3.956   0.025  -7.980  0.00  0.00    +0.005 A 
ATOM     13  C   UNL     1      -5.760  -0.511  -6.469  0.00  0.00    +0.005 A 
ATOM     14  C   UNL     1      -4.206   1.386  -7.789  0.00  0.00    +0.000 A 
ATOM     15  C   UNL     1      -6.006   0.849  -6.281  0.00  0.00    +0.000 A 
ATOM     16  C   UNL     1      -5.231   1.797  -6.944  0.00  0.00    +0.000 A 
ENDBRANCH  10  11
ENDBRANCH   1  10
TORSDOF 2
ENDMDL
MODEL 4
REMARK VINA RESULT:    -5.627      1.156      2.220
REMARK INTER + INTRA:          -6.388
REMARK INTER:                  -6.227
REMARK INTRA:                  -0.162
REMARK UNBOUND:                -0.103
REMARK  Name = 1550473
REMARK  2 active torsions:
REMARK  status: ('A' for Active; 'I' for Inactive)
REMARK    1  A    between atoms: N_1  and  C_4
REMARK    2  A    between atoms: C_4  and  C_5
REMARK                            x       y       z     vdW  Elec       q    Type
REMARK                         _______ _______ _______ _____ _____    ______ ____
ROOT
ATOM      1  N   UNL     1      -5.463  -0.871  -7.230  0.00  0.00    -0.354 N 
ATOM      2  N   UNL     1      -4.888  -2.834  -8.316  0.00  0.00    -0.372 N 
ATOM      3  N   UNL     1      -4.854  -2.784  -6.022  0.00  0.00    -0.372 N 
ATOM      4  C   UNL     1      -5.072  -2.151  -7.180  0.00  0.00    +0.166 C 
ATOM      5  H   UNL     1      -5.582  -0.439  -8.139  0.00  0.00    +0.163 HD
ATOM      6  H   UNL     1      -4.596  -3.802  -8.309  0.00  0.00    +0.159 HD
ATOM      7  H   UNL     1      -5.052  -2.413  -9.223  0.00  0.00    +0.159 HD
ATOM      8  H   UNL     1      -4.969  -2.323  -5.130  0.00  0.00    +0.159 HD
ATOM      9  H   UNL     1      -4.550  -3.750  -5.995  0.00  0.00    +0.159 HD
ENDROOT
BRANCH   1  10
ATOM     10  C   UNL     1      -5.744  -0.054  -6.050  0.00  0.00    +0.151 C 
BRANCH  10  11
ATOM     11  C   UNL     1      -4.770   1.091  -6.003  0.00  0.00    -0.028 A 
ATOM     12  C   UNL     1      -5.204   2.404  -6.234  0.00  0.00    +0.005 A 
ATOM     13  C   UNL     1      -3.413   0.870  -5.721  0.00  0.00    +0.005 A 
ATOM     14  C   UNL     1      -4.306   3.472  -6.161  0.00  0.00    +0.000 A 
ATOM     15  C   UNL     1      -2.519   1.938  -5.650  0.00  0.00    +0.000 A 
ATOM     16  C   UNL     1      -2.966   3.239  -5.867  0.00  0.00    +0.000 A 
ENDBRANCH  10  11
ENDBRANCH   1  10
TORSDOF 2
ENDMDL
MODEL 5
REMARK VINA RESULT:    -5.567     20.688     21.936
REMARK INTER + INTRA:          -6.321
REMARK INTER:                  -6.184
REMARK INTRA:                  -0.137
REMARK UNBOUND:                -0.103
REMARK  Name = 1550473
REMARK  2 active torsions:
REMARK  status: ('A' for Active; 'I' for Inactive)
REMARK    1  A    between atoms: N_1  and  C_4
REMARK    2  A    between atoms: C_4  and  C_5
REMARK                            x       y       z     vdW  Elec       q    Type
REMARK                         _______ _______ _______ _____ _____    ______ ____
ROOT
ATOM      1  N   UNL     1      12.680  -1.007   7.936  0.00  0.00    -0.354 N 
ATOM      2  N   UNL     1      12.126  -3.212   7.491  0.00  0.00    -0.372 N 
ATOM      3  N   UNL     1      12.297  -2.530   9.676  0.00  0.00    -0.372 N 
ATOM      4  C   UNL     1      12.372  -2.236   8.374  0.00  0.00    +0.166 C 
ATOM      5  H   UNL     1      12.751  -0.856   6.937  0.00  0.00    +0.163 HD
ATOM      6  H   UNL     1      11.887  -4.147   7.791  0.00  0.00    +0.159 HD
ATOM      7  H   UNL     1      12.152  -3.046   6.492  0.00  0.00    +0.159 HD
ATOM      8  H   UNL     1      12.476  -1.840  10.392  0.00  0.00    +0.159 HD
ATOM      9  H   UNL     1      12.070  -3.464   9.996  0.00  0.00    +0.159 HD
ENDROOT
BRANCH   1  10
ATOM     10  C   UNL     1      12.913   0.138   8.814  0.00  0.00    +0.151 C 
BRANCH  10  11
ATOM     11  C   UNL     1      12.146   1.321   8.291  0.00  0.00    -0.028 A 
ATOM     12  C   UNL     1      11.884   2.423   9.118  0.00  0.00    +0.005 A 
ATOM     13  C   UNL     1      11.684   1.349   6.966  0.00  0.00    +0.005 A 
ATOM     14  C   UNL     1      11.199   3.535   8.624  0.00  0.00    +0.000 A 
ATOM     15  C   UNL     1      10.998   2.461   6.476  0.00  0.00    +0.000 A 
ATOM     16  C   UNL     1      10.758   3.555   7.304  0.00  0.00    +0.000 A 
ENDBRANCH  10  11
ENDBRANCH   1  10
TORSDOF 2
ENDMDL
MODEL 6
REMARK VINA RESULT:    -5.498      1.900      2.592
REMARK INTER + INTRA:          -6.244
REMARK INTER:                  -6.121
REMARK INTRA:                  -0.124
REMARK UNBOUND:                -0.103
REMARK  Name = 1550473
REMARK  2 active torsions:
REMARK  status: ('A' for Active; 'I' for Inactive)
REMARK    1  A    between atoms: N_1  and  C_4
REMARK    2  A    between atoms: C_4  and  C_5
REMARK                            x       y       z     vdW  Elec       q    Type
REMARK                         _______ _______ _______ _____ _____    ______ ____
ROOT
ATOM      1  N   UNL     1      -4.181  -0.821  -7.037  0.00  0.00    -0.354 N 
ATOM      2  N   UNL     1      -4.843  -2.779  -5.993  0.00  0.00    -0.372 N 
ATOM      3  N   UNL     1      -5.141  -2.575  -8.259  0.00  0.00    -0.372 N 
ATOM      4  C   UNL     1      -4.718  -2.046  -7.106  0.00  0.00    +0.166 C 
ATOM      5  H   UNL     1      -3.908  -0.465  -6.128  0.00  0.00    +0.163 HD
ATOM      6  H   UNL     1      -5.242  -3.708  -6.015  0.00  0.00    +0.159 HD
ATOM      7  H   UNL     1      -4.527  -2.440  -5.093  0.00  0.00    +0.159 HD
ATOM      8  H   UNL     1      -5.080  -2.070  -9.134  0.00  0.00    +0.159 HD
ATOM      9  H   UNL     1      -5.553  -3.498  -8.299  0.00  0.00    +0.159 HD
ENDROOT
BRANCH   1  10
ATOM     10  C   UNL     1      -3.951   0.038  -8.198  0.00  0.00    +0.151 C 
BRANCH  10  11
ATOM     11  C   UNL     1      -3.701   1.444  -7.727  0.00  0.00    -0.028 A 
ATOM     12  C   UNL     1      -3.083   2.378  -8.571  0.00  0.00    +0.005 A 
ATOM     13  C   UNL     1      -4.084   1.850  -6.439  0.00  0.00    +0.005 A 
ATOM     14  C   UNL     1      -2.877   3.692  -8.145  0.00  0.00    +0.000 A 
ATOM     15  C   UNL     1      -3.876   3.163  -6.017  0.00  0.00    +0.000 A 
ATOM     16  C   UNL     1      -3.275   4.084  -6.871  0.00  0.00    +0.000 A 
ENDBRANCH  10  11
ENDBRANCH   1  10
TORSDOF 2
ENDMDL
MODEL 7
REMARK VINA RESULT:    -5.482      2.661      3.412
REMARK INTER + INTRA:          -6.226
REMARK INTER:                  -6.098
REMARK INTRA:                  -0.128
REMARK UNBOUND:                -0.103
REMARK  Name = 1550473
REMARK  2 active torsions:
REMARK  status: ('A' for Active; 'I' for Inactive)
REMARK    1  A    between atoms: N_1  and  C_4
REMARK    2  A    between atoms: C_4  and  C_5
REMARK                            x       y       z     vdW  Elec       q    Type
REMARK                         _______ _______ _______ _____ _____    ______ ____
ROOT
ATOM      1  N   UNL     1      -4.840  -0.557  -6.484  0.00  0.00    -0.354 N 
ATOM      2  N   UNL     1      -4.819  -2.785  -5.851  0.00  0.00    -0.372 N 
ATOM      3  N   UNL     1      -3.613  -1.270  -4.619  0.00  0.00    -0.372 N 
ATOM      4  C   UNL     1      -4.422  -1.521  -5.654  0.00  0.00    +0.166 C 
ATOM      5  H   UNL     1      -5.428  -0.817  -7.267  0.00  0.00    +0.163 HD
ATOM      6  H   UNL     1      -4.523  -3.533  -5.240  0.00  0.00    +0.159 HD
ATOM      7  H   UNL     1      -5.443  -3.035  -6.608  0.00  0.00    +0.159 HD
ATOM      8  H   UNL     1      -3.274  -0.339  -4.419  0.00  0.00    +0.159 HD
ATOM      9  H   UNL     1      -3.297  -2.008  -4.002  0.00  0.00    +0.159 HD
ENDROOT
BRANCH   1  10
ATOM     10  C   UNL     1      -4.510   0.858  -6.325  0.00  0.00    +0.151 C 
BRANCH  10  11
ATOM     11  C   UNL     1      -3.793   1.337  -7.557  0.00  0.00    -0.028 A 
ATOM     12  C   UNL     1      -3.261   0.418  -8.474  0.00  0.00    +0.005 A 
ATOM     13  C   UNL     1      -3.647   2.709  -7.817  0.00  0.00    +0.005 A 
ATOM     14  C   UNL     1      -2.622   0.862  -9.634  0.00  0.00    +0.000 A 
ATOM     15  C   UNL     1      -3.008   3.148  -8.976  0.00  0.00    +0.000 A 
ATOM     16  C   UNL     1      -2.497   2.224  -9.885  0.00  0.00    +0.000 A 
ENDBRANCH  10  11
ENDBRANCH   1  10
TORSDOF 2
ENDMDL
MODEL 8
REMARK VINA RESULT:    -5.401     19.710     20.682
REMARK INTER + INTRA:          -6.135
REMARK INTER:                  -6.021
REMARK INTRA:                  -0.115
REMARK UNBOUND:                -0.103
REMARK  Name = 1550473
REMARK  2 active torsions:
REMARK  status: ('A' for Active; 'I' for Inactive)
REMARK    1  A    between atoms: N_1  and  C_4
REMARK    2  A    between atoms: C_4  and  C_5
REMARK                            x       y       z     vdW  Elec       q    Type
REMARK                         _______ _______ _______ _____ _____    ______ ____
ROOT
ATOM      1  N   UNL     1      11.291  -1.322   6.898  0.00  0.00    -0.354 N 
ATOM      2  N   UNL     1      12.047  -3.443   7.439  0.00  0.00    -0.372 N 
ATOM      3  N   UNL     1       9.810  -2.978   7.642  0.00  0.00    -0.372 N 
ATOM      4  C   UNL     1      11.042  -2.568   7.324  0.00  0.00    +0.166 C 
ATOM      5  H   UNL     1      12.251  -1.064   6.701  0.00  0.00    +0.163 HD
ATOM      6  H   UNL     1      11.889  -4.391   7.755  0.00  0.00    +0.159 HD
ATOM      7  H   UNL     1      12.999  -3.196   7.198  0.00  0.00    +0.159 HD
ATOM      8  H   UNL     1       9.008  -2.364   7.583  0.00  0.00    +0.159 HD
ATOM      9  H   UNL     1       9.633  -3.919   7.971  0.00  0.00    +0.159 HD
ENDROOT
BRANCH   1  10
ATOM     10  C   UNL     1      10.259  -0.308   6.686  0.00  0.00    +0.151 C 
BRANCH  10  11
ATOM     11  C   UNL     1      10.884   1.056   6.782  0.00  0.00    -0.028 A 
ATOM     12  C   UNL     1      10.686   2.003   5.766  0.00  0.00    +0.005 A 
ATOM     13  C   UNL     1      11.671   1.410   7.888  0.00  0.00    +0.005 A 
ATOM     14  C   UNL     1      11.241   3.281   5.869  0.00  0.00    +0.000 A 
ATOM     15  C   UNL     1      12.225   2.687   7.986  0.00  0.00    +0.000 A 
ATOM     16  C   UNL     1      12.007   3.622   6.978  0.00  0.00    +0.000 A 
ENDBRANCH  10  11
ENDBRANCH   1  10
TORSDOF 2
ENDMDL
MODEL 9
REMARK VINA RESULT:    -5.286     15.610     17.051
REMARK INTER + INTRA:          -6.007
REMARK INTER:                  -5.871
REMARK INTRA:                  -0.136
REMARK UNBOUND:                -0.103
REMARK  Name = 1550473
REMARK  2 active torsions:
REMARK  status: ('A' for Active; 'I' for Inactive)
REMARK    1  A    between atoms: N_1  and  C_4
REMARK    2  A    between atoms: C_4  and  C_5
REMARK                            x       y       z     vdW  Elec       q    Type
REMARK                         _______ _______ _______ _____ _____    ______ ____
ROOT
ATOM      1  N   UNL     1       9.498   0.008   3.411  0.00  0.00    -0.354 N 
ATOM      2  N   UNL     1       9.820   1.719   4.938  0.00  0.00    -0.372 N 
ATOM      3  N   UNL     1      11.405   0.068   4.771  0.00  0.00    -0.372 N 
ATOM      4  C   UNL     1      10.241   0.585   4.364  0.00  0.00    +0.166 C 
ATOM      5  H   UNL     1       8.611   0.433   3.168  0.00  0.00    +0.163 HD
ATOM      6  H   UNL     1      10.361   2.179   5.658  0.00  0.00    +0.159 HD
ATOM      7  H   UNL     1       8.955   2.167   4.661  0.00  0.00    +0.159 HD
ATOM      8  H   UNL     1      11.776  -0.788   4.382  0.00  0.00    +0.159 HD
ATOM      9  H   UNL     1      11.956   0.508   5.498  0.00  0.00    +0.159 HD
ENDROOT
BRANCH   1  10
ATOM     10  C   UNL     1       9.892  -1.198   2.685  0.00  0.00    +0.151 C 
BRANCH  10  11
ATOM     11  C   UNL     1       8.763  -2.190   2.729  0.00  0.00    -0.028 A 
ATOM     12  C   UNL     1       8.533  -2.958   3.880  0.00  0.00    +0.005 A 
ATOM     13  C   UNL     1       7.914  -2.362   1.625  0.00  0.00    +0.005 A 
ATOM     14  C   UNL     1       7.466  -3.857   3.932  0.00  0.00    +0.000 A 
ATOM     15  C   UNL     1       6.849  -3.261   1.680  0.00  0.00    +0.000 A 
ATOM     16  C   UNL     1       6.624  -4.007   2.835  0.00  0.00    +0.000 A 
ENDBRANCH  10  11
ENDBRANCH   1  10
TORSDOF 2
ENDMDL
