MODEL 1
REMARK VINA RESULT:    -4.654      0.000      0.000
REMARK INTER + INTRA:          -5.346
REMARK INTER:                  -5.198
REMARK INTRA:                  -0.148
REMARK UNBOUND:                -0.148
REMARK  Name = 1550473
REMARK  2 active torsions:
REMARK  status: ('A' for Active; 'I' for Inactive)
REMARK    1  A    between atoms: N_1  and  C_4
REMARK    2  A    between atoms: C_4  and  C_5
REMARK                            x       y       z     vdW  Elec       q    Type
REMARK                         _______ _______ _______ _____ _____    ______ ____
ROOT
ATOM      1  N   UNL     1       5.423   2.251 -14.286  0.00  0.00    -0.354 N 
ATOM      2  N   UNL     1       6.656   1.965 -12.346  0.00  0.00    -0.372 N 
ATOM      3  N   UNL     1       5.391   3.864 -12.587  0.00  0.00    -0.372 N 
ATOM      4  C   UNL     1       5.814   2.698 -13.085  0.00  0.00    +0.166 C 
ATOM      5  H   UNL     1       5.803   1.373 -14.620  0.00  0.00    +0.163 HD
ATOM      6  H   UNL     1       6.967   2.275 -11.435  0.00  0.00    +0.159 HD
ATOM      7  H   UNL     1       6.999   1.066 -12.663  0.00  0.00    +0.159 HD
ATOM      8  H   UNL     1       4.760   4.467 -13.097  0.00  0.00    +0.159 HD
ATOM      9  H   UNL     1       5.700   4.197 -11.682  0.00  0.00    +0.159 HD
ENDROOT
BRANCH   1  10
ATOM     10  C   UNL     1       4.467   2.946 -15.145  0.00  0.00    +0.151 C 
BRANCH  10  11
ATOM     11  C   UNL     1       3.268   2.064 -15.361  0.00  0.00    -0.028 A 
ATOM     12  C   UNL     1       3.320   0.701 -15.039  0.00  0.00    +0.005 A 
ATOM     13  C   UNL     1       2.075   2.588 -15.883  0.00  0.00    +0.005 A 
ATOM     14  C   UNL     1       2.197  -0.113 -15.211  0.00  0.00    +0.000 A 
ATOM     15  C   UNL     1       0.957   1.773 -16.054  0.00  0.00    +0.000 A 
ATOM     16  C   UNL     1       1.017   0.423 -15.716  0.00  0.00    +0.000 A 
ENDBRANCH  10  11
ENDBRANCH   1  10
TORSDOF 2
ENDMDL
MODEL 2
REMARK VINA RESULT:    -4.548      2.310      2.900
REMARK INTER + INTRA:          -5.228
REMARK INTER:                  -5.101
REMARK INTRA:                  -0.127
REMARK UNBOUND:                -0.148
REMARK  Name = 1550473
REMARK  2 active torsions:
REMARK  status: ('A' for Active; 'I' for Inactive)
REMARK    1  A    between atoms: N_1  and  C_4
REMARK    2  A    between atoms: C_4  and  C_5
REMARK                            x       y       z     vdW  Elec       q    Type
REMARK                         _______ _______ _______ _____ _____    ______ ____
ROOT
ATOM      1  N   UNL     1       4.475  -0.833 -13.867  0.00  0.00    -0.354 N 
ATOM      2  N   UNL     1       5.037  -2.735 -12.671  0.00  0.00    -0.372 N 
ATOM      3  N   UNL     1       6.207  -0.799 -12.289  0.00  0.00    -0.372 N 
ATOM      4  C   UNL     1       5.238  -1.441 -12.949  0.00  0.00    +0.166 C 
ATOM      5  H   UNL     1       3.777  -1.383 -14.354  0.00  0.00    +0.163 HD
ATOM      6  H   UNL     1       5.595  -3.220 -11.981  0.00  0.00    +0.159 HD
ATOM      7  H   UNL     1       4.308  -3.271 -13.127  0.00  0.00    +0.159 HD
ATOM      8  H   UNL     1       6.414   0.177 -12.456  0.00  0.00    +0.159 HD
ATOM      9  H   UNL     1       6.784  -1.270 -11.603  0.00  0.00    +0.159 HD
ENDROOT
BRANCH   1  10
ATOM     10  C   UNL     1       4.577   0.586 -14.204  0.00  0.00    +0.151 C 
BRANCH  10  11
ATOM     11  C   UNL     1       3.306   1.023 -14.878  0.00  0.00    -0.028 A 
ATOM     12  C   UNL     1       2.181   0.185 -14.890  0.00  0.00    +0.005 A 
ATOM     13  C   UNL     1       3.217   2.277 -15.502  0.00  0.00    +0.005 A 
ATOM     14  C   UNL     1       0.991   0.603 -15.490  0.00  0.00    +0.000 A 
ATOM     15  C   UNL     1       2.027   2.690 -16.101  0.00  0.00    +0.000 A 
ATOM     16  C   UNL     1       0.914   1.854 -16.092  0.00  0.00    +0.000 A 
ENDBRANCH  10  11
ENDBRANCH   1  10
TORSDOF 2
ENDMDL
MODEL 3
REMARK VINA RESULT:    -4.520      5.843      7.029
REMARK INTER + INTRA:          -5.197
REMARK INTER:                  -5.062
REMARK INTRA:                  -0.135
REMARK UNBOUND:                -0.148
REMARK  Name = 1550473
REMARK  2 active torsions:
REMARK  status: ('A' for Active; 'I' for Inactive)
REMARK    1  A    between atoms: N_1  and  C_4
REMARK    2  A    between atoms: C_4  and  C_5
REMARK                            x       y       z     vdW  Elec       q    Type
REMARK                         _______ _______ _______ _____ _____    ______ ____
ROOT
ATOM      1  N   UNL     1       4.057  -5.061 -12.418  0.00  0.00    -0.354 N 
ATOM      2  N   UNL     1       2.498  -6.667 -11.822  0.00  0.00    -0.372 N 
ATOM      3  N   UNL     1       4.142  -6.107 -10.323  0.00  0.00    -0.372 N 
ATOM      4  C   UNL     1       3.577  -5.934 -11.522  0.00  0.00    +0.166 C 
ATOM      5  H   UNL     1       3.601  -4.999 -13.321  0.00  0.00    +0.163 HD
ATOM      6  H   UNL     1       2.111  -7.331 -11.165  0.00  0.00    +0.159 HD
ATOM      7  H   UNL     1       2.017  -6.570 -12.708  0.00  0.00    +0.159 HD
ATOM      8  H   UNL     1       4.962  -5.589 -10.037  0.00  0.00    +0.159 HD
ATOM      9  H   UNL     1       3.777  -6.775  -9.656  0.00  0.00    +0.159 HD
ENDROOT
BRANCH   1  10
ATOM     10  C   UNL     1       5.194  -4.177 -12.170  0.00  0.00    +0.151 C 
BRANCH  10  11
ATOM     11  C   UNL     1       4.913  -2.832 -12.780  0.00  0.00    -0.028 A 
ATOM     12  C   UNL     1       3.776  -2.635 -13.577  0.00  0.00    +0.005 A 
ATOM     13  C   UNL     1       5.777  -1.748 -12.560  0.00  0.00    +0.005 A 
ATOM     14  C   UNL     1       3.498  -1.378 -14.120  0.00  0.00    +0.000 A 
ATOM     15  C   UNL     1       5.497  -0.494 -13.104  0.00  0.00    +0.000 A 
ATOM     16  C   UNL     1       4.356  -0.309 -13.882  0.00  0.00    +0.000 A 
ENDBRANCH  10  11
ENDBRANCH   1  10
TORSDOF 2
ENDMDL
MODEL 4
REMARK VINA RESULT:    -4.393      3.366      4.443
REMARK INTER + INTRA:          -5.055
REMARK INTER:                  -4.910
REMARK INTRA:                  -0.144
REMARK UNBOUND:                -0.148
REMARK  Name = 1550473
REMARK  2 active torsions:
REMARK  status: ('A' for Active; 'I' for Inactive)
REMARK    1  A    between atoms: N_1  and  C_4
REMARK    2  A    between atoms: C_4  and  C_5
REMARK                            x       y       z     vdW  Elec       q    Type
REMARK                         _______ _______ _______ _____ _____    ______ ____
ROOT
ATOM      1  N   UNL     1       3.542  -1.902 -13.767  0.00  0.00    -0.354 N 
ATOM      2  N   UNL     1       2.969  -4.076 -13.207  0.00  0.00    -0.372 N 
ATOM      3  N   UNL     1       4.038  -3.688 -15.200  0.00  0.00    -0.372 N 
ATOM      4  C   UNL     1       3.521  -3.208 -14.064  0.00  0.00    +0.166 C 
ATOM      5  H   UNL     1       3.106  -1.599 -12.903  0.00  0.00    +0.163 HD
ATOM      6  H   UNL     1       2.942  -5.067 -13.403  0.00  0.00    +0.159 HD
ATOM      7  H   UNL     1       2.575  -3.775 -12.324  0.00  0.00    +0.159 HD
ATOM      8  H   UNL     1       4.464  -3.085 -15.892  0.00  0.00    +0.159 HD
ATOM      9  H   UNL     1       4.010  -4.676 -15.420  0.00  0.00    +0.159 HD
ENDROOT
BRANCH   1  10
ATOM     10  C   UNL     1       4.166  -0.882 -14.607  0.00  0.00    +0.151 C 
BRANCH  10  11
ATOM     11  C   UNL     1       3.140   0.158 -14.961  0.00  0.00    -0.028 A 
ATOM     12  C   UNL     1       3.424   1.523 -14.802  0.00  0.00    +0.005 A 
ATOM     13  C   UNL     1       1.882  -0.213 -15.461  0.00  0.00    +0.005 A 
ATOM     14  C   UNL     1       2.482   2.490 -15.159  0.00  0.00    +0.000 A 
ATOM     15  C   UNL     1       0.944   0.756 -15.816  0.00  0.00    +0.000 A 
ATOM     16  C   UNL     1       1.245   2.108 -15.667  0.00  0.00    +0.000 A 
ENDBRANCH  10  11
ENDBRANCH   1  10
TORSDOF 2
ENDMDL
MODEL 5
REMARK VINA RESULT:    -4.339     36.509     37.669
REMARK INTER + INTRA:          -4.995
REMARK INTER:                  -4.867
REMARK INTRA:                  -0.128
REMARK UNBOUND:                -0.148
REMARK  Name = 1550473
REMARK  2 active torsions:
REMARK  status: ('A' for Active; 'I' for Inactive)
REMARK    1  A    between atoms: N_1  and  C_4
REMARK    2  A    between atoms: C_4  and  C_5
REMARK                            x       y       z     vdW  Elec       q    Type
REMARK                         _______ _______ _______ _____ _____    ______ ____
ROOT
ATOM      1  N   UNL     1       1.997   6.566  23.527  0.00  0.00    -0.354 N 
ATOM      2  N   UNL     1       1.014   7.998  25.059  0.00  0.00    -0.372 N 
ATOM      3  N   UNL     1       0.194   7.934  22.917  0.00  0.00    -0.372 N 
ATOM      4  C   UNL     1       1.074   7.491  23.822  0.00  0.00    +0.166 C 
ATOM      5  H   UNL     1       2.654   6.294  24.249  0.00  0.00    +0.163 HD
ATOM      6  H   UNL     1       0.326   8.694  25.312  0.00  0.00    +0.159 HD
ATOM      7  H   UNL     1       1.643   7.691  25.792  0.00  0.00    +0.159 HD
ATOM      8  H   UNL     1       0.190   7.595  21.964  0.00  0.00    +0.159 HD
ATOM      9  H   UNL     1      -0.494   8.639  23.148  0.00  0.00    +0.159 HD
ENDROOT
BRANCH   1  10
ATOM     10  C   UNL     1       2.111   5.911  22.225  0.00  0.00    +0.151 C 
BRANCH  10  11
ATOM     11  C   UNL     1       3.528   5.447  22.031  0.00  0.00    -0.028 A 
ATOM     12  C   UNL     1       4.579   6.056  22.732  0.00  0.00    +0.005 A 
ATOM     13  C   UNL     1       3.826   4.394  21.153  0.00  0.00    +0.005 A 
ATOM     14  C   UNL     1       5.892   5.605  22.575  0.00  0.00    +0.000 A 
ATOM     15  C   UNL     1       5.138   3.947  20.999  0.00  0.00    +0.000 A 
ATOM     16  C   UNL     1       6.171   4.551  21.712  0.00  0.00    +0.000 A 
ENDBRANCH  10  11
ENDBRANCH   1  10
TORSDOF 2
ENDMDL
MODEL 6
REMARK VINA RESULT:    -4.331     20.882     21.919
REMARK INTER + INTRA:          -4.986
REMARK INTER:                  -4.843
REMARK INTRA:                  -0.143
REMARK UNBOUND:                -0.148
REMARK  Name = 1550473
REMARK  2 active torsions:
REMARK  status: ('A' for Active; 'I' for Inactive)
REMARK    1  A    between atoms: N_1  and  C_4
REMARK    2  A    between atoms: C_4  and  C_5
REMARK                            x       y       z     vdW  Elec       q    Type
REMARK                         _______ _______ _______ _____ _____    ______ ____
ROOT
ATOM      1  N   UNL     1      -3.713   2.362   4.819  0.00  0.00    -0.354 N 
ATOM      2  N   UNL     1      -5.120   4.202   4.832  0.00  0.00    -0.372 N 
ATOM      3  N   UNL     1      -5.786   2.289   5.909  0.00  0.00    -0.372 N 
ATOM      4  C   UNL     1      -4.866   2.937   5.188  0.00  0.00    +0.166 C 
ATOM      5  H   UNL     1      -3.070   2.897   4.247  0.00  0.00    +0.163 HD
ATOM      6  H   UNL     1      -5.979   4.663   5.099  0.00  0.00    +0.159 HD
ATOM      7  H   UNL     1      -4.455   4.750   4.300  0.00  0.00    +0.159 HD
ATOM      8  H   UNL     1      -5.658   1.330   6.204  0.00  0.00    +0.159 HD
ATOM      9  H   UNL     1      -6.658   2.730   6.175  0.00  0.00    +0.159 HD
ENDROOT
BRANCH   1  10
ATOM     10  C   UNL     1      -3.316   1.008   5.200  0.00  0.00    +0.151 C 
BRANCH  10  11
ATOM     11  C   UNL     1      -1.967   1.059   5.862  0.00  0.00    -0.028 A 
ATOM     12  C   UNL     1      -1.742   1.909   6.954  0.00  0.00    +0.005 A 
ATOM     13  C   UNL     1      -0.911   0.256   5.404  0.00  0.00    +0.005 A 
ATOM     14  C   UNL     1      -0.497   1.935   7.588  0.00  0.00    +0.000 A 
ATOM     15  C   UNL     1       0.330   0.285   6.039  0.00  0.00    +0.000 A 
ATOM     16  C   UNL     1       0.536   1.123   7.133  0.00  0.00    +0.000 A 
ENDBRANCH  10  11
ENDBRANCH   1  10
TORSDOF 2
ENDMDL
MODEL 7
REMARK VINA RESULT:    -4.272     26.295     26.935
REMARK INTER + INTRA:          -4.919
REMARK INTER:                  -4.775
REMARK INTRA:                  -0.144
REMARK UNBOUND:                -0.148
REMARK  Name = 1550473
REMARK  2 active torsions:
REMARK  status: ('A' for Active; 'I' for Inactive)
REMARK    1  A    between atoms: N_1  and  C_4
REMARK    2  A    between atoms: C_4  and  C_5
REMARK                            x       y       z     vdW  Elec       q    Type
REMARK                         _______ _______ _______ _____ _____    ______ ____
ROOT
ATOM      1  N   UNL     1      -7.458   5.204  10.217  0.00  0.00    -0.354 N 
ATOM      2  N   UNL     1      -7.809   4.998  12.497  0.00  0.00    -0.372 N 
ATOM      3  N   UNL     1      -6.003   6.205  11.758  0.00  0.00    -0.372 N 
ATOM      4  C   UNL     1      -7.085   5.471  11.476  0.00  0.00    +0.166 C 
ATOM      5  H   UNL     1      -8.271   4.616  10.071  0.00  0.00    +0.163 HD
ATOM      6  H   UNL     1      -7.555   5.186  13.458  0.00  0.00    +0.159 HD
ATOM      7  H   UNL     1      -8.647   4.449  12.347  0.00  0.00    +0.159 HD
ATOM      8  H   UNL     1      -5.411   6.587  11.033  0.00  0.00    +0.159 HD
ATOM      9  H   UNL     1      -5.726   6.395  12.713  0.00  0.00    +0.159 HD
ENDROOT
BRANCH   1  10
ATOM     10  C   UNL     1      -6.769   5.716   9.034  0.00  0.00    +0.151 C 
BRANCH  10  11
ATOM     11  C   UNL     1      -7.707   6.608   8.268  0.00  0.00    -0.028 A 
ATOM     12  C   UNL     1      -9.021   6.197   8.001  0.00  0.00    +0.005 A 
ATOM     13  C   UNL     1      -7.290   7.868   7.812  0.00  0.00    +0.005 A 
ATOM     14  C   UNL     1      -9.902   7.037   7.315  0.00  0.00    +0.000 A 
ATOM     15  C   UNL     1      -8.172   8.703   7.127  0.00  0.00    +0.000 A 
ATOM     16  C   UNL     1      -9.479   8.289   6.881  0.00  0.00    +0.000 A 
ENDBRANCH  10  11
ENDBRANCH   1  10
TORSDOF 2
ENDMDL
MODEL 8
REMARK VINA RESULT:    -4.205     21.180     21.862
REMARK INTER + INTRA:          -4.845
REMARK INTER:                  -4.717
REMARK INTRA:                  -0.128
REMARK UNBOUND:                -0.148
REMARK  Name = 1550473
REMARK  2 active torsions:
REMARK  status: ('A' for Active; 'I' for Inactive)
REMARK    1  A    between atoms: N_1  and  C_4
REMARK    2  A    between atoms: C_4  and  C_5
REMARK                            x       y       z     vdW  Elec       q    Type
REMARK                         _______ _______ _______ _____ _____    ______ ____
ROOT
ATOM      1  N   UNL     1      -4.708   1.738   4.429  0.00  0.00    -0.354 N 
ATOM      2  N   UNL     1      -6.941   1.453   3.884  0.00  0.00    -0.372 N 
ATOM      3  N   UNL     1      -6.405   2.418   5.896  0.00  0.00    -0.372 N 
ATOM      4  C   UNL     1      -6.004   1.873   4.743  0.00  0.00    +0.166 C 
ATOM      5  H   UNL     1      -4.469   1.289   3.552  0.00  0.00    +0.163 HD
ATOM      6  H   UNL     1      -7.926   1.545   4.092  0.00  0.00    +0.159 HD
ATOM      7  H   UNL     1      -6.700   1.047   2.989  0.00  0.00    +0.159 HD
ATOM      8  H   UNL     1      -5.747   2.749   6.589  0.00  0.00    +0.159 HD
ATOM      9  H   UNL     1      -7.386   2.507   6.127  0.00  0.00    +0.159 HD
ENDROOT
BRANCH   1  10
ATOM     10  C   UNL     1      -3.610   2.211   5.270  0.00  0.00    +0.151 C 
BRANCH  10  11
ATOM     11  C   UNL     1      -2.752   1.040   5.662  0.00  0.00    -0.028 A 
ATOM     12  C   UNL     1      -1.357   1.171   5.730  0.00  0.00    +0.005 A 
ATOM     13  C   UNL     1      -3.328  -0.202   5.971  0.00  0.00    +0.005 A 
ATOM     14  C   UNL     1      -0.562   0.092   6.123  0.00  0.00    +0.000 A 
ATOM     15  C   UNL     1      -2.530  -1.277   6.362  0.00  0.00    +0.000 A 
ATOM     16  C   UNL     1      -1.148  -1.129   6.441  0.00  0.00    +0.000 A 
ENDBRANCH  10  11
ENDBRANCH   1  10
TORSDOF 2
ENDMDL
MODEL 9
REMARK VINA RESULT:    -4.144     37.249     38.788
REMARK INTER + INTRA:          -4.776
REMARK INTER:                  -4.650
REMARK INTRA:                  -0.126
REMARK UNBOUND:                -0.148
REMARK  Name = 1550473
REMARK  2 active torsions:
REMARK  status: ('A' for Active; 'I' for Inactive)
REMARK    1  A    between atoms: N_1  and  C_4
REMARK    2  A    between atoms: C_4  and  C_5
REMARK                            x       y       z     vdW  Elec       q    Type
REMARK                         _______ _______ _______ _____ _____    ______ ____
ROOT
ATOM      1  N   UNL     1       2.142  15.120  22.811  0.00  0.00    -0.354 N 
ATOM      2  N   UNL     1       2.707  14.293  24.899  0.00  0.00    -0.372 N 
ATOM      3  N   UNL     1       0.781  15.520  24.677  0.00  0.00    -0.372 N 
ATOM      4  C   UNL     1       1.871  14.985  24.116  0.00  0.00    +0.166 C 
ATOM      5  H   UNL     1       2.999  14.716  22.453  0.00  0.00    +0.163 HD
ATOM      6  H   UNL     1       2.527  14.170  25.886  0.00  0.00    +0.159 HD
ATOM      7  H   UNL     1       3.540  13.851  24.529  0.00  0.00    +0.159 HD
ATOM      8  H   UNL     1       0.113  16.059  24.142  0.00  0.00    +0.159 HD
ATOM      9  H   UNL     1       0.590  15.419  25.666  0.00  0.00    +0.159 HD
ENDROOT
BRANCH   1  10
ATOM     10  C   UNL     1       1.268  15.809  21.862  0.00  0.00    +0.151 C 
BRANCH  10  11
ATOM     11  C   UNL     1       2.059  16.158  20.631  0.00  0.00    -0.028 A 
ATOM     12  C   UNL     1       1.430  16.744  19.523  0.00  0.00    +0.005 A 
ATOM     13  C   UNL     1       3.439  15.911  20.569  0.00  0.00    +0.005 A 
ATOM     14  C   UNL     1       2.169  17.097  18.392  0.00  0.00    +0.000 A 
ATOM     15  C   UNL     1       4.174  16.263  19.437  0.00  0.00    +0.000 A 
ATOM     16  C   UNL     1       3.539  16.858  18.350  0.00  0.00    +0.000 A 
ENDBRANCH  10  11
ENDBRANCH   1  10
TORSDOF 2
ENDMDL
