MODEL 1
REMARK VINA RESULT:    -5.110      0.000      0.000
REMARK INTER + INTRA:          -5.847
REMARK INTER:                  -5.708
REMARK INTRA:                  -0.139
REMARK UNBOUND:                -0.139
REMARK  Name = 1550473
REMARK  2 active torsions:
REMARK  status: ('A' for Active; 'I' for Inactive)
REMARK    1  A    between atoms: N_1  and  C_4
REMARK    2  A    between atoms: C_4  and  C_5
REMARK                            x       y       z     vdW  Elec       q    Type
REMARK                         _______ _______ _______ _____ _____    ______ ____
ROOT
ATOM      1  N   UNL     1       8.579  -9.054  -0.983  0.00  0.00    -0.354 N 
ATOM      2  N   UNL     1      10.070 -10.723  -0.385  0.00  0.00    -0.372 N 
ATOM      3  N   UNL     1      10.836  -8.935  -1.601  0.00  0.00    -0.372 N 
ATOM      4  C   UNL     1       9.820  -9.558  -0.995  0.00  0.00    +0.166 C 
ATOM      5  H   UNL     1       7.847  -9.591  -0.532  0.00  0.00    +0.163 HD
ATOM      6  H   UNL     1      10.997 -11.126  -0.375  0.00  0.00    +0.159 HD
ATOM      7  H   UNL     1       9.345 -11.235   0.104  0.00  0.00    +0.159 HD
ATOM      8  H   UNL     1      10.713  -8.055  -2.084  0.00  0.00    +0.159 HD
ATOM      9  H   UNL     1      11.769  -9.328  -1.612  0.00  0.00    +0.159 HD
ENDROOT
BRANCH   1  10
ATOM     10  C   UNL     1       8.213  -7.767  -1.571  0.00  0.00    +0.151 C 
BRANCH  10  11
ATOM     11  C   UNL     1       7.409  -6.982  -0.572  0.00  0.00    -0.028 A 
ATOM     12  C   UNL     1       7.764  -6.980   0.785  0.00  0.00    +0.005 A 
ATOM     13  C   UNL     1       6.293  -6.233  -0.977  0.00  0.00    +0.005 A 
ATOM     14  C   UNL     1       7.035  -6.227   1.708  0.00  0.00    +0.000 A 
ATOM     15  C   UNL     1       5.568  -5.482  -0.052  0.00  0.00    +0.000 A 
ATOM     16  C   UNL     1       5.940  -5.478   1.290  0.00  0.00    +0.000 A 
ENDBRANCH  10  11
ENDBRANCH   1  10
TORSDOF 2
ENDMDL
MODEL 2
REMARK VINA RESULT:    -4.652     16.758     17.785
REMARK INTER + INTRA:          -5.334
REMARK INTER:                  -5.216
REMARK INTRA:                  -0.118
REMARK UNBOUND:                -0.139
REMARK  Name = 1550473
REMARK  2 active torsions:
REMARK  status: ('A' for Active; 'I' for Inactive)
REMARK    1  A    between atoms: N_1  and  C_4
REMARK    2  A    between atoms: C_4  and  C_5
REMARK                            x       y       z     vdW  Elec       q    Type
REMARK                         _______ _______ _______ _____ _____    ______ ____
ROOT
ATOM      1  N   UNL     1      18.883   1.716   8.162  0.00  0.00    -0.354 N 
ATOM      2  N   UNL     1      17.890   2.850   6.403  0.00  0.00    -0.372 N 
ATOM      3  N   UNL     1      19.645   1.440   5.963  0.00  0.00    -0.372 N 
ATOM      4  C   UNL     1      18.815   1.993   6.853  0.00  0.00    +0.166 C 
ATOM      5  H   UNL     1      18.244   2.192   8.788  0.00  0.00    +0.163 HD
ATOM      6  H   UNL     1      17.812   3.077   5.421  0.00  0.00    +0.159 HD
ATOM      7  H   UNL     1      17.223   3.289   7.026  0.00  0.00    +0.159 HD
ATOM      8  H   UNL     1      20.369   0.790   6.238  0.00  0.00    +0.159 HD
ATOM      9  H   UNL     1      19.591   1.663   4.977  0.00  0.00    +0.159 HD
ENDROOT
BRANCH   1  10
ATOM     10  C   UNL     1      19.818   0.756   8.746  0.00  0.00    +0.151 C 
BRANCH  10  11
ATOM     11  C   UNL     1      19.639   0.744  10.240  0.00  0.00    -0.028 A 
ATOM     12  C   UNL     1      19.997  -0.385  10.990  0.00  0.00    +0.005 A 
ATOM     13  C   UNL     1      19.118   1.862  10.910  0.00  0.00    +0.005 A 
ATOM     14  C   UNL     1      19.860  -0.386  12.380  0.00  0.00    +0.000 A 
ATOM     15  C   UNL     1      18.982   1.857  12.298  0.00  0.00    +0.000 A 
ATOM     16  C   UNL     1      19.355   0.734  13.033  0.00  0.00    +0.000 A 
ENDBRANCH  10  11
ENDBRANCH   1  10
TORSDOF 2
ENDMDL
MODEL 3
REMARK VINA RESULT:    -4.589     16.091     16.959
REMARK INTER + INTRA:          -5.264
REMARK INTER:                  -5.110
REMARK INTRA:                  -0.154
REMARK UNBOUND:                -0.139
REMARK  Name = 1550473
REMARK  2 active torsions:
REMARK  status: ('A' for Active; 'I' for Inactive)
REMARK    1  A    between atoms: N_1  and  C_4
REMARK    2  A    between atoms: C_4  and  C_5
REMARK                            x       y       z     vdW  Elec       q    Type
REMARK                         _______ _______ _______ _____ _____    ______ ____
ROOT
ATOM      1  N   UNL     1      -2.366 -20.569  -7.360  0.00  0.00    -0.354 N 
ATOM      2  N   UNL     1      -4.068 -20.588  -5.790  0.00  0.00    -0.372 N 
ATOM      3  N   UNL     1      -1.893 -20.692  -5.069  0.00  0.00    -0.372 N 
ATOM      4  C   UNL     1      -2.762 -20.616  -6.082  0.00  0.00    +0.166 C 
ATOM      5  H   UNL     1      -3.076 -20.543  -8.084  0.00  0.00    +0.163 HD
ATOM      6  H   UNL     1      -4.397 -20.619  -4.834  0.00  0.00    +0.159 HD
ATOM      7  H   UNL     1      -4.774 -20.516  -6.513  0.00  0.00    +0.159 HD
ATOM      8  H   UNL     1      -0.894 -20.723  -5.222  0.00  0.00    +0.159 HD
ATOM      9  H   UNL     1      -2.203 -20.736  -4.106  0.00  0.00    +0.159 HD
ENDROOT
BRANCH   1  10
ATOM     10  C   UNL     1      -0.967 -20.540  -7.782  0.00  0.00    +0.151 C 
BRANCH  10  11
ATOM     11  C   UNL     1      -0.650 -19.179  -8.339  0.00  0.00    -0.028 A 
ATOM     12  C   UNL     1       0.670 -18.705  -8.351  0.00  0.00    +0.005 A 
ATOM     13  C   UNL     1      -1.664 -18.361  -8.860  0.00  0.00    +0.005 A 
ATOM     14  C   UNL     1       0.970 -17.453  -8.895  0.00  0.00    +0.000 A 
ATOM     15  C   UNL     1      -1.361 -17.112  -9.401  0.00  0.00    +0.000 A 
ATOM     16  C   UNL     1      -0.044 -16.659  -9.421  0.00  0.00    +0.000 A 
ENDBRANCH  10  11
ENDBRANCH   1  10
TORSDOF 2
ENDMDL
MODEL 4
REMARK VINA RESULT:    -4.546     23.160     24.419
REMARK INTER + INTRA:          -5.216
REMARK INTER:                  -5.119
REMARK INTRA:                  -0.097
REMARK UNBOUND:                -0.139
REMARK  Name = 1550473
REMARK  2 active torsions:
REMARK  status: ('A' for Active; 'I' for Inactive)
REMARK    1  A    between atoms: N_1  and  C_4
REMARK    2  A    between atoms: C_4  and  C_5
REMARK                            x       y       z     vdW  Elec       q    Type
REMARK                         _______ _______ _______ _____ _____    ______ ____
ROOT
ATOM      1  N   UNL     1      -7.898  -9.775 -16.699  0.00  0.00    -0.354 N 
ATOM      2  N   UNL     1      -8.365 -11.210 -14.942  0.00  0.00    -0.372 N 
ATOM      3  N   UNL     1      -7.978  -8.994 -14.491  0.00  0.00    -0.372 N 
ATOM      4  C   UNL     1      -8.077  -9.981 -15.388  0.00  0.00    +0.166 C 
ATOM      5  H   UNL     1      -7.957 -10.571 -17.324  0.00  0.00    +0.163 HD
ATOM      6  H   UNL     1      -8.508 -11.396 -13.959  0.00  0.00    +0.159 HD
ATOM      7  H   UNL     1      -8.468 -11.995 -15.574  0.00  0.00    +0.159 HD
ATOM      8  H   UNL     1      -7.758  -8.045 -14.762  0.00  0.00    +0.159 HD
ATOM      9  H   UNL     1      -8.107  -9.162 -13.501  0.00  0.00    +0.159 HD
ENDROOT
BRANCH   1  10
ATOM     10  C   UNL     1      -7.635  -8.465 -17.293  0.00  0.00    +0.151 C 
BRANCH  10  11
ATOM     11  C   UNL     1      -8.078  -8.479 -18.730  0.00  0.00    -0.028 A 
ATOM     12  C   UNL     1      -7.360  -9.207 -19.689  0.00  0.00    +0.005 A 
ATOM     13  C   UNL     1      -9.219  -7.770 -19.137  0.00  0.00    +0.005 A 
ATOM     14  C   UNL     1      -7.788  -9.244 -21.019  0.00  0.00    +0.000 A 
ATOM     15  C   UNL     1      -9.643  -7.809 -20.465  0.00  0.00    +0.000 A 
ATOM     16  C   UNL     1      -8.929  -8.548 -21.405  0.00  0.00    +0.000 A 
ENDBRANCH  10  11
ENDBRANCH   1  10
TORSDOF 2
ENDMDL
MODEL 5
REMARK VINA RESULT:    -4.539     26.950     28.245
REMARK INTER + INTRA:          -5.208
REMARK INTER:                  -5.070
REMARK INTRA:                  -0.139
REMARK UNBOUND:                -0.139
REMARK  Name = 1550473
REMARK  2 active torsions:
REMARK  status: ('A' for Active; 'I' for Inactive)
REMARK    1  A    between atoms: N_1  and  C_4
REMARK    2  A    between atoms: C_4  and  C_5
REMARK                            x       y       z     vdW  Elec       q    Type
REMARK                         _______ _______ _______ _____ _____    ______ ____
ROOT
ATOM      1  N   UNL     1     -17.520 -10.235 -13.637  0.00  0.00    -0.354 N 
ATOM      2  N   UNL     1     -17.509 -12.313 -12.613  0.00  0.00    -0.372 N 
ATOM      3  N   UNL     1     -17.633 -12.205 -14.902  0.00  0.00    -0.372 N 
ATOM      4  C   UNL     1     -17.555 -11.572 -13.727  0.00  0.00    +0.166 C 
ATOM      5  H   UNL     1     -17.491  -9.816 -12.715  0.00  0.00    +0.163 HD
ATOM      6  H   UNL     1     -17.530 -13.323 -12.650  0.00  0.00    +0.159 HD
ATOM      7  H   UNL     1     -17.434 -11.892 -11.695  0.00  0.00    +0.159 HD
ATOM      8  H   UNL     1     -17.676 -11.703 -15.779  0.00  0.00    +0.159 HD
ATOM      9  H   UNL     1     -17.667 -13.215 -14.958  0.00  0.00    +0.159 HD
ENDROOT
BRANCH   1  10
ATOM     10  C   UNL     1     -17.510  -9.338 -14.791  0.00  0.00    +0.151 C 
BRANCH  10  11
ATOM     11  C   UNL     1     -16.399  -8.339 -14.627  0.00  0.00    -0.028 A 
ATOM     12  C   UNL     1     -16.670  -6.963 -14.647  0.00  0.00    +0.005 A 
ATOM     13  C   UNL     1     -15.073  -8.761 -14.445  0.00  0.00    +0.005 A 
ATOM     14  C   UNL     1     -15.642  -6.034 -14.464  0.00  0.00    +0.000 A 
ATOM     15  C   UNL     1     -14.050  -7.831 -14.263  0.00  0.00    +0.000 A 
ATOM     16  C   UNL     1     -14.335  -6.468 -14.270  0.00  0.00    +0.000 A 
ENDBRANCH  10  11
ENDBRANCH   1  10
TORSDOF 2
ENDMDL
MODEL 6
REMARK VINA RESULT:    -4.443     17.666     18.694
REMARK INTER + INTRA:          -5.101
REMARK INTER:                  -4.982
REMARK INTRA:                  -0.118
REMARK UNBOUND:                -0.139
REMARK  Name = 1550473
REMARK  2 active torsions:
REMARK  status: ('A' for Active; 'I' for Inactive)
REMARK    1  A    between atoms: N_1  and  C_4
REMARK    2  A    between atoms: C_4  and  C_5
REMARK                            x       y       z     vdW  Elec       q    Type
REMARK                         _______ _______ _______ _____ _____    ______ ____
ROOT
ATOM      1  N   UNL     1      19.063   2.373   8.519  0.00  0.00    -0.354 N 
ATOM      2  N   UNL     1      18.207   1.551   6.530  0.00  0.00    -0.372 N 
ATOM      3  N   UNL     1      20.221   2.651   6.500  0.00  0.00    -0.372 N 
ATOM      4  C   UNL     1      19.172   2.198   7.195  0.00  0.00    +0.166 C 
ATOM      5  H   UNL     1      18.229   2.032   8.983  0.00  0.00    +0.163 HD
ATOM      6  H   UNL     1      18.263   1.401   5.532  0.00  0.00    +0.159 HD
ATOM      7  H   UNL     1      17.396   1.171   7.003  0.00  0.00    +0.159 HD
ATOM      8  H   UNL     1      20.979   3.153   6.942  0.00  0.00    +0.159 HD
ATOM      9  H   UNL     1      20.289   2.521   5.498  0.00  0.00    +0.159 HD
ENDROOT
BRANCH   1  10
ATOM     10  C   UNL     1      20.083   3.017   9.345  0.00  0.00    +0.151 C 
BRANCH  10  11
ATOM     11  C   UNL     1      19.764   2.777  10.795  0.00  0.00    -0.028 A 
ATOM     12  C   UNL     1      20.081   3.742  11.762  0.00  0.00    +0.005 A 
ATOM     13  C   UNL     1      19.139   1.590  11.207  0.00  0.00    +0.005 A 
ATOM     14  C   UNL     1      19.758   3.533  13.105  0.00  0.00    +0.000 A 
ATOM     15  C   UNL     1      18.819   1.385  12.549  0.00  0.00    +0.000 A 
ATOM     16  C   UNL     1      19.126   2.358  13.497  0.00  0.00    +0.000 A 
ENDBRANCH  10  11
ENDBRANCH   1  10
TORSDOF 2
ENDMDL
MODEL 7
REMARK VINA RESULT:    -4.422     26.880     28.140
REMARK INTER + INTRA:          -5.077
REMARK INTER:                  -4.915
REMARK INTRA:                  -0.163
REMARK UNBOUND:                -0.139
REMARK  Name = 1550473
REMARK  2 active torsions:
REMARK  status: ('A' for Active; 'I' for Inactive)
REMARK    1  A    between atoms: N_1  and  C_4
REMARK    2  A    between atoms: C_4  and  C_5
REMARK                            x       y       z     vdW  Elec       q    Type
REMARK                         _______ _______ _______ _____ _____    ______ ____
ROOT
ATOM      1  N   UNL     1     -16.757 -10.860 -15.223  0.00  0.00    -0.354 N 
ATOM      2  N   UNL     1     -16.966 -12.777 -13.941  0.00  0.00    -0.372 N 
ATOM      3  N   UNL     1     -18.188 -10.921 -13.369  0.00  0.00    -0.372 N 
ATOM      4  C   UNL     1     -17.304 -11.505 -14.184  0.00  0.00    +0.166 C 
ATOM      5  H   UNL     1     -16.070 -11.349 -15.786  0.00  0.00    +0.163 HD
ATOM      6  H   UNL     1     -17.365 -13.291 -13.166  0.00  0.00    +0.159 HD
ATOM      7  H   UNL     1     -16.314 -13.278 -14.532  0.00  0.00    +0.159 HD
ATOM      8  H   UNL     1     -18.481  -9.961 -13.495  0.00  0.00    +0.159 HD
ATOM      9  H   UNL     1     -18.590 -11.415 -12.582  0.00  0.00    +0.159 HD
ENDROOT
BRANCH   1  10
ATOM     10  C   UNL     1     -17.097  -9.491 -15.607  0.00  0.00    +0.151 C 
BRANCH  10  11
ATOM     11  C   UNL     1     -16.022  -8.561 -15.115  0.00  0.00    -0.028 A 
ATOM     12  C   UNL     1     -14.682  -8.974 -15.087  0.00  0.00    +0.005 A 
ATOM     13  C   UNL     1     -16.337  -7.264 -14.682  0.00  0.00    +0.005 A 
ATOM     14  C   UNL     1     -13.680  -8.100 -14.659  0.00  0.00    +0.000 A 
ATOM     15  C   UNL     1     -15.333  -6.395 -14.254  0.00  0.00    +0.000 A 
ATOM     16  C   UNL     1     -14.005  -6.813 -14.245  0.00  0.00    +0.000 A 
ENDBRANCH  10  11
ENDBRANCH   1  10
TORSDOF 2
ENDMDL
MODEL 8
REMARK VINA RESULT:    -4.252     23.944     24.496
REMARK INTER + INTRA:          -4.888
REMARK INTER:                  -4.763
REMARK INTRA:                  -0.124
REMARK UNBOUND:                -0.139
REMARK  Name = 1550473
REMARK  2 active torsions:
REMARK  status: ('A' for Active; 'I' for Inactive)
REMARK    1  A    between atoms: N_1  and  C_4
REMARK    2  A    between atoms: C_4  and  C_5
REMARK                            x       y       z     vdW  Elec       q    Type
REMARK                         _______ _______ _______ _____ _____    ______ ____
ROOT
ATOM      1  N   UNL     1     -15.677  -3.712  -0.586  0.00  0.00    -0.354 N 
ATOM      2  N   UNL     1     -16.251  -4.867   1.338  0.00  0.00    -0.372 N 
ATOM      3  N   UNL     1     -15.469  -2.717   1.526  0.00  0.00    -0.372 N 
ATOM      4  C   UNL     1     -15.794  -3.755   0.748  0.00  0.00    +0.166 C 
ATOM      5  H   UNL     1     -15.911  -4.542  -1.117  0.00  0.00    +0.163 HD
ATOM      6  H   UNL     1     -16.353  -4.928   2.342  0.00  0.00    +0.159 HD
ATOM      7  H   UNL     1     -16.528  -5.680   0.801  0.00  0.00    +0.159 HD
ATOM      8  H   UNL     1     -15.113  -1.852   1.143  0.00  0.00    +0.159 HD
ATOM      9  H   UNL     1     -15.554  -2.764   2.534  0.00  0.00    +0.159 HD
ENDROOT
BRANCH   1  10
ATOM     10  C   UNL     1     -15.241  -2.531  -1.330  0.00  0.00    +0.151 C 
BRANCH  10  11
ATOM     11  C   UNL     1     -15.525  -2.740  -2.792  0.00  0.00    -0.028 A 
ATOM     12  C   UNL     1     -15.228  -1.736  -3.726  0.00  0.00    +0.005 A 
ATOM     13  C   UNL     1     -16.085  -3.942  -3.251  0.00  0.00    +0.005 A 
ATOM     14  C   UNL     1     -15.463  -1.941  -5.087  0.00  0.00    +0.000 A 
ATOM     15  C   UNL     1     -16.320  -4.143  -4.612  0.00  0.00    +0.000 A 
ATOM     16  C   UNL     1     -16.006  -3.143  -5.530  0.00  0.00    +0.000 A 
ENDBRANCH  10  11
ENDBRANCH   1  10
TORSDOF 2
ENDMDL
MODEL 9
REMARK VINA RESULT:    -4.243     20.639     21.415
REMARK INTER + INTRA:          -4.877
REMARK INTER:                  -4.694
REMARK INTRA:                  -0.183
REMARK UNBOUND:                -0.139
REMARK  Name = 1550473
REMARK  2 active torsions:
REMARK  status: ('A' for Active; 'I' for Inactive)
REMARK    1  A    between atoms: N_1  and  C_4
REMARK    2  A    between atoms: C_4  and  C_5
REMARK                            x       y       z     vdW  Elec       q    Type
REMARK                         _______ _______ _______ _____ _____    ______ ____
ROOT
ATOM      1  N   UNL     1      14.845  13.141   0.880  0.00  0.00    -0.354 N 
ATOM      2  N   UNL     1      12.566  13.040   0.479  0.00  0.00    -0.372 N 
ATOM      3  N   UNL     1      14.000  13.203  -1.305  0.00  0.00    -0.372 N 
ATOM      4  C   UNL     1      13.819  13.129   0.018  0.00  0.00    +0.166 C 
ATOM      5  H   UNL     1      14.640  13.113   1.872  0.00  0.00    +0.163 HD
ATOM      6  H   UNL     1      11.772  13.025  -0.147  0.00  0.00    +0.159 HD
ATOM      7  H   UNL     1      12.366  12.966   1.469  0.00  0.00    +0.159 HD
ATOM      8  H   UNL     1      14.920  13.277  -1.717  0.00  0.00    +0.159 HD
ATOM      9  H   UNL     1      13.217  13.201  -1.948  0.00  0.00    +0.159 HD
ENDROOT
BRANCH   1  10
ATOM     10  C   UNL     1      16.250  13.181   0.479  0.00  0.00    +0.151 C 
BRANCH  10  11
ATOM     11  C   UNL     1      16.803  11.782   0.489  0.00  0.00    -0.028 A 
ATOM     12  C   UNL     1      17.170  11.153  -0.710  0.00  0.00    +0.005 A 
ATOM     13  C   UNL     1      16.969  11.083   1.694  0.00  0.00    +0.005 A 
ATOM     14  C   UNL     1      17.712   9.866  -0.699  0.00  0.00    +0.000 A 
ATOM     15  C   UNL     1      17.509   9.798   1.701  0.00  0.00    +0.000 A 
ATOM     16  C   UNL     1      17.883   9.190   0.505  0.00  0.00    +0.000 A 
ENDBRANCH  10  11
ENDBRANCH   1  10
TORSDOF 2
ENDMDL
