MODEL 1
REMARK VINA RESULT:    -5.044      0.000      0.000
REMARK INTER + INTRA:          -5.756
REMARK INTER:                  -5.634
REMARK INTRA:                  -0.122
REMARK UNBOUND:                -0.122
REMARK  Name = 1550473
REMARK  2 active torsions:
REMARK  status: ('A' for Active; 'I' for Inactive)
REMARK    1  A    between atoms: N_1  and  C_4
REMARK    2  A    between atoms: C_4  and  C_5
REMARK                            x       y       z     vdW  Elec       q    Type
REMARK                         _______ _______ _______ _____ _____    ______ ____
ROOT
ATOM      1  N   UNL     1      -4.499 -12.902  -4.838  0.00  0.00    -0.354 N 
ATOM      2  N   UNL     1      -5.031 -15.098  -4.327  0.00  0.00    -0.372 N 
ATOM      3  N   UNL     1      -4.225 -13.736  -2.666  0.00  0.00    -0.372 N 
ATOM      4  C   UNL     1      -4.580 -13.897  -3.945  0.00  0.00    +0.166 C 
ATOM      5  H   UNL     1      -4.756 -13.097  -5.800  0.00  0.00    +0.163 HD
ATOM      6  H   UNL     1      -5.107 -15.866  -3.674  0.00  0.00    +0.159 HD
ATOM      7  H   UNL     1      -5.330 -15.276  -5.278  0.00  0.00    +0.159 HD
ATOM      8  H   UNL     1      -3.871 -12.856  -2.315  0.00  0.00    +0.159 HD
ATOM      9  H   UNL     1      -4.282 -14.496  -2.000  0.00  0.00    +0.159 HD
ENDROOT
BRANCH   1  10
ATOM     10  C   UNL     1      -4.073 -11.543  -4.512  0.00  0.00    +0.151 C 
BRANCH  10  11
ATOM     11  C   UNL     1      -4.373 -10.641  -5.678  0.00  0.00    -0.028 A 
ATOM     12  C   UNL     1      -3.704  -9.416  -5.822  0.00  0.00    +0.005 A 
ATOM     13  C   UNL     1      -5.321 -11.008  -6.645  0.00  0.00    +0.005 A 
ATOM     14  C   UNL     1      -3.961  -8.592  -6.920  0.00  0.00    +0.000 A 
ATOM     15  C   UNL     1      -5.575 -10.182  -7.740  0.00  0.00    +0.000 A 
ATOM     16  C   UNL     1      -4.893  -8.975  -7.878  0.00  0.00    +0.000 A 
ENDBRANCH  10  11
ENDBRANCH   1  10
TORSDOF 2
ENDMDL
MODEL 2
REMARK VINA RESULT:    -5.026      4.277      5.986
REMARK INTER + INTRA:          -5.736
REMARK INTER:                  -5.593
REMARK INTRA:                  -0.143
REMARK UNBOUND:                -0.122
REMARK  Name = 1550473
REMARK  2 active torsions:
REMARK  status: ('A' for Active; 'I' for Inactive)
REMARK    1  A    between atoms: N_1  and  C_4
REMARK    2  A    between atoms: C_4  and  C_5
REMARK                            x       y       z     vdW  Elec       q    Type
REMARK                         _______ _______ _______ _____ _____    ______ ____
ROOT
ATOM      1  N   UNL     1      -6.758  -8.182  -8.700  0.00  0.00    -0.354 N 
ATOM      2  N   UNL     1      -7.143  -6.191  -9.818  0.00  0.00    -0.372 N 
ATOM      3  N   UNL     1      -6.195  -7.939 -10.962  0.00  0.00    -0.372 N 
ATOM      4  C   UNL     1      -6.695  -7.452  -9.821  0.00  0.00    +0.166 C 
ATOM      5  H   UNL     1      -7.121  -7.745  -7.861  0.00  0.00    +0.163 HD
ATOM      6  H   UNL     1      -7.111  -5.616 -10.650  0.00  0.00    +0.159 HD
ATOM      7  H   UNL     1      -7.547  -5.771  -8.990  0.00  0.00    +0.159 HD
ATOM      8  H   UNL     1      -5.834  -8.882 -11.029  0.00  0.00    +0.159 HD
ATOM      9  H   UNL     1      -6.143  -7.376 -11.801  0.00  0.00    +0.159 HD
ENDROOT
BRANCH   1  10
ATOM     10  C   UNL     1      -6.346  -9.582  -8.612  0.00  0.00    +0.151 C 
BRANCH  10  11
ATOM     11  C   UNL     1      -5.436  -9.752  -7.427  0.00  0.00    -0.028 A 
ATOM     12  C   UNL     1      -4.315  -8.926  -7.266  0.00  0.00    +0.005 A 
ATOM     13  C   UNL     1      -5.694 -10.735  -6.458  0.00  0.00    +0.005 A 
ATOM     14  C   UNL     1      -3.486  -9.064  -6.150  0.00  0.00    +0.000 A 
ATOM     15  C   UNL     1      -4.863 -10.870  -5.346  0.00  0.00    +0.000 A 
ATOM     16  C   UNL     1      -3.761 -10.033  -5.190  0.00  0.00    +0.000 A 
ENDBRANCH  10  11
ENDBRANCH   1  10
TORSDOF 2
ENDMDL
MODEL 3
REMARK VINA RESULT:    -4.955      2.874      4.072
REMARK INTER + INTRA:          -5.656
REMARK INTER:                  -5.498
REMARK INTRA:                  -0.158
REMARK UNBOUND:                -0.122
REMARK  Name = 1550473
REMARK  2 active torsions:
REMARK  status: ('A' for Active; 'I' for Inactive)
REMARK    1  A    between atoms: N_1  and  C_4
REMARK    2  A    between atoms: C_4  and  C_5
REMARK                            x       y       z     vdW  Elec       q    Type
REMARK                         _______ _______ _______ _____ _____    ______ ____
ROOT
ATOM      1  N   UNL     1      -6.345 -12.812  -7.868  0.00  0.00    -0.354 N 
ATOM      2  N   UNL     1      -6.004 -14.080  -9.776  0.00  0.00    -0.372 N 
ATOM      3  N   UNL     1      -7.267 -12.170  -9.925  0.00  0.00    -0.372 N 
ATOM      4  C   UNL     1      -6.543 -13.011  -9.178  0.00  0.00    +0.166 C 
ATOM      5  H   UNL     1      -5.811 -13.502  -7.352  0.00  0.00    +0.163 HD
ATOM      6  H   UNL     1      -6.134 -14.255 -10.763  0.00  0.00    +0.159 HD
ATOM      7  H   UNL     1      -5.433 -14.744  -9.267  0.00  0.00    +0.159 HD
ATOM      8  H   UNL     1      -7.706 -11.348  -9.533  0.00  0.00    +0.159 HD
ATOM      9  H   UNL     1      -7.418 -12.334 -10.912  0.00  0.00    +0.159 HD
ENDROOT
BRANCH   1  10
ATOM     10  C   UNL     1      -6.842 -11.650  -7.133  0.00  0.00    +0.151 C 
BRANCH  10  11
ATOM     11  C   UNL     1      -5.674 -10.828  -6.665  0.00  0.00    -0.028 A 
ATOM     12  C   UNL     1      -4.983 -11.174  -5.494  0.00  0.00    +0.005 A 
ATOM     13  C   UNL     1      -5.248  -9.704  -7.391  0.00  0.00    +0.005 A 
ATOM     14  C   UNL     1      -3.879 -10.427  -5.075  0.00  0.00    +0.000 A 
ATOM     15  C   UNL     1      -4.146  -8.962  -6.969  0.00  0.00    +0.000 A 
ATOM     16  C   UNL     1      -3.460  -9.325  -5.812  0.00  0.00    +0.000 A 
ENDBRANCH  10  11
ENDBRANCH   1  10
TORSDOF 2
ENDMDL
MODEL 4
REMARK VINA RESULT:    -4.834     18.774     19.866
REMARK INTER + INTRA:          -5.522
REMARK INTER:                  -5.404
REMARK INTRA:                  -0.117
REMARK UNBOUND:                -0.122
REMARK  Name = 1550473
REMARK  2 active torsions:
REMARK  status: ('A' for Active; 'I' for Inactive)
REMARK    1  A    between atoms: N_1  and  C_4
REMARK    2  A    between atoms: C_4  and  C_5
REMARK                            x       y       z     vdW  Elec       q    Type
REMARK                         _______ _______ _______ _____ _____    ______ ____
ROOT
ATOM      1  N   UNL     1       1.358   6.981 -11.383  0.00  0.00    -0.354 N 
ATOM      2  N   UNL     1       3.210   6.087 -12.448  0.00  0.00    -0.372 N 
ATOM      3  N   UNL     1       3.432   6.858 -10.298  0.00  0.00    -0.372 N 
ATOM      4  C   UNL     1       2.656   6.649 -11.367  0.00  0.00    +0.166 C 
ATOM      5  H   UNL     1       0.831   6.824 -12.234  0.00  0.00    +0.163 HD
ATOM      6  H   UNL     1       4.186   5.823 -12.464  0.00  0.00    +0.159 HD
ATOM      7  H   UNL     1       2.670   5.889 -13.282  0.00  0.00    +0.159 HD
ATOM      8  H   UNL     1       3.076   7.283  -9.453  0.00  0.00    +0.159 HD
ATOM      9  H   UNL     1       4.413   6.611 -10.299  0.00  0.00    +0.159 HD
ENDROOT
BRANCH   1  10
ATOM     10  C   UNL     1       0.645   7.548 -10.239  0.00  0.00    +0.151 C 
BRANCH  10  11
ATOM     11  C   UNL     1      -0.810   7.182 -10.337  0.00  0.00    -0.028 A 
ATOM     12  C   UNL     1      -1.800   8.172 -10.263  0.00  0.00    +0.005 A 
ATOM     13  C   UNL     1      -1.205   5.846 -10.509  0.00  0.00    +0.005 A 
ATOM     14  C   UNL     1      -3.151   7.836 -10.384  0.00  0.00    +0.000 A 
ATOM     15  C   UNL     1      -2.555   5.514 -10.628  0.00  0.00    +0.000 A 
ATOM     16  C   UNL     1      -3.527   6.510 -10.568  0.00  0.00    +0.000 A 
ENDBRANCH  10  11
ENDBRANCH   1  10
TORSDOF 2
ENDMDL
MODEL 5
REMARK VINA RESULT:    -4.785      3.498      5.488
REMARK INTER + INTRA:          -5.466
REMARK INTER:                  -5.364
REMARK INTRA:                  -0.102
REMARK UNBOUND:                -0.122
REMARK  Name = 1550473
REMARK  2 active torsions:
REMARK  status: ('A' for Active; 'I' for Inactive)
REMARK    1  A    between atoms: N_1  and  C_4
REMARK    2  A    between atoms: C_4  and  C_5
REMARK                            x       y       z     vdW  Elec       q    Type
REMARK                         _______ _______ _______ _____ _____    ______ ____
ROOT
ATOM      1  N   UNL     1      -6.032  -9.099  -7.737  0.00  0.00    -0.354 N 
ATOM      2  N   UNL     1      -7.872  -8.120  -8.747  0.00  0.00    -0.372 N 
ATOM      3  N   UNL     1      -5.963  -8.430  -9.982  0.00  0.00    -0.372 N 
ATOM      4  C   UNL     1      -6.609  -8.556  -8.817  0.00  0.00    +0.166 C 
ATOM      5  H   UNL     1      -6.565  -9.138  -6.875  0.00  0.00    +0.163 HD
ATOM      6  H   UNL     1      -8.335  -7.710  -9.547  0.00  0.00    +0.159 HD
ATOM      7  H   UNL     1      -8.418  -8.203  -7.898  0.00  0.00    +0.159 HD
ATOM      8  H   UNL     1      -5.006  -8.734 -10.099  0.00  0.00    +0.159 HD
ATOM      9  H   UNL     1      -6.405  -8.011 -10.790  0.00  0.00    +0.159 HD
ENDROOT
BRANCH   1  10
ATOM     10  C   UNL     1      -4.679  -9.653  -7.723  0.00  0.00    +0.151 C 
BRANCH  10  11
ATOM     11  C   UNL     1      -4.553 -10.612  -6.571  0.00  0.00    -0.028 A 
ATOM     12  C   UNL     1      -5.188 -11.862  -6.613  0.00  0.00    +0.005 A 
ATOM     13  C   UNL     1      -3.796 -10.279  -5.438  0.00  0.00    +0.005 A 
ATOM     14  C   UNL     1      -5.047 -12.765  -5.557  0.00  0.00    +0.000 A 
ATOM     15  C   UNL     1      -3.657 -11.184  -4.385  0.00  0.00    +0.000 A 
ATOM     16  C   UNL     1      -4.281 -12.427  -4.446  0.00  0.00    +0.000 A 
ENDBRANCH  10  11
ENDBRANCH   1  10
TORSDOF 2
ENDMDL
MODEL 6
REMARK VINA RESULT:    -4.747     25.211     26.432
REMARK INTER + INTRA:          -5.424
REMARK INTER:                  -5.309
REMARK INTRA:                  -0.115
REMARK UNBOUND:                -0.122
REMARK  Name = 1550473
REMARK  2 active torsions:
REMARK  status: ('A' for Active; 'I' for Inactive)
REMARK    1  A    between atoms: N_1  and  C_4
REMARK    2  A    between atoms: C_4  and  C_5
REMARK                            x       y       z     vdW  Elec       q    Type
REMARK                         _______ _______ _______ _____ _____    ______ ____
ROOT
ATOM      1  N   UNL     1       9.746   5.139   8.857  0.00  0.00    -0.354 N 
ATOM      2  N   UNL     1      10.121   4.068  10.876  0.00  0.00    -0.372 N 
ATOM      3  N   UNL     1       9.376   2.836   9.089  0.00  0.00    -0.372 N 
ATOM      4  C   UNL     1       9.744   4.019   9.592  0.00  0.00    +0.166 C 
ATOM      5  H   UNL     1      10.007   6.009   9.306  0.00  0.00    +0.163 HD
ATOM      6  H   UNL     1      10.133   3.239  11.455  0.00  0.00    +0.159 HD
ATOM      7  H   UNL     1      10.425   4.931  11.310  0.00  0.00    +0.159 HD
ATOM      8  H   UNL     1       9.076   2.733   8.129  0.00  0.00    +0.159 HD
ATOM      9  H   UNL     1       9.370   1.998   9.656  0.00  0.00    +0.159 HD
ENDROOT
BRANCH   1  10
ATOM     10  C   UNL     1       9.406   5.184   7.436  0.00  0.00    +0.151 C 
BRANCH  10  11
ATOM     11  C   UNL     1       9.931   6.463   6.845  0.00  0.00    -0.028 A 
ATOM     12  C   UNL     1       9.982   7.635   7.615  0.00  0.00    +0.005 A 
ATOM     13  C   UNL     1      10.386   6.509   5.518  0.00  0.00    +0.005 A 
ATOM     14  C   UNL     1      10.498   8.816   7.076  0.00  0.00    +0.000 A 
ATOM     15  C   UNL     1      10.899   7.691   4.984  0.00  0.00    +0.000 A 
ATOM     16  C   UNL     1      10.957   8.843   5.764  0.00  0.00    +0.000 A 
ENDBRANCH  10  11
ENDBRANCH   1  10
TORSDOF 2
ENDMDL
MODEL 7
REMARK VINA RESULT:    -4.650      8.354     10.307
REMARK INTER + INTRA:          -5.316
REMARK INTER:                  -5.198
REMARK INTRA:                  -0.117
REMARK UNBOUND:                -0.122
REMARK  Name = 1550473
REMARK  2 active torsions:
REMARK  status: ('A' for Active; 'I' for Inactive)
REMARK    1  A    between atoms: N_1  and  C_4
REMARK    2  A    between atoms: C_4  and  C_5
REMARK                            x       y       z     vdW  Elec       q    Type
REMARK                         _______ _______ _______ _____ _____    ______ ____
ROOT
ATOM      1  N   UNL     1      -6.936  -6.171 -12.036  0.00  0.00    -0.354 N 
ATOM      2  N   UNL     1      -6.206  -7.992 -10.805  0.00  0.00    -0.372 N 
ATOM      3  N   UNL     1      -7.243  -8.358 -12.819  0.00  0.00    -0.372 N 
ATOM      4  C   UNL     1      -6.801  -7.497 -11.897  0.00  0.00    +0.166 C 
ATOM      5  H   UNL     1      -6.606  -5.573 -11.287  0.00  0.00    +0.163 HD
ATOM      6  H   UNL     1      -6.087  -8.988 -10.674  0.00  0.00    +0.159 HD
ATOM      7  H   UNL     1      -5.837  -7.390 -10.080  0.00  0.00    +0.159 HD
ATOM      8  H   UNL     1      -7.706  -8.048 -13.663  0.00  0.00    +0.159 HD
ATOM      9  H   UNL     1      -7.144  -9.358 -12.701  0.00  0.00    +0.159 HD
ENDROOT
BRANCH   1  10
ATOM     10  C   UNL     1      -7.520  -5.527 -13.211  0.00  0.00    +0.151 C 
BRANCH  10  11
ATOM     11  C   UNL     1      -7.490  -4.036 -13.019  0.00  0.00    -0.028 A 
ATOM     12  C   UNL     1      -7.480  -3.176 -14.127  0.00  0.00    +0.005 A 
ATOM     13  C   UNL     1      -7.478  -3.476 -11.732  0.00  0.00    +0.005 A 
ATOM     14  C   UNL     1      -7.483  -1.790 -13.950  0.00  0.00    +0.000 A 
ATOM     15  C   UNL     1      -7.480  -2.092 -11.560  0.00  0.00    +0.000 A 
ATOM     16  C   UNL     1      -7.485  -1.249 -12.668  0.00  0.00    +0.000 A 
ENDBRANCH  10  11
ENDBRANCH   1  10
TORSDOF 2
ENDMDL
MODEL 8
REMARK VINA RESULT:    -4.631     17.369     18.247
REMARK INTER + INTRA:          -5.295
REMARK INTER:                  -5.173
REMARK INTRA:                  -0.122
REMARK UNBOUND:                -0.122
REMARK  Name = 1550473
REMARK  2 active torsions:
REMARK  status: ('A' for Active; 'I' for Inactive)
REMARK    1  A    between atoms: N_1  and  C_4
REMARK    2  A    between atoms: C_4  and  C_5
REMARK                            x       y       z     vdW  Elec       q    Type
REMARK                         _______ _______ _______ _____ _____    ______ ____
ROOT
ATOM      1  N   UNL     1      -4.973  -6.380 -22.549  0.00  0.00    -0.354 N 
ATOM      2  N   UNL     1      -6.693  -7.904 -22.257  0.00  0.00    -0.372 N 
ATOM      3  N   UNL     1      -4.530  -8.670 -22.317  0.00  0.00    -0.372 N 
ATOM      4  C   UNL     1      -5.385  -7.643 -22.376  0.00  0.00    +0.166 C 
ATOM      5  H   UNL     1      -5.673  -5.650 -22.615  0.00  0.00    +0.163 HD
ATOM      6  H   UNL     1      -7.033  -8.847 -22.122  0.00  0.00    +0.159 HD
ATOM      7  H   UNL     1      -7.387  -7.167 -22.278  0.00  0.00    +0.159 HD
ATOM      8  H   UNL     1      -3.531  -8.541 -22.407  0.00  0.00    +0.159 HD
ATOM      9  H   UNL     1      -4.853  -9.622 -22.195  0.00  0.00    +0.159 HD
ENDROOT
BRANCH   1  10
ATOM     10  C   UNL     1      -3.569  -5.983 -22.636  0.00  0.00    +0.151 C 
BRANCH  10  11
ATOM     11  C   UNL     1      -3.477  -4.484 -22.567  0.00  0.00    -0.028 A 
ATOM     12  C   UNL     1      -2.321  -3.820 -23.004  0.00  0.00    +0.005 A 
ATOM     13  C   UNL     1      -4.545  -3.720 -22.071  0.00  0.00    +0.005 A 
ATOM     14  C   UNL     1      -2.247  -2.426 -22.968  0.00  0.00    +0.000 A 
ATOM     15  C   UNL     1      -4.467  -2.328 -22.036  0.00  0.00    +0.000 A 
ATOM     16  C   UNL     1      -3.319  -1.681 -22.487  0.00  0.00    +0.000 A 
ENDBRANCH  10  11
ENDBRANCH   1  10
TORSDOF 2
ENDMDL
MODEL 9
REMARK VINA RESULT:    -4.580     18.365     19.315
REMARK INTER + INTRA:          -5.238
REMARK INTER:                  -5.113
REMARK INTRA:                  -0.125
REMARK UNBOUND:                -0.122
REMARK  Name = 1550473
REMARK  2 active torsions:
REMARK  status: ('A' for Active; 'I' for Inactive)
REMARK    1  A    between atoms: N_1  and  C_4
REMARK    2  A    between atoms: C_4  and  C_5
REMARK                            x       y       z     vdW  Elec       q    Type
REMARK                         _______ _______ _______ _____ _____    ______ ____
ROOT
ATOM      1  N   UNL     1      -4.128  -2.998 -23.718  0.00  0.00    -0.354 N 
ATOM      2  N   UNL     1      -2.323  -1.586 -24.049  0.00  0.00    -0.372 N 
ATOM      3  N   UNL     1      -3.411  -1.540 -22.030  0.00  0.00    -0.372 N 
ATOM      4  C   UNL     1      -3.300  -2.050 -23.261  0.00  0.00    +0.166 C 
ATOM      5  H   UNL     1      -4.010  -3.322 -24.671  0.00  0.00    +0.163 HD
ATOM      6  H   UNL     1      -1.681  -0.872 -23.731  0.00  0.00    +0.159 HD
ATOM      7  H   UNL     1      -2.179  -1.944 -24.986  0.00  0.00    +0.159 HD
ATOM      8  H   UNL     1      -4.131  -1.843 -21.387  0.00  0.00    +0.159 HD
ATOM      9  H   UNL     1      -2.785  -0.817 -21.697  0.00  0.00    +0.159 HD
ENDROOT
BRANCH   1  10
ATOM     10  C   UNL     1      -5.191  -3.610 -22.921  0.00  0.00    +0.151 C 
BRANCH  10  11
ATOM     11  C   UNL     1      -4.924  -5.084 -22.795  0.00  0.00    -0.028 A 
ATOM     12  C   UNL     1      -5.966  -6.011 -22.942  0.00  0.00    +0.005 A 
ATOM     13  C   UNL     1      -3.630  -5.561 -22.535  0.00  0.00    +0.005 A 
ATOM     14  C   UNL     1      -5.714  -7.382 -22.856  0.00  0.00    +0.000 A 
ATOM     15  C   UNL     1      -3.382  -6.931 -22.448  0.00  0.00    +0.000 A 
ATOM     16  C   UNL     1      -4.424  -7.841 -22.611  0.00  0.00    +0.000 A 
ENDBRANCH  10  11
ENDBRANCH   1  10
TORSDOF 2
ENDMDL
