MODEL 1
REMARK VINA RESULT:    -6.042      0.000      0.000
REMARK INTER + INTRA:          -6.840
REMARK INTER:                  -6.749
REMARK INTRA:                  -0.091
REMARK UNBOUND:                -0.091
REMARK  Name = 1550473
REMARK  2 active torsions:
REMARK  status: ('A' for Active; 'I' for Inactive)
REMARK    1  A    between atoms: N_1  and  C_4
REMARK    2  A    between atoms: C_4  and  C_5
REMARK                            x       y       z     vdW  Elec       q    Type
REMARK                         _______ _______ _______ _____ _____    ______ ____
ROOT
ATOM      1  N   UNL     1     -16.073  -3.052  -9.669  0.00  0.00    -0.354 N 
ATOM      2  N   UNL     1     -14.548  -1.517 -10.494  0.00  0.00    -0.372 N 
ATOM      3  N   UNL     1     -14.127  -2.523  -8.475  0.00  0.00    -0.372 N 
ATOM      4  C   UNL     1     -14.925  -2.375  -9.538  0.00  0.00    +0.166 C 
ATOM      5  H   UNL     1     -16.648  -2.873 -10.484  0.00  0.00    +0.163 HD
ATOM      6  H   UNL     1     -13.685  -0.995 -10.425  0.00  0.00    +0.159 HD
ATOM      7  H   UNL     1     -15.101  -1.374 -11.330  0.00  0.00    +0.159 HD
ATOM      8  H   UNL     1     -14.357  -3.149  -7.716  0.00  0.00    +0.159 HD
ATOM      9  H   UNL     1     -13.265  -1.999  -8.382  0.00  0.00    +0.159 HD
ENDROOT
BRANCH   1  10
ATOM     10  C   UNL     1     -16.548  -4.049  -8.710  0.00  0.00    +0.151 C 
BRANCH  10  11
ATOM     11  C   UNL     1     -17.706  -4.795  -9.312  0.00  0.00    -0.028 A 
ATOM     12  C   UNL     1     -17.500  -6.012  -9.978  0.00  0.00    +0.005 A 
ATOM     13  C   UNL     1     -19.013  -4.294  -9.214  0.00  0.00    +0.005 A 
ATOM     14  C   UNL     1     -18.580  -6.721 -10.510  0.00  0.00    +0.000 A 
ATOM     15  C   UNL     1     -20.088  -5.004  -9.748  0.00  0.00    +0.000 A 
ATOM     16  C   UNL     1     -19.872  -6.219 -10.394  0.00  0.00    +0.000 A 
ENDBRANCH  10  11
ENDBRANCH   1  10
TORSDOF 2
ENDMDL
MODEL 2
REMARK VINA RESULT:    -5.535     24.501     25.345
REMARK INTER + INTRA:          -6.273
REMARK INTER:                  -6.127
REMARK INTRA:                  -0.146
REMARK UNBOUND:                -0.091
REMARK  Name = 1550473
REMARK  2 active torsions:
REMARK  status: ('A' for Active; 'I' for Inactive)
REMARK    1  A    between atoms: N_1  and  C_4
REMARK    2  A    between atoms: C_4  and  C_5
REMARK                            x       y       z     vdW  Elec       q    Type
REMARK                         _______ _______ _______ _____ _____    ______ ____
ROOT
ATOM      1  N   UNL     1       7.239  -2.245 -18.462  0.00  0.00    -0.354 N 
ATOM      2  N   UNL     1       7.676  -0.688 -16.804  0.00  0.00    -0.372 N 
ATOM      3  N   UNL     1       5.642  -0.636 -17.866  0.00  0.00    -0.372 N 
ATOM      4  C   UNL     1       6.847  -1.199 -17.722  0.00  0.00    +0.166 C 
ATOM      5  H   UNL     1       8.176  -2.607 -18.326  0.00  0.00    +0.163 HD
ATOM      6  H   UNL     1       7.406   0.099 -16.228  0.00  0.00    +0.159 HD
ATOM      7  H   UNL     1       8.594  -1.081 -16.638  0.00  0.00    +0.159 HD
ATOM      8  H   UNL     1       4.972  -0.971 -18.546  0.00  0.00    +0.159 HD
ATOM      9  H   UNL     1       5.359   0.159 -17.307  0.00  0.00    +0.159 HD
ENDROOT
BRANCH   1  10
ATOM     10  C   UNL     1       6.392  -2.909 -19.452  0.00  0.00    +0.151 C 
BRANCH  10  11
ATOM     11  C   UNL     1       6.300  -4.372 -19.116  0.00  0.00    -0.028 A 
ATOM     12  C   UNL     1       7.227  -4.963 -18.245  0.00  0.00    +0.005 A 
ATOM     13  C   UNL     1       5.284  -5.172 -19.660  0.00  0.00    +0.005 A 
ATOM     14  C   UNL     1       7.124  -6.315 -17.909  0.00  0.00    +0.000 A 
ATOM     15  C   UNL     1       5.184  -6.522 -19.323  0.00  0.00    +0.000 A 
ATOM     16  C   UNL     1       6.103  -7.092 -18.446  0.00  0.00    +0.000 A 
ENDBRANCH  10  11
ENDBRANCH   1  10
TORSDOF 2
ENDMDL
MODEL 3
REMARK VINA RESULT:    -5.484     20.891     22.312
REMARK INTER + INTRA:          -6.216
REMARK INTER:                  -6.062
REMARK INTRA:                  -0.154
REMARK UNBOUND:                -0.091
REMARK  Name = 1550473
REMARK  2 active torsions:
REMARK  status: ('A' for Active; 'I' for Inactive)
REMARK    1  A    between atoms: N_1  and  C_4
REMARK    2  A    between atoms: C_4  and  C_5
REMARK                            x       y       z     vdW  Elec       q    Type
REMARK                         _______ _______ _______ _____ _____    ______ ____
ROOT
ATOM      1  N   UNL     1       1.614 -12.331 -12.802  0.00  0.00    -0.354 N 
ATOM      2  N   UNL     1       1.087 -10.402 -11.633  0.00  0.00    -0.372 N 
ATOM      3  N   UNL     1       3.113 -11.409 -11.254  0.00  0.00    -0.372 N 
ATOM      4  C   UNL     1       1.944 -11.394 -11.903  0.00  0.00    +0.166 C 
ATOM      5  H   UNL     1       0.700 -12.279 -13.237  0.00  0.00    +0.163 HD
ATOM      6  H   UNL     1       1.310  -9.679 -10.962  0.00  0.00    +0.159 HD
ATOM      7  H   UNL     1       0.193 -10.328 -12.103  0.00  0.00    +0.159 HD
ATOM      8  H   UNL     1       3.802 -12.134 -11.408  0.00  0.00    +0.159 HD
ATOM      9  H   UNL     1       3.350 -10.701 -10.570  0.00  0.00    +0.159 HD
ENDROOT
BRANCH   1  10
ATOM     10  C   UNL     1       2.498 -13.422 -13.207  0.00  0.00    +0.151 C 
BRANCH  10  11
ATOM     11  C   UNL     1       2.931 -13.202 -14.630  0.00  0.00    -0.028 A 
ATOM     12  C   UNL     1       4.288 -13.256 -14.978  0.00  0.00    +0.005 A 
ATOM     13  C   UNL     1       1.988 -12.943 -15.637  0.00  0.00    +0.005 A 
ATOM     14  C   UNL     1       4.689 -13.081 -16.305  0.00  0.00    +0.000 A 
ATOM     15  C   UNL     1       2.391 -12.768 -16.960  0.00  0.00    +0.000 A 
ATOM     16  C   UNL     1       3.741 -12.839 -17.294  0.00  0.00    +0.000 A 
ENDBRANCH  10  11
ENDBRANCH   1  10
TORSDOF 2
ENDMDL
MODEL 4
REMARK VINA RESULT:    -5.194     24.902     26.071
REMARK INTER + INTRA:          -5.893
REMARK INTER:                  -5.756
REMARK INTRA:                  -0.136
REMARK UNBOUND:                -0.091
REMARK  Name = 1550473
REMARK  2 active torsions:
REMARK  status: ('A' for Active; 'I' for Inactive)
REMARK    1  A    between atoms: N_1  and  C_4
REMARK    2  A    between atoms: C_4  and  C_5
REMARK                            x       y       z     vdW  Elec       q    Type
REMARK                         _______ _______ _______ _____ _____    ______ ____
ROOT
ATOM      1  N   UNL     1       5.863 -10.753 -18.911  0.00  0.00    -0.354 N 
ATOM      2  N   UNL     1       4.499 -12.373 -17.973  0.00  0.00    -0.372 N 
ATOM      3  N   UNL     1       6.736 -12.376 -17.464  0.00  0.00    -0.372 N 
ATOM      4  C   UNL     1       5.711 -11.824 -18.121  0.00  0.00    +0.166 C 
ATOM      5  H   UNL     1       5.051 -10.401 -19.406  0.00  0.00    +0.163 HD
ATOM      6  H   UNL     1       4.353 -13.179 -17.380  0.00  0.00    +0.159 HD
ATOM      7  H   UNL     1       3.681 -11.990 -18.432  0.00  0.00    +0.159 HD
ATOM      8  H   UNL     1       7.677 -12.014 -17.539  0.00  0.00    +0.159 HD
ATOM      9  H   UNL     1       6.612 -13.191 -16.876  0.00  0.00    +0.159 HD
ENDROOT
BRANCH   1  10
ATOM     10  C   UNL     1       7.130 -10.048 -19.099  0.00  0.00    +0.151 C 
BRANCH  10  11
ATOM     11  C   UNL     1       6.928  -8.588 -18.800  0.00  0.00    -0.028 A 
ATOM     12  C   UNL     1       7.964  -7.827 -18.238  0.00  0.00    +0.005 A 
ATOM     13  C   UNL     1       5.706  -7.959 -19.081  0.00  0.00    +0.005 A 
ATOM     14  C   UNL     1       7.787  -6.464 -17.988  0.00  0.00    +0.000 A 
ATOM     15  C   UNL     1       5.534  -6.598 -18.829  0.00  0.00    +0.000 A 
ATOM     16  C   UNL     1       6.575  -5.850 -18.285  0.00  0.00    +0.000 A 
ENDBRANCH  10  11
ENDBRANCH   1  10
TORSDOF 2
ENDMDL
MODEL 5
REMARK VINA RESULT:    -5.126      1.196      2.119
REMARK INTER + INTRA:          -5.816
REMARK INTER:                  -5.709
REMARK INTRA:                  -0.107
REMARK UNBOUND:                -0.091
REMARK  Name = 1550473
REMARK  2 active torsions:
REMARK  status: ('A' for Active; 'I' for Inactive)
REMARK    1  A    between atoms: N_1  and  C_4
REMARK    2  A    between atoms: C_4  and  C_5
REMARK                            x       y       z     vdW  Elec       q    Type
REMARK                         _______ _______ _______ _____ _____    ______ ____
ROOT
ATOM      1  N   UNL     1     -16.987  -3.919  -9.542  0.00  0.00    -0.354 N 
ATOM      2  N   UNL     1     -15.321  -2.387 -10.034  0.00  0.00    -0.372 N 
ATOM      3  N   UNL     1     -15.243  -3.506  -8.032  0.00  0.00    -0.372 N 
ATOM      4  C   UNL     1     -15.860  -3.281  -9.197  0.00  0.00    +0.166 C 
ATOM      5  H   UNL     1     -17.423  -3.682 -10.426  0.00  0.00    +0.163 HD
ATOM      6  H   UNL     1     -14.469  -1.893  -9.803  0.00  0.00    +0.159 HD
ATOM      7  H   UNL     1     -15.733  -2.186 -10.937  0.00  0.00    +0.159 HD
ATOM      8  H   UNL     1     -15.602  -4.164  -7.354  0.00  0.00    +0.159 HD
ATOM      9  H   UNL     1     -14.396  -3.013  -7.777  0.00  0.00    +0.159 HD
ENDROOT
BRANCH   1  10
ATOM     10  C   UNL     1     -17.626  -4.949  -8.725  0.00  0.00    +0.151 C 
BRANCH  10  11
ATOM     11  C   UNL     1     -18.135  -6.042  -9.624  0.00  0.00    -0.028 A 
ATOM     12  C   UNL     1     -19.367  -5.907 -10.282  0.00  0.00    +0.005 A 
ATOM     13  C   UNL     1     -17.389  -7.213  -9.827  0.00  0.00    +0.005 A 
ATOM     14  C   UNL     1     -19.826  -6.909 -11.141  0.00  0.00    +0.000 A 
ATOM     15  C   UNL     1     -17.852  -8.211 -10.684  0.00  0.00    +0.000 A 
ATOM     16  C   UNL     1     -19.069  -8.058 -11.343  0.00  0.00    +0.000 A 
ENDBRANCH  10  11
ENDBRANCH   1  10
TORSDOF 2
ENDMDL
MODEL 6
REMARK VINA RESULT:    -5.113     24.519     25.352
REMARK INTER + INTRA:          -5.801
REMARK INTER:                  -5.658
REMARK INTRA:                  -0.144
REMARK UNBOUND:                -0.091
REMARK  Name = 1550473
REMARK  2 active torsions:
REMARK  status: ('A' for Active; 'I' for Inactive)
REMARK    1  A    between atoms: N_1  and  C_4
REMARK    2  A    between atoms: C_4  and  C_5
REMARK                            x       y       z     vdW  Elec       q    Type
REMARK                         _______ _______ _______ _____ _____    ______ ____
ROOT
ATOM      1  N   UNL     1       5.512  -2.404 -19.245  0.00  0.00    -0.354 N 
ATOM      2  N   UNL     1       6.195  -0.256 -18.711  0.00  0.00    -0.372 N 
ATOM      3  N   UNL     1       6.813  -1.146 -20.734  0.00  0.00    -0.372 N 
ATOM      4  C   UNL     1       6.171  -1.283 -19.569  0.00  0.00    +0.166 C 
ATOM      5  H   UNL     1       5.070  -2.456 -18.334  0.00  0.00    +0.163 HD
ATOM      6  H   UNL     1       6.681   0.603 -18.929  0.00  0.00    +0.159 HD
ATOM      7  H   UNL     1       5.714  -0.294 -17.821  0.00  0.00    +0.159 HD
ATOM      8  H   UNL     1       6.838  -1.886 -21.422  0.00  0.00    +0.159 HD
ATOM      9  H   UNL     1       7.315  -0.298 -20.966  0.00  0.00    +0.159 HD
ENDROOT
BRANCH   1  10
ATOM     10  C   UNL     1       5.379  -3.559 -20.130  0.00  0.00    +0.151 C 
BRANCH  10  11
ATOM     11  C   UNL     1       5.830  -4.793 -19.399  0.00  0.00    -0.028 A 
ATOM     12  C   UNL     1       5.061  -5.966 -19.439  0.00  0.00    +0.005 A 
ATOM     13  C   UNL     1       7.029  -4.799 -18.669  0.00  0.00    +0.005 A 
ATOM     14  C   UNL     1       5.494  -7.121 -18.784  0.00  0.00    +0.000 A 
ATOM     15  C   UNL     1       7.457  -5.954 -18.016  0.00  0.00    +0.000 A 
ATOM     16  C   UNL     1       6.691  -7.116 -18.076  0.00  0.00    +0.000 A 
ENDBRANCH  10  11
ENDBRANCH   1  10
TORSDOF 2
ENDMDL
MODEL 7
REMARK VINA RESULT:    -5.075     23.131     24.483
REMARK INTER + INTRA:          -5.759
REMARK INTER:                  -5.657
REMARK INTRA:                  -0.102
REMARK UNBOUND:                -0.091
REMARK  Name = 1550473
REMARK  2 active torsions:
REMARK  status: ('A' for Active; 'I' for Inactive)
REMARK    1  A    between atoms: N_1  and  C_4
REMARK    2  A    between atoms: C_4  and  C_5
REMARK                            x       y       z     vdW  Elec       q    Type
REMARK                         _______ _______ _______ _____ _____    ______ ____
ROOT
ATOM      1  N   UNL     1      -9.926 -10.293  10.952  0.00  0.00    -0.354 N 
ATOM      2  N   UNL     1     -11.127 -11.815   9.685  0.00  0.00    -0.372 N 
ATOM      3  N   UNL     1      -8.852 -11.693   9.410  0.00  0.00    -0.372 N 
ATOM      4  C   UNL     1      -9.958 -11.257  10.023  0.00  0.00    +0.166 C 
ATOM      5  H   UNL     1     -10.803  -9.986  11.358  0.00  0.00    +0.163 HD
ATOM      6  H   UNL     1     -11.182 -12.547   8.989  0.00  0.00    +0.159 HD
ATOM      7  H   UNL     1     -11.996 -11.538  10.125  0.00  0.00    +0.159 HD
ATOM      8  H   UNL     1      -7.940 -11.309   9.616  0.00  0.00    +0.159 HD
ATOM      9  H   UNL     1      -8.888 -12.417   8.703  0.00  0.00    +0.159 HD
ENDROOT
BRANCH   1  10
ATOM     10  C   UNL     1      -8.699  -9.659  11.431  0.00  0.00    +0.151 C 
BRANCH  10  11
ATOM     11  C   UNL     1      -8.895  -9.223  12.857  0.00  0.00    -0.028 A 
ATOM     12  C   UNL     1      -9.297  -7.912  13.151  0.00  0.00    +0.005 A 
ATOM     13  C   UNL     1      -8.686 -10.118  13.917  0.00  0.00    +0.005 A 
ATOM     14  C   UNL     1      -9.509  -7.515  14.474  0.00  0.00    +0.000 A 
ATOM     15  C   UNL     1      -8.898  -9.717  15.237  0.00  0.00    +0.000 A 
ATOM     16  C   UNL     1      -9.311  -8.417  15.514  0.00  0.00    +0.000 A 
ENDBRANCH  10  11
ENDBRANCH   1  10
TORSDOF 2
ENDMDL
MODEL 8
REMARK VINA RESULT:    -4.954      9.810     10.557
REMARK INTER + INTRA:          -5.624
REMARK INTER:                  -5.491
REMARK INTRA:                  -0.133
REMARK UNBOUND:                -0.091
REMARK  Name = 1550473
REMARK  2 active torsions:
REMARK  status: ('A' for Active; 'I' for Inactive)
REMARK    1  A    between atoms: N_1  and  C_4
REMARK    2  A    between atoms: C_4  and  C_5
REMARK                            x       y       z     vdW  Elec       q    Type
REMARK                         _______ _______ _______ _____ _____    ______ ____
ROOT
ATOM      1  N   UNL     1     -21.748 -10.977  -1.961  0.00  0.00    -0.354 N 
ATOM      2  N   UNL     1     -21.290 -11.581   0.228  0.00  0.00    -0.372 N 
ATOM      3  N   UNL     1     -19.542 -11.276  -1.227  0.00  0.00    -0.372 N 
ATOM      4  C   UNL     1     -20.860 -11.274  -1.002  0.00  0.00    +0.166 C 
ATOM      5  H   UNL     1     -22.734 -11.023  -1.734  0.00  0.00    +0.163 HD
ATOM      6  H   UNL     1     -20.644 -11.807   0.972  0.00  0.00    +0.159 HD
ATOM      7  H   UNL     1     -22.275 -11.582   0.463  0.00  0.00    +0.159 HD
ATOM      8  H   UNL     1     -19.153 -11.059  -2.135  0.00  0.00    +0.159 HD
ATOM      9  H   UNL     1     -18.880 -11.510  -0.498  0.00  0.00    +0.159 HD
ENDROOT
BRANCH   1  10
ATOM     10  C   UNL     1     -21.381 -10.577  -3.318  0.00  0.00    +0.151 C 
BRANCH  10  11
ATOM     11  C   UNL     1     -22.200  -9.379  -3.715  0.00  0.00    -0.028 A 
ATOM     12  C   UNL     1     -23.035  -9.429  -4.840  0.00  0.00    +0.005 A 
ATOM     13  C   UNL     1     -22.149  -8.194  -2.966  0.00  0.00    +0.005 A 
ATOM     14  C   UNL     1     -23.818  -8.326  -5.192  0.00  0.00    +0.000 A 
ATOM     15  C   UNL     1     -22.931  -7.095  -3.320  0.00  0.00    +0.000 A 
ATOM     16  C   UNL     1     -23.768  -7.163  -4.432  0.00  0.00    +0.000 A 
ENDBRANCH  10  11
ENDBRANCH   1  10
TORSDOF 2
ENDMDL
MODEL 9
REMARK VINA RESULT:    -4.840     35.492     36.876
REMARK INTER + INTRA:          -5.497
REMARK INTER:                  -5.376
REMARK INTRA:                  -0.121
REMARK UNBOUND:                -0.091
REMARK  Name = 1550473
REMARK  2 active torsions:
REMARK  status: ('A' for Active; 'I' for Inactive)
REMARK    1  A    between atoms: N_1  and  C_4
REMARK    2  A    between atoms: C_4  and  C_5
REMARK                            x       y       z     vdW  Elec       q    Type
REMARK                         _______ _______ _______ _____ _____    ______ ____
ROOT
ATOM      1  N   UNL     1       8.281  11.647  12.203  0.00  0.00    -0.354 N 
ATOM      2  N   UNL     1       8.383  11.800  14.512  0.00  0.00    -0.372 N 
ATOM      3  N   UNL     1       9.777  10.329  13.435  0.00  0.00    -0.372 N 
ATOM      4  C   UNL     1       8.815  11.256  13.368  0.00  0.00    +0.166 C 
ATOM      5  H   UNL     1       7.534  12.332  12.222  0.00  0.00    +0.163 HD
ATOM      6  H   UNL     1       8.769  11.527  15.405  0.00  0.00    +0.159 HD
ATOM      7  H   UNL     1       7.668  12.517  14.524  0.00  0.00    +0.159 HD
ATOM      8  H   UNL     1      10.143   9.876  12.608  0.00  0.00    +0.159 HD
ATOM      9  H   UNL     1      10.168  10.034  14.321  0.00  0.00    +0.159 HD
ENDROOT
BRANCH   1  10
ATOM     10  C   UNL     1       8.718  11.156  10.897  0.00  0.00    +0.151 C 
BRANCH  10  11
ATOM     11  C   UNL     1       8.454  12.214   9.861  0.00  0.00    -0.028 A 
ATOM     12  C   UNL     1       7.845  11.881   8.643  0.00  0.00    +0.005 A 
ATOM     13  C   UNL     1       8.806  13.553  10.094  0.00  0.00    +0.005 A 
ATOM     14  C   UNL     1       7.572  12.868   7.692  0.00  0.00    +0.000 A 
ATOM     15  C   UNL     1       8.532  14.535   9.143  0.00  0.00    +0.000 A 
ATOM     16  C   UNL     1       7.913  14.192   7.943  0.00  0.00    +0.000 A 
ENDBRANCH  10  11
ENDBRANCH   1  10
TORSDOF 2
ENDMDL
