MODEL 1
REMARK VINA RESULT:    -5.870      0.000      0.000
REMARK INTER + INTRA:          -6.736
REMARK INTER:                  -6.557
REMARK INTRA:                  -0.179
REMARK UNBOUND:                -0.179
REMARK  Name = 1550473
REMARK  2 active torsions:
REMARK  status: ('A' for Active; 'I' for Inactive)
REMARK    1  A    between atoms: N_1  and  C_4
REMARK    2  A    between atoms: C_4  and  C_5
REMARK                            x       y       z     vdW  Elec       q    Type
REMARK                         _______ _______ _______ _____ _____    ______ ____
ROOT
ATOM      1  N   UNL     1     -10.951 -16.252 -10.074  0.00  0.00    -0.354 N 
ATOM      2  N   UNL     1     -11.750 -14.080 -10.167  0.00  0.00    -0.372 N 
ATOM      3  N   UNL     1     -12.923 -15.642  -8.964  0.00  0.00    -0.372 N 
ATOM      4  C   UNL     1     -11.872 -15.340  -9.733  0.00  0.00    +0.166 C 
ATOM      5  H   UNL     1     -10.194 -15.967 -10.684  0.00  0.00    +0.163 HD
ATOM      6  H   UNL     1     -12.427 -13.370  -9.923  0.00  0.00    +0.159 HD
ATOM      7  H   UNL     1     -10.968 -13.787 -10.739  0.00  0.00    +0.159 HD
ATOM      8  H   UNL     1     -13.076 -16.577  -8.609  0.00  0.00    +0.159 HD
ATOM      9  H   UNL     1     -13.618 -14.948  -8.719  0.00  0.00    +0.159 HD
ENDROOT
BRANCH   1  10
ATOM     10  C   UNL     1     -10.963 -17.638  -9.610  0.00  0.00    +0.151 C 
BRANCH  10  11
ATOM     11  C   UNL     1     -11.527 -18.515 -10.694  0.00  0.00    -0.028 A 
ATOM     12  C   UNL     1     -10.732 -18.900 -11.783  0.00  0.00    +0.005 A 
ATOM     13  C   UNL     1     -12.853 -18.968 -10.634  0.00  0.00    +0.005 A 
ATOM     14  C   UNL     1     -11.246 -19.738 -12.775  0.00  0.00    +0.000 A 
ATOM     15  C   UNL     1     -13.363 -19.805 -11.626  0.00  0.00    +0.000 A 
ATOM     16  C   UNL     1     -12.559 -20.192 -12.696  0.00  0.00    +0.000 A 
ENDBRANCH  10  11
ENDBRANCH   1  10
TORSDOF 2
ENDMDL
MODEL 2
REMARK VINA RESULT:    -5.737     15.883     17.706
REMARK INTER + INTRA:          -6.587
REMARK INTER:                  -6.424
REMARK INTRA:                  -0.163
REMARK UNBOUND:                -0.179
REMARK  Name = 1550473
REMARK  2 active torsions:
REMARK  status: ('A' for Active; 'I' for Inactive)
REMARK    1  A    between atoms: N_1  and  C_4
REMARK    2  A    between atoms: C_4  and  C_5
REMARK                            x       y       z     vdW  Elec       q    Type
REMARK                         _______ _______ _______ _____ _____    ______ ____
ROOT
ATOM      1  N   UNL     1       0.515  -7.225 -13.161  0.00  0.00    -0.354 N 
ATOM      2  N   UNL     1       1.988  -8.979 -13.506  0.00  0.00    -0.372 N 
ATOM      3  N   UNL     1       0.372  -9.189 -11.890  0.00  0.00    -0.372 N 
ATOM      4  C   UNL     1       0.947  -8.454 -12.848  0.00  0.00    +0.166 C 
ATOM      5  H   UNL     1       1.013  -6.707 -13.876  0.00  0.00    +0.163 HD
ATOM      6  H   UNL     1       2.334  -9.905 -13.294  0.00  0.00    +0.159 HD
ATOM      7  H   UNL     1       2.455  -8.477 -14.251  0.00  0.00    +0.159 HD
ATOM      8  H   UNL     1      -0.414  -8.848 -11.353  0.00  0.00    +0.159 HD
ATOM      9  H   UNL     1       0.712 -10.113 -11.656  0.00  0.00    +0.159 HD
ENDROOT
BRANCH   1  10
ATOM     10  C   UNL     1      -0.644  -6.584 -12.542  0.00  0.00    +0.151 C 
BRANCH  10  11
ATOM     11  C   UNL     1      -0.186  -5.367 -11.787  0.00  0.00    -0.028 A 
ATOM     12  C   UNL     1      -0.494  -4.081 -12.255  0.00  0.00    +0.005 A 
ATOM     13  C   UNL     1       0.550  -5.493 -10.599  0.00  0.00    +0.005 A 
ATOM     14  C   UNL     1      -0.095  -2.950 -11.538  0.00  0.00    +0.000 A 
ATOM     15  C   UNL     1       0.947  -4.361  -9.886  0.00  0.00    +0.000 A 
ATOM     16  C   UNL     1       0.623  -3.091 -10.354  0.00  0.00    +0.000 A 
ENDBRANCH  10  11
ENDBRANCH   1  10
TORSDOF 2
ENDMDL
MODEL 3
REMARK VINA RESULT:    -5.731      3.184      4.610
REMARK INTER + INTRA:          -6.581
REMARK INTER:                  -6.403
REMARK INTRA:                  -0.178
REMARK UNBOUND:                -0.179
REMARK  Name = 1550473
REMARK  2 active torsions:
REMARK  status: ('A' for Active; 'I' for Inactive)
REMARK    1  A    between atoms: N_1  and  C_4
REMARK    2  A    between atoms: C_4  and  C_5
REMARK                            x       y       z     vdW  Elec       q    Type
REMARK                         _______ _______ _______ _____ _____    ______ ____
ROOT
ATOM      1  N   UNL     1     -11.094 -16.265 -13.832  0.00  0.00    -0.354 N 
ATOM      2  N   UNL     1     -12.019 -15.357 -15.750  0.00  0.00    -0.372 N 
ATOM      3  N   UNL     1     -10.714 -14.027 -14.411  0.00  0.00    -0.372 N 
ATOM      4  C   UNL     1     -11.269 -15.220 -14.651  0.00  0.00    +0.166 C 
ATOM      5  H   UNL     1     -11.566 -17.135 -14.053  0.00  0.00    +0.163 HD
ATOM      6  H   UNL     1     -12.166 -14.586 -16.389  0.00  0.00    +0.159 HD
ATOM      7  H   UNL     1     -12.453 -16.239 -15.994  0.00  0.00    +0.159 HD
ATOM      8  H   UNL     1     -10.141 -13.857 -13.596  0.00  0.00    +0.159 HD
ATOM      9  H   UNL     1     -10.859 -13.241 -15.033  0.00  0.00    +0.159 HD
ENDROOT
BRANCH   1  10
ATOM     10  C   UNL     1     -10.252 -16.237 -12.637  0.00  0.00    +0.151 C 
BRANCH  10  11
ATOM     11  C   UNL     1     -11.119 -16.007 -11.430  0.00  0.00    -0.028 A 
ATOM     12  C   UNL     1     -11.149 -14.753 -10.803  0.00  0.00    +0.005 A 
ATOM     13  C   UNL     1     -11.917 -17.039 -10.912  0.00  0.00    +0.005 A 
ATOM     14  C   UNL     1     -11.977 -14.531  -9.700  0.00  0.00    +0.000 A 
ATOM     15  C   UNL     1     -12.742 -16.813  -9.810  0.00  0.00    +0.000 A 
ATOM     16  C   UNL     1     -12.774 -15.559  -9.206  0.00  0.00    +0.000 A 
ENDBRANCH  10  11
ENDBRANCH   1  10
TORSDOF 2
ENDMDL
MODEL 4
REMARK VINA RESULT:    -5.626      1.636      2.187
REMARK INTER + INTRA:          -6.463
REMARK INTER:                  -6.344
REMARK INTRA:                  -0.119
REMARK UNBOUND:                -0.179
REMARK  Name = 1550473
REMARK  2 active torsions:
REMARK  status: ('A' for Active; 'I' for Inactive)
REMARK    1  A    between atoms: N_1  and  C_4
REMARK    2  A    between atoms: C_4  and  C_5
REMARK                            x       y       z     vdW  Elec       q    Type
REMARK                         _______ _______ _______ _____ _____    ______ ____
ROOT
ATOM      1  N   UNL     1     -10.799 -15.198 -11.512  0.00  0.00    -0.354 N 
ATOM      2  N   UNL     1     -10.470 -13.372 -10.126  0.00  0.00    -0.372 N 
ATOM      3  N   UNL     1      -8.875 -15.020 -10.185  0.00  0.00    -0.372 N 
ATOM      4  C   UNL     1     -10.048 -14.544 -10.616  0.00  0.00    +0.166 C 
ATOM      5  H   UNL     1     -11.692 -14.798 -11.775  0.00  0.00    +0.163 HD
ATOM      6  H   UNL     1      -9.923 -12.853  -9.452  0.00  0.00    +0.159 HD
ATOM      7  H   UNL     1     -11.341 -12.952 -10.426  0.00  0.00    +0.159 HD
ATOM      8  H   UNL     1      -8.503 -15.902 -10.511  0.00  0.00    +0.159 HD
ATOM      9  H   UNL     1      -8.319 -14.522  -9.501  0.00  0.00    +0.159 HD
ENDROOT
BRANCH   1  10
ATOM     10  C   UNL     1     -10.405 -16.455 -12.146  0.00  0.00    +0.151 C 
BRANCH  10  11
ATOM     11  C   UNL     1     -11.403 -17.521 -11.787  0.00  0.00    -0.028 A 
ATOM     12  C   UNL     1     -11.685 -18.563 -12.682  0.00  0.00    +0.005 A 
ATOM     13  C   UNL     1     -12.064 -17.498 -10.550  0.00  0.00    +0.005 A 
ATOM     14  C   UNL     1     -12.590 -19.569 -12.337  0.00  0.00    +0.000 A 
ATOM     15  C   UNL     1     -12.967 -18.505 -10.209  0.00  0.00    +0.000 A 
ATOM     16  C   UNL     1     -13.228 -19.542 -11.101  0.00  0.00    +0.000 A 
ENDBRANCH  10  11
ENDBRANCH   1  10
TORSDOF 2
ENDMDL
MODEL 5
REMARK VINA RESULT:    -5.563     25.034     26.043
REMARK INTER + INTRA:          -6.393
REMARK INTER:                  -6.264
REMARK INTRA:                  -0.128
REMARK UNBOUND:                -0.179
REMARK  Name = 1550473
REMARK  2 active torsions:
REMARK  status: ('A' for Active; 'I' for Inactive)
REMARK    1  A    between atoms: N_1  and  C_4
REMARK    2  A    between atoms: C_4  and  C_5
REMARK                            x       y       z     vdW  Elec       q    Type
REMARK                         _______ _______ _______ _____ _____    ______ ____
ROOT
ATOM      1  N   UNL     1      -0.898  -2.359 -28.512  0.00  0.00    -0.354 N 
ATOM      2  N   UNL     1      -1.360  -2.206 -30.777  0.00  0.00    -0.372 N 
ATOM      3  N   UNL     1      -3.040  -2.823 -29.341  0.00  0.00    -0.372 N 
ATOM      4  C   UNL     1      -1.765  -2.465 -29.528  0.00  0.00    +0.166 C 
ATOM      5  H   UNL     1       0.063  -2.112 -28.724  0.00  0.00    +0.163 HD
ATOM      6  H   UNL     1      -1.993  -2.275 -31.562  0.00  0.00    +0.159 HD
ATOM      7  H   UNL     1      -0.411  -1.915 -30.980  0.00  0.00    +0.159 HD
ATOM      8  H   UNL     1      -3.407  -3.038 -28.423  0.00  0.00    +0.159 HD
ATOM      9  H   UNL     1      -3.685  -2.909 -30.116  0.00  0.00    +0.159 HD
ENDROOT
BRANCH   1  10
ATOM     10  C   UNL     1      -1.251  -2.566 -27.109  0.00  0.00    +0.151 C 
BRANCH  10  11
ATOM     11  C   UNL     1      -0.802  -1.375 -26.308  0.00  0.00    -0.028 A 
ATOM     12  C   UNL     1       0.505  -1.309 -25.804  0.00  0.00    +0.005 A 
ATOM     13  C   UNL     1      -1.676  -0.307 -26.055  0.00  0.00    +0.005 A 
ATOM     14  C   UNL     1       0.933  -0.190 -25.086  0.00  0.00    +0.000 A 
ATOM     15  C   UNL     1      -1.246   0.808 -25.336  0.00  0.00    +0.000 A 
ATOM     16  C   UNL     1       0.059   0.868 -24.854  0.00  0.00    +0.000 A 
ENDBRANCH  10  11
ENDBRANCH   1  10
TORSDOF 2
ENDMDL
MODEL 6
REMARK VINA RESULT:    -5.483     14.042     15.470
REMARK INTER + INTRA:          -6.304
REMARK INTER:                  -6.159
REMARK INTRA:                  -0.145
REMARK UNBOUND:                -0.179
REMARK  Name = 1550473
REMARK  2 active torsions:
REMARK  status: ('A' for Active; 'I' for Inactive)
REMARK    1  A    between atoms: N_1  and  C_4
REMARK    2  A    between atoms: C_4  and  C_5
REMARK                            x       y       z     vdW  Elec       q    Type
REMARK                         _______ _______ _______ _____ _____    ______ ____
ROOT
ATOM      1  N   UNL     1      -0.684  -9.506 -15.585  0.00  0.00    -0.354 N 
ATOM      2  N   UNL     1      -1.702 -11.353 -16.541  0.00  0.00    -0.372 N 
ATOM      3  N   UNL     1      -2.684  -9.294 -16.788  0.00  0.00    -0.372 N 
ATOM      4  C   UNL     1      -1.685 -10.037 -16.299  0.00  0.00    +0.166 C 
ATOM      5  H   UNL     1       0.027 -10.127 -15.217  0.00  0.00    +0.163 HD
ATOM      6  H   UNL     1      -2.443 -11.782 -17.079  0.00  0.00    +0.159 HD
ATOM      7  H   UNL     1      -0.966 -11.965 -16.210  0.00  0.00    +0.159 HD
ATOM      8  H   UNL     1      -2.732  -8.295 -16.636  0.00  0.00    +0.159 HD
ATOM      9  H   UNL     1      -3.440  -9.706 -17.319  0.00  0.00    +0.159 HD
ENDROOT
BRANCH   1  10
ATOM     10  C   UNL     1      -0.543  -8.077 -15.311  0.00  0.00    +0.151 C 
BRANCH  10  11
ATOM     11  C   UNL     1      -0.407  -7.872 -13.828  0.00  0.00    -0.028 A 
ATOM     12  C   UNL     1      -0.339  -8.972 -12.960  0.00  0.00    +0.005 A 
ATOM     13  C   UNL     1      -0.340  -6.580 -13.284  0.00  0.00    +0.005 A 
ATOM     14  C   UNL     1      -0.182  -8.783 -11.585  0.00  0.00    +0.000 A 
ATOM     15  C   UNL     1      -0.184  -6.395 -11.910  0.00  0.00    +0.000 A 
ATOM     16  C   UNL     1      -0.103  -7.497 -11.061  0.00  0.00    +0.000 A 
ENDBRANCH  10  11
ENDBRANCH   1  10
TORSDOF 2
ENDMDL
MODEL 7
REMARK VINA RESULT:    -5.111     15.496     16.952
REMARK INTER + INTRA:          -5.888
REMARK INTER:                  -5.763
REMARK INTRA:                  -0.125
REMARK UNBOUND:                -0.179
REMARK  Name = 1550473
REMARK  2 active torsions:
REMARK  status: ('A' for Active; 'I' for Inactive)
REMARK    1  A    between atoms: N_1  and  C_4
REMARK    2  A    between atoms: C_4  and  C_5
REMARK                            x       y       z     vdW  Elec       q    Type
REMARK                         _______ _______ _______ _____ _____    ______ ____
ROOT
ATOM      1  N   UNL     1       0.209  -7.262 -13.332  0.00  0.00    -0.354 N 
ATOM      2  N   UNL     1       1.241  -7.627 -15.373  0.00  0.00    -0.372 N 
ATOM      3  N   UNL     1       0.235  -9.393 -14.307  0.00  0.00    -0.372 N 
ATOM      4  C   UNL     1       0.554  -8.094 -14.323  0.00  0.00    +0.166 C 
ATOM      5  H   UNL     1       0.507  -6.295 -13.389  0.00  0.00    +0.163 HD
ATOM      6  H   UNL     1       1.513  -8.230 -16.137  0.00  0.00    +0.159 HD
ATOM      7  H   UNL     1       1.498  -6.650 -15.449  0.00  0.00    +0.159 HD
ATOM      8  H   UNL     1      -0.278  -9.809 -13.542  0.00  0.00    +0.159 HD
ATOM      9  H   UNL     1       0.508 -10.015 -15.058  0.00  0.00    +0.159 HD
ENDROOT
BRANCH   1  10
ATOM     10  C   UNL     1      -0.586  -7.659 -12.171  0.00  0.00    +0.151 C 
BRANCH  10  11
ATOM     11  C   UNL     1      -0.295  -6.721 -11.033  0.00  0.00    -0.028 A 
ATOM     12  C   UNL     1      -0.679  -7.048  -9.724  0.00  0.00    +0.005 A 
ATOM     13  C   UNL     1       0.370  -5.505 -11.255  0.00  0.00    +0.005 A 
ATOM     14  C   UNL     1      -0.383  -6.191  -8.662  0.00  0.00    +0.000 A 
ATOM     15  C   UNL     1       0.664  -4.651 -10.192  0.00  0.00    +0.000 A 
ATOM     16  C   UNL     1       0.290  -4.996  -8.895  0.00  0.00    +0.000 A 
ENDBRANCH  10  11
ENDBRANCH   1  10
TORSDOF 2
ENDMDL
MODEL 8
REMARK VINA RESULT:    -5.035     15.193     16.090
REMARK INTER + INTRA:          -5.803
REMARK INTER:                  -5.667
REMARK INTRA:                  -0.136
REMARK UNBOUND:                -0.179
REMARK  Name = 1550473
REMARK  2 active torsions:
REMARK  status: ('A' for Active; 'I' for Inactive)
REMARK    1  A    between atoms: N_1  and  C_4
REMARK    2  A    between atoms: C_4  and  C_5
REMARK                            x       y       z     vdW  Elec       q    Type
REMARK                         _______ _______ _______ _____ _____    ______ ____
ROOT
ATOM      1  N   UNL     1      -0.619  -7.700  -7.733  0.00  0.00    -0.354 N 
ATOM      2  N   UNL     1       0.271  -8.516  -5.757  0.00  0.00    -0.372 N 
ATOM      3  N   UNL     1       0.285  -6.252  -6.129  0.00  0.00    -0.372 N 
ATOM      4  C   UNL     1      -0.026  -7.481  -6.552  0.00  0.00    +0.166 C 
ATOM      5  H   UNL     1      -0.802  -8.658  -8.010  0.00  0.00    +0.163 HD
ATOM      6  H   UNL     1       0.715  -8.381  -4.859  0.00  0.00    +0.159 HD
ATOM      7  H   UNL     1       0.046  -9.469  -6.016  0.00  0.00    +0.159 HD
ATOM      8  H   UNL     1       0.093  -5.429  -6.684  0.00  0.00    +0.159 HD
ATOM      9  H   UNL     1       0.741  -6.097  -5.238  0.00  0.00    +0.159 HD
ENDROOT
BRANCH   1  10
ATOM     10  C   UNL     1      -1.033  -6.639  -8.650  0.00  0.00    +0.151 C 
BRANCH  10  11
ATOM     11  C   UNL     1      -0.510  -6.947 -10.026  0.00  0.00    -0.028 A 
ATOM     12  C   UNL     1      -0.322  -8.275 -10.436  0.00  0.00    +0.005 A 
ATOM     13  C   UNL     1      -0.206  -5.914 -10.926  0.00  0.00    +0.005 A 
ATOM     14  C   UNL     1       0.135  -8.562 -11.724  0.00  0.00    +0.000 A 
ATOM     15  C   UNL     1       0.252  -6.205 -12.212  0.00  0.00    +0.000 A 
ATOM     16  C   UNL     1       0.420  -7.529 -12.611  0.00  0.00    +0.000 A 
ENDBRANCH  10  11
ENDBRANCH   1  10
TORSDOF 2
ENDMDL
MODEL 9
REMARK VINA RESULT:    -4.984     22.387     24.668
REMARK INTER + INTRA:          -5.747
REMARK INTER:                  -5.637
REMARK INTRA:                  -0.109
REMARK UNBOUND:                -0.179
REMARK  Name = 1550473
REMARK  2 active torsions:
REMARK  status: ('A' for Active; 'I' for Inactive)
REMARK    1  A    between atoms: N_1  and  C_4
REMARK    2  A    between atoms: C_4  and  C_5
REMARK                            x       y       z     vdW  Elec       q    Type
REMARK                         _______ _______ _______ _____ _____    ______ ____
ROOT
ATOM      1  N   UNL     1       3.933  -5.161   0.745  0.00  0.00    -0.354 N 
ATOM      2  N   UNL     1       4.801  -7.265   0.316  0.00  0.00    -0.372 N 
ATOM      3  N   UNL     1       2.681  -6.771  -0.408  0.00  0.00    -0.372 N 
ATOM      4  C   UNL     1       3.797  -6.386   0.220  0.00  0.00    +0.166 C 
ATOM      5  H   UNL     1       4.792  -4.940   1.235  0.00  0.00    +0.163 HD
ATOM      6  H   UNL     1       4.729  -8.195  -0.073  0.00  0.00    +0.159 HD
ATOM      7  H   UNL     1       5.677  -7.026   0.766  0.00  0.00    +0.159 HD
ATOM      8  H   UNL     1       1.884  -6.157  -0.510  0.00  0.00    +0.159 HD
ATOM      9  H   UNL     1       2.585  -7.702  -0.795  0.00  0.00    +0.159 HD
ENDROOT
BRANCH   1  10
ATOM     10  C   UNL     1       2.920  -4.112   0.647  0.00  0.00    +0.151 C 
BRANCH  10  11
ATOM     11  C   UNL     1       3.574  -2.775   0.862  0.00  0.00    -0.028 A 
ATOM     12  C   UNL     1       3.226  -1.675   0.064  0.00  0.00    +0.005 A 
ATOM     13  C   UNL     1       4.539  -2.600   1.866  0.00  0.00    +0.005 A 
ATOM     14  C   UNL     1       3.812  -0.426   0.283  0.00  0.00    +0.000 A 
ATOM     15  C   UNL     1       5.123  -1.352   2.080  0.00  0.00    +0.000 A 
ATOM     16  C   UNL     1       4.757  -0.264   1.291  0.00  0.00    +0.000 A 
ENDBRANCH  10  11
ENDBRANCH   1  10
TORSDOF 2
ENDMDL
