MODEL 1
REMARK VINA RESULT:    -5.971      0.000      0.000
REMARK INTER + INTRA:          -6.794
REMARK INTER:                  -6.670
REMARK INTRA:                  -0.125
REMARK UNBOUND:                -0.125
REMARK  Name = 1550473
REMARK  2 active torsions:
REMARK  status: ('A' for Active; 'I' for Inactive)
REMARK    1  A    between atoms: N_1  and  C_4
REMARK    2  A    between atoms: C_4  and  C_5
REMARK                            x       y       z     vdW  Elec       q    Type
REMARK                         _______ _______ _______ _____ _____    ______ ____
ROOT
ATOM      1  N   UNL     1       1.796  15.431   6.290  0.00  0.00    -0.354 N 
ATOM      2  N   UNL     1       1.962  15.692   8.586  0.00  0.00    -0.372 N 
ATOM      3  N   UNL     1       0.332  16.844   7.454  0.00  0.00    -0.372 N 
ATOM      4  C   UNL     1       1.361  15.989   7.428  0.00  0.00    +0.166 C 
ATOM      5  H   UNL     1       2.600  14.815   6.334  0.00  0.00    +0.163 HD
ATOM      6  H   UNL     1       1.654  16.095   9.460  0.00  0.00    +0.159 HD
ATOM      7  H   UNL     1       2.736  15.040   8.632  0.00  0.00    +0.159 HD
ATOM      8  H   UNL     1      -0.161  17.114   6.613  0.00  0.00    +0.159 HD
ATOM      9  H   UNL     1       0.016  17.266   8.318  0.00  0.00    +0.159 HD
ENDROOT
BRANCH   1  10
ATOM     10  C   UNL     1       1.176  15.647   4.984  0.00  0.00    +0.151 C 
BRANCH  10  11
ATOM     11  C   UNL     1       0.999  14.319   4.300  0.00  0.00    -0.028 A 
ATOM     12  C   UNL     1      -0.091  13.495   4.617  0.00  0.00    +0.005 A 
ATOM     13  C   UNL     1       1.913  13.883   3.329  0.00  0.00    +0.005 A 
ATOM     14  C   UNL     1      -0.273  12.275   3.960  0.00  0.00    +0.000 A 
ATOM     15  C   UNL     1       1.729  12.664   2.676  0.00  0.00    +0.000 A 
ATOM     16  C   UNL     1       0.634  11.862   2.990  0.00  0.00    +0.000 A 
ENDBRANCH  10  11
ENDBRANCH   1  10
TORSDOF 2
ENDMDL
MODEL 2
REMARK VINA RESULT:    -5.873      0.906      1.920
REMARK INTER + INTRA:          -6.684
REMARK INTER:                  -6.591
REMARK INTRA:                  -0.093
REMARK UNBOUND:                -0.125
REMARK  Name = 1550473
REMARK  2 active torsions:
REMARK  status: ('A' for Active; 'I' for Inactive)
REMARK    1  A    between atoms: N_1  and  C_4
REMARK    2  A    between atoms: C_4  and  C_5
REMARK                            x       y       z     vdW  Elec       q    Type
REMARK                         _______ _______ _______ _____ _____    ______ ____
ROOT
ATOM      1  N   UNL     1       1.722  15.429   6.183  0.00  0.00    -0.354 N 
ATOM      2  N   UNL     1       1.901  15.621   8.484  0.00  0.00    -0.372 N 
ATOM      3  N   UNL     1       0.543  17.083   7.352  0.00  0.00    -0.372 N 
ATOM      4  C   UNL     1       1.386  16.045   7.324  0.00  0.00    +0.166 C 
ATOM      5  H   UNL     1       2.389  14.668   6.226  0.00  0.00    +0.163 HD
ATOM      6  H   UNL     1       1.663  16.064   9.362  0.00  0.00    +0.159 HD
ATOM      7  H   UNL     1       2.532  14.830   8.529  0.00  0.00    +0.159 HD
ATOM      8  H   UNL     1       0.124  17.456   6.510  0.00  0.00    +0.159 HD
ATOM      9  H   UNL     1       0.301  17.547   8.219  0.00  0.00    +0.159 HD
ENDROOT
BRANCH   1  10
ATOM     10  C   UNL     1       1.175  15.779   4.873  0.00  0.00    +0.151 C 
BRANCH  10  11
ATOM     11  C   UNL     1       1.664  14.786   3.856  0.00  0.00    -0.028 A 
ATOM     12  C   UNL     1       2.732  15.106   3.004  0.00  0.00    +0.005 A 
ATOM     13  C   UNL     1       1.068  13.521   3.742  0.00  0.00    +0.005 A 
ATOM     14  C   UNL     1       3.206  14.173   2.079  0.00  0.00    +0.000 A 
ATOM     15  C   UNL     1       1.544  12.592   2.816  0.00  0.00    +0.000 A 
ATOM     16  C   UNL     1       2.615  12.918   1.987  0.00  0.00    +0.000 A 
ENDBRANCH  10  11
ENDBRANCH   1  10
TORSDOF 2
ENDMDL
MODEL 3
REMARK VINA RESULT:    -5.750      9.651     10.204
REMARK INTER + INTRA:          -6.547
REMARK INTER:                  -6.367
REMARK INTRA:                  -0.179
REMARK UNBOUND:                -0.125
REMARK  Name = 1550473
REMARK  2 active torsions:
REMARK  status: ('A' for Active; 'I' for Inactive)
REMARK    1  A    between atoms: N_1  and  C_4
REMARK    2  A    between atoms: C_4  and  C_5
REMARK                            x       y       z     vdW  Elec       q    Type
REMARK                         _______ _______ _______ _____ _____    ______ ____
ROOT
ATOM      1  N   UNL     1       1.649   6.845  11.273  0.00  0.00    -0.354 N 
ATOM      2  N   UNL     1       0.031   8.240  10.379  0.00  0.00    -0.372 N 
ATOM      3  N   UNL     1       1.325   9.009  12.111  0.00  0.00    -0.372 N 
ATOM      4  C   UNL     1       1.013   8.024  11.262  0.00  0.00    +0.166 C 
ATOM      5  H   UNL     1       1.345   6.128  10.623  0.00  0.00    +0.163 HD
ATOM      6  H   UNL     1      -0.465   9.121  10.345  0.00  0.00    +0.159 HD
ATOM      7  H   UNL     1      -0.240   7.538   9.701  0.00  0.00    +0.159 HD
ATOM      8  H   UNL     1       2.052   8.907  12.806  0.00  0.00    +0.159 HD
ATOM      9  H   UNL     1       0.832   9.893  12.101  0.00  0.00    +0.159 HD
ENDROOT
BRANCH   1  10
ATOM     10  C   UNL     1       2.768   6.527  12.158  0.00  0.00    +0.151 C 
BRANCH  10  11
ATOM     11  C   UNL     1       4.050   6.595  11.374  0.00  0.00    -0.028 A 
ATOM     12  C   UNL     1       4.815   7.770  11.360  0.00  0.00    +0.005 A 
ATOM     13  C   UNL     1       4.507   5.485  10.646  0.00  0.00    +0.005 A 
ATOM     14  C   UNL     1       6.020   7.824  10.656  0.00  0.00    +0.000 A 
ATOM     15  C   UNL     1       5.711   5.543   9.944  0.00  0.00    +0.000 A 
ATOM     16  C   UNL     1       6.468   6.712   9.951  0.00  0.00    +0.000 A 
ENDBRANCH  10  11
ENDBRANCH   1  10
TORSDOF 2
ENDMDL
MODEL 4
REMARK VINA RESULT:    -5.744      1.547      2.170
REMARK INTER + INTRA:          -6.540
REMARK INTER:                  -6.394
REMARK INTRA:                  -0.146
REMARK UNBOUND:                -0.125
REMARK  Name = 1550473
REMARK  2 active torsions:
REMARK  status: ('A' for Active; 'I' for Inactive)
REMARK    1  A    between atoms: N_1  and  C_4
REMARK    2  A    between atoms: C_4  and  C_5
REMARK                            x       y       z     vdW  Elec       q    Type
REMARK                         _______ _______ _______ _____ _____    ______ ____
ROOT
ATOM      1  N   UNL     1       0.269  14.832   7.283  0.00  0.00    -0.354 N 
ATOM      2  N   UNL     1      -0.700  16.915   7.573  0.00  0.00    -0.372 N 
ATOM      3  N   UNL     1       1.575  16.778   7.305  0.00  0.00    -0.372 N 
ATOM      4  C   UNL     1       0.390  16.162   7.385  0.00  0.00    +0.166 C 
ATOM      5  H   UNL     1      -0.653  14.424   7.383  0.00  0.00    +0.163 HD
ATOM      6  H   UNL     1      -0.640  17.922   7.650  0.00  0.00    +0.159 HD
ATOM      7  H   UNL     1      -1.626  16.509   7.626  0.00  0.00    +0.159 HD
ATOM      8  H   UNL     1       2.436  16.266   7.169  0.00  0.00    +0.159 HD
ATOM      9  H   UNL     1       1.657  17.783   7.391  0.00  0.00    +0.159 HD
ENDROOT
BRANCH   1  10
ATOM     10  C   UNL     1       1.387  13.926   7.024  0.00  0.00    +0.151 C 
BRANCH  10  11
ATOM     11  C   UNL     1       1.123  13.172   5.751  0.00  0.00    -0.028 A 
ATOM     12  C   UNL     1       2.118  12.363   5.183  0.00  0.00    +0.005 A 
ATOM     13  C   UNL     1      -0.122  13.258   5.109  0.00  0.00    +0.005 A 
ATOM     14  C   UNL     1       1.864  11.638   4.016  0.00  0.00    +0.000 A 
ATOM     15  C   UNL     1      -0.372  12.533   3.943  0.00  0.00    +0.000 A 
ATOM     16  C   UNL     1       0.620  11.722   3.399  0.00  0.00    +0.000 A 
ENDBRANCH  10  11
ENDBRANCH   1  10
TORSDOF 2
ENDMDL
MODEL 5
REMARK VINA RESULT:    -5.571      1.553      2.288
REMARK INTER + INTRA:          -6.347
REMARK INTER:                  -6.177
REMARK INTRA:                  -0.170
REMARK UNBOUND:                -0.125
REMARK  Name = 1550473
REMARK  2 active torsions:
REMARK  status: ('A' for Active; 'I' for Inactive)
REMARK    1  A    between atoms: N_1  and  C_4
REMARK    2  A    between atoms: C_4  and  C_5
REMARK                            x       y       z     vdW  Elec       q    Type
REMARK                         _______ _______ _______ _____ _____    ______ ____
ROOT
ATOM      1  N   UNL     1       0.887  14.998   5.966  0.00  0.00    -0.354 N 
ATOM      2  N   UNL     1       1.421  16.823   7.288  0.00  0.00    -0.372 N 
ATOM      3  N   UNL     1       1.615  14.717   8.176  0.00  0.00    -0.372 N 
ATOM      4  C   UNL     1       1.304  15.499   7.137  0.00  0.00    +0.166 C 
ATOM      5  H   UNL     1       0.639  15.646   5.227  0.00  0.00    +0.163 HD
ATOM      6  H   UNL     1       1.737  17.230   8.158  0.00  0.00    +0.159 HD
ATOM      7  H   UNL     1       1.216  17.466   6.533  0.00  0.00    +0.159 HD
ATOM      8  H   UNL     1       1.542  13.709   8.128  0.00  0.00    +0.159 HD
ATOM      9  H   UNL     1       1.921  15.105   9.059  0.00  0.00    +0.159 HD
ENDROOT
BRANCH   1  10
ATOM     10  C   UNL     1       0.777  13.569   5.681  0.00  0.00    +0.151 C 
BRANCH  10  11
ATOM     11  C   UNL     1       1.835  13.184   4.683  0.00  0.00    -0.028 A 
ATOM     12  C   UNL     1       1.525  13.090   3.318  0.00  0.00    +0.005 A 
ATOM     13  C   UNL     1       3.150  12.919   5.096  0.00  0.00    +0.005 A 
ATOM     14  C   UNL     1       2.514  12.762   2.388  0.00  0.00    +0.000 A 
ATOM     15  C   UNL     1       4.134  12.591   4.163  0.00  0.00    +0.000 A 
ATOM     16  C   UNL     1       3.817  12.515   2.809  0.00  0.00    +0.000 A 
ENDBRANCH  10  11
ENDBRANCH   1  10
TORSDOF 2
ENDMDL
MODEL 6
REMARK VINA RESULT:    -5.522      9.347     10.253
REMARK INTER + INTRA:          -6.293
REMARK INTER:                  -6.178
REMARK INTRA:                  -0.114
REMARK UNBOUND:                -0.125
REMARK  Name = 1550473
REMARK  2 active torsions:
REMARK  status: ('A' for Active; 'I' for Inactive)
REMARK    1  A    between atoms: N_1  and  C_4
REMARK    2  A    between atoms: C_4  and  C_5
REMARK                            x       y       z     vdW  Elec       q    Type
REMARK                         _______ _______ _______ _____ _____    ______ ____
ROOT
ATOM      1  N   UNL     1       3.059   8.195  11.260  0.00  0.00    -0.354 N 
ATOM      2  N   UNL     1       0.818   7.627  11.132  0.00  0.00    -0.372 N 
ATOM      3  N   UNL     1       2.278   6.162  12.125  0.00  0.00    -0.372 N 
ATOM      4  C   UNL     1       2.067   7.329  11.508  0.00  0.00    +0.166 C 
ATOM      5  H   UNL     1       2.839   9.050  10.761  0.00  0.00    +0.163 HD
ATOM      6  H   UNL     1       0.048   6.994  11.308  0.00  0.00    +0.159 HD
ATOM      7  H   UNL     1       0.593   8.502  10.675  0.00  0.00    +0.159 HD
ATOM      8  H   UNL     1       3.199   5.876  12.429  0.00  0.00    +0.159 HD
ATOM      9  H   UNL     1       1.523   5.511  12.300  0.00  0.00    +0.159 HD
ENDROOT
BRANCH   1  10
ATOM     10  C   UNL     1       4.446   7.991  11.676  0.00  0.00    +0.151 C 
BRANCH  10  11
ATOM     11  C   UNL     1       5.052   9.320  12.032  0.00  0.00    -0.028 A 
ATOM     12  C   UNL     1       4.648  10.000  13.190  0.00  0.00    +0.005 A 
ATOM     13  C   UNL     1       6.036   9.903  11.218  0.00  0.00    +0.005 A 
ATOM     14  C   UNL     1       5.232  11.221  13.537  0.00  0.00    +0.000 A 
ATOM     15  C   UNL     1       6.617  11.122  11.568  0.00  0.00    +0.000 A 
ATOM     16  C   UNL     1       6.217  11.779  12.729  0.00  0.00    +0.000 A 
ENDBRANCH  10  11
ENDBRANCH   1  10
TORSDOF 2
ENDMDL
MODEL 7
REMARK VINA RESULT:    -5.343      9.764     10.632
REMARK INTER + INTRA:          -6.092
REMARK INTER:                  -5.955
REMARK INTRA:                  -0.137
REMARK UNBOUND:                -0.125
REMARK  Name = 1550473
REMARK  2 active torsions:
REMARK  status: ('A' for Active; 'I' for Inactive)
REMARK    1  A    between atoms: N_1  and  C_4
REMARK    2  A    between atoms: C_4  and  C_5
REMARK                            x       y       z     vdW  Elec       q    Type
REMARK                         _______ _______ _______ _____ _____    ______ ____
ROOT
ATOM      1  N   UNL     1       3.692   7.028  12.325  0.00  0.00    -0.354 N 
ATOM      2  N   UNL     1       3.264   5.147  11.043  0.00  0.00    -0.372 N 
ATOM      3  N   UNL     1       1.586   6.681  11.355  0.00  0.00    -0.372 N 
ATOM      4  C   UNL     1       2.847   6.299  11.583  0.00  0.00    +0.166 C 
ATOM      5  H   UNL     1       4.626   6.668  12.485  0.00  0.00    +0.163 HD
ATOM      6  H   UNL     1       2.650   4.577  10.476  0.00  0.00    +0.159 HD
ATOM      7  H   UNL     1       4.211   4.812  11.167  0.00  0.00    +0.159 HD
ATOM      8  H   UNL     1       1.209   7.537  11.739  0.00  0.00    +0.159 HD
ATOM      9  H   UNL     1       0.954   6.119  10.800  0.00  0.00    +0.159 HD
ENDROOT
BRANCH   1  10
ATOM     10  C   UNL     1       3.354   8.323  12.912  0.00  0.00    +0.151 C 
BRANCH  10  11
ATOM     11  C   UNL     1       4.442   9.309  12.586  0.00  0.00    -0.028 A 
ATOM     12  C   UNL     1       5.234   9.141  11.441  0.00  0.00    +0.005 A 
ATOM     13  C   UNL     1       4.681  10.416  13.414  0.00  0.00    +0.005 A 
ATOM     14  C   UNL     1       6.224  10.073  11.121  0.00  0.00    +0.000 A 
ATOM     15  C   UNL     1       5.671  11.344  13.091  0.00  0.00    +0.000 A 
ATOM     16  C   UNL     1       6.441  11.174  11.943  0.00  0.00    +0.000 A 
ENDBRANCH  10  11
ENDBRANCH   1  10
TORSDOF 2
ENDMDL
MODEL 8
REMARK VINA RESULT:    -4.885      4.312      5.817
REMARK INTER + INTRA:          -5.581
REMARK INTER:                  -5.472
REMARK INTRA:                  -0.109
REMARK UNBOUND:                -0.125
REMARK  Name = 1550473
REMARK  2 active torsions:
REMARK  status: ('A' for Active; 'I' for Inactive)
REMARK    1  A    between atoms: N_1  and  C_4
REMARK    2  A    between atoms: C_4  and  C_5
REMARK                            x       y       z     vdW  Elec       q    Type
REMARK                         _______ _______ _______ _____ _____    ______ ____
ROOT
ATOM      1  N   UNL     1      -0.326  16.687   6.302  0.00  0.00    -0.354 N 
ATOM      2  N   UNL     1       1.644  15.628   5.701  0.00  0.00    -0.372 N 
ATOM      3  N   UNL     1       1.250  16.064   7.920  0.00  0.00    -0.372 N 
ATOM      4  C   UNL     1       0.844  16.134   6.648  0.00  0.00    +0.166 C 
ATOM      5  H   UNL     1      -0.563  16.736   5.317  0.00  0.00    +0.163 HD
ATOM      6  H   UNL     1       2.531  15.202   5.933  0.00  0.00    +0.159 HD
ATOM      7  H   UNL     1       1.384  15.638   4.723  0.00  0.00    +0.159 HD
ATOM      8  H   UNL     1       0.695  16.432   8.680  0.00  0.00    +0.159 HD
ATOM      9  H   UNL     1       2.140  15.651   8.170  0.00  0.00    +0.159 HD
ENDROOT
BRANCH   1  10
ATOM     10  C   UNL     1      -1.295  17.217   7.259  0.00  0.00    +0.151 C 
BRANCH  10  11
ATOM     11  C   UNL     1      -2.320  18.033   6.521  0.00  0.00    -0.028 A 
ATOM     12  C   UNL     1      -3.690  17.794   6.708  0.00  0.00    +0.005 A 
ATOM     13  C   UNL     1      -1.929  19.049   5.635  0.00  0.00    +0.005 A 
ATOM     14  C   UNL     1      -4.642  18.572   6.045  0.00  0.00    +0.000 A 
ATOM     15  C   UNL     1      -2.883  19.822   4.975  0.00  0.00    +0.000 A 
ATOM     16  C   UNL     1      -4.240  19.585   5.182  0.00  0.00    +0.000 A 
ENDBRANCH  10  11
ENDBRANCH   1  10
TORSDOF 2
ENDMDL
MODEL 9
REMARK VINA RESULT:    -4.735      3.859      5.017
REMARK INTER + INTRA:          -5.413
REMARK INTER:                  -5.301
REMARK INTRA:                  -0.112
REMARK UNBOUND:                -0.125
REMARK  Name = 1550473
REMARK  2 active torsions:
REMARK  status: ('A' for Active; 'I' for Inactive)
REMARK    1  A    between atoms: N_1  and  C_4
REMARK    2  A    between atoms: C_4  and  C_5
REMARK                            x       y       z     vdW  Elec       q    Type
REMARK                         _______ _______ _______ _____ _____    ______ ____
ROOT
ATOM      1  N   UNL     1       3.017  15.461   2.162  0.00  0.00    -0.354 N 
ATOM      2  N   UNL     1       1.730  16.053   0.329  0.00  0.00    -0.372 N 
ATOM      3  N   UNL     1       3.866  15.289  -0.016  0.00  0.00    -0.372 N 
ATOM      4  C   UNL     1       2.882  15.597   0.836  0.00  0.00    +0.166 C 
ATOM      5  H   UNL     1       2.244  15.740   2.755  0.00  0.00    +0.163 HD
ATOM      6  H   UNL     1       1.598  16.163  -0.667  0.00  0.00    +0.159 HD
ATOM      7  H   UNL     1       0.943  16.288   0.922  0.00  0.00    +0.159 HD
ATOM      8  H   UNL     1       4.762  14.945   0.303  0.00  0.00    +0.159 HD
ATOM      9  H   UNL     1       3.757  15.403  -1.016  0.00  0.00    +0.159 HD
ENDROOT
BRANCH   1  10
ATOM     10  C   UNL     1       4.211  14.922   2.811  0.00  0.00    +0.151 C 
BRANCH  10  11
ATOM     11  C   UNL     1       3.848  13.652   3.530  0.00  0.00    -0.028 A 
ATOM     12  C   UNL     1       2.613  13.029   3.295  0.00  0.00    +0.005 A 
ATOM     13  C   UNL     1       4.736  13.064   4.443  0.00  0.00    +0.005 A 
ATOM     14  C   UNL     1       2.288  11.833   3.939  0.00  0.00    +0.000 A 
ATOM     15  C   UNL     1       4.407  11.870   5.085  0.00  0.00    +0.000 A 
ATOM     16  C   UNL     1       3.185  11.253   4.831  0.00  0.00    +0.000 A 
ENDBRANCH  10  11
ENDBRANCH   1  10
TORSDOF 2
ENDMDL
