MODEL 1
REMARK VINA RESULT:    -5.074      0.000      0.000
REMARK INTER + INTRA:          -5.797
REMARK INTER:                  -5.667
REMARK INTRA:                  -0.130
REMARK UNBOUND:                -0.130
REMARK  Name = 1550473
REMARK  2 active torsions:
REMARK  status: ('A' for Active; 'I' for Inactive)
REMARK    1  A    between atoms: N_1  and  C_4
REMARK    2  A    between atoms: C_4  and  C_5
REMARK                            x       y       z     vdW  Elec       q    Type
REMARK                         _______ _______ _______ _____ _____    ______ ____
ROOT
ATOM      1  N   UNL     1       0.619   4.550 -12.979  0.00  0.00    -0.354 N 
ATOM      2  N   UNL     1       1.731   2.793 -13.999  0.00  0.00    -0.372 N 
ATOM      3  N   UNL     1       0.847   2.479 -11.905  0.00  0.00    -0.372 N 
ATOM      4  C   UNL     1       1.058   3.284 -12.952  0.00  0.00    +0.166 C 
ATOM      5  H   UNL     1       0.838   5.118 -13.789  0.00  0.00    +0.163 HD
ATOM      6  H   UNL     1       2.072   1.841 -14.008  0.00  0.00    +0.159 HD
ATOM      7  H   UNL     1       1.909   3.348 -14.826  0.00  0.00    +0.159 HD
ATOM      8  H   UNL     1       0.350   2.791 -11.081  0.00  0.00    +0.159 HD
ATOM      9  H   UNL     1       1.190   1.527 -11.891  0.00  0.00    +0.159 HD
ENDROOT
BRANCH   1  10
ATOM     10  C   UNL     1      -0.170   5.165 -11.913  0.00  0.00    +0.151 C 
BRANCH  10  11
ATOM     11  C   UNL     1      -1.140   6.140 -12.521  0.00  0.00    -0.028 A 
ATOM     12  C   UNL     1      -0.983   6.568 -13.847  0.00  0.00    +0.005 A 
ATOM     13  C   UNL     1      -2.222   6.636 -11.777  0.00  0.00    +0.005 A 
ATOM     14  C   UNL     1      -1.901   7.450 -14.421  0.00  0.00    +0.000 A 
ATOM     15  C   UNL     1      -3.136   7.517 -12.353  0.00  0.00    +0.000 A 
ATOM     16  C   UNL     1      -2.977   7.923 -13.676  0.00  0.00    +0.000 A 
ENDBRANCH  10  11
ENDBRANCH   1  10
TORSDOF 2
ENDMDL
MODEL 2
REMARK VINA RESULT:    -5.071     15.122     17.570
REMARK INTER + INTRA:          -5.794
REMARK INTER:                  -5.656
REMARK INTRA:                  -0.138
REMARK UNBOUND:                -0.130
REMARK  Name = 1550473
REMARK  2 active torsions:
REMARK  status: ('A' for Active; 'I' for Inactive)
REMARK    1  A    between atoms: N_1  and  C_4
REMARK    2  A    between atoms: C_4  and  C_5
REMARK                            x       y       z     vdW  Elec       q    Type
REMARK                         _______ _______ _______ _____ _____    ______ ____
ROOT
ATOM      1  N   UNL     1       8.640  -3.835 -22.541  0.00  0.00    -0.354 N 
ATOM      2  N   UNL     1       6.352  -3.542 -22.333  0.00  0.00    -0.372 N 
ATOM      3  N   UNL     1       7.702  -3.030 -20.550  0.00  0.00    -0.372 N 
ATOM      4  C   UNL     1       7.581  -3.470 -21.806  0.00  0.00    +0.166 C 
ATOM      5  H   UNL     1       8.479  -4.189 -23.476  0.00  0.00    +0.163 HD
ATOM      6  H   UNL     1       5.534  -3.271 -21.804  0.00  0.00    +0.159 HD
ATOM      7  H   UNL     1       6.198  -3.853 -23.285  0.00  0.00    +0.159 HD
ATOM      8  H   UNL     1       8.601  -2.958 -20.092  0.00  0.00    +0.159 HD
ATOM      9  H   UNL     1       6.894  -2.764 -20.001  0.00  0.00    +0.159 HD
ENDROOT
BRANCH   1  10
ATOM     10  C   UNL     1      10.025  -3.744 -22.080  0.00  0.00    +0.151 C 
BRANCH  10  11
ATOM     11  C   UNL     1      10.862  -3.117 -23.160  0.00  0.00    -0.028 A 
ATOM     12  C   UNL     1      10.359  -2.053 -23.923  0.00  0.00    +0.005 A 
ATOM     13  C   UNL     1      12.160  -3.580 -23.423  0.00  0.00    +0.005 A 
ATOM     14  C   UNL     1      11.148  -1.451 -24.907  0.00  0.00    +0.000 A 
ATOM     15  C   UNL     1      12.944  -2.977 -24.407  0.00  0.00    +0.000 A 
ATOM     16  C   UNL     1      12.438  -1.910 -25.146  0.00  0.00    +0.000 A 
ENDBRANCH  10  11
ENDBRANCH   1  10
TORSDOF 2
ENDMDL
MODEL 3
REMARK VINA RESULT:    -4.951     15.682     18.414
REMARK INTER + INTRA:          -5.659
REMARK INTER:                  -5.504
REMARK INTRA:                  -0.155
REMARK UNBOUND:                -0.130
REMARK  Name = 1550473
REMARK  2 active torsions:
REMARK  status: ('A' for Active; 'I' for Inactive)
REMARK    1  A    between atoms: N_1  and  C_4
REMARK    2  A    between atoms: C_4  and  C_5
REMARK                            x       y       z     vdW  Elec       q    Type
REMARK                         _______ _______ _______ _____ _____    ______ ____
ROOT
ATOM      1  N   UNL     1       9.346  -2.620 -23.031  0.00  0.00    -0.354 N 
ATOM      2  N   UNL     1       8.110  -3.727 -21.415  0.00  0.00    -0.372 N 
ATOM      3  N   UNL     1       9.474  -1.996 -20.775  0.00  0.00    -0.372 N 
ATOM      4  C   UNL     1       8.986  -2.772 -21.749  0.00  0.00    +0.166 C 
ATOM      5  H   UNL     1       8.963  -3.259 -23.717  0.00  0.00    +0.163 HD
ATOM      6  H   UNL     1       7.817  -3.863 -20.457  0.00  0.00    +0.159 HD
ATOM      7  H   UNL     1       7.694  -4.335 -22.110  0.00  0.00    +0.159 HD
ATOM      8  H   UNL     1      10.143  -1.261 -20.960  0.00  0.00    +0.159 HD
ATOM      9  H   UNL     1       9.201  -2.125 -19.808  0.00  0.00    +0.159 HD
ENDROOT
BRANCH   1  10
ATOM     10  C   UNL     1      10.252  -1.576 -23.507  0.00  0.00    +0.151 C 
BRANCH  10  11
ATOM     11  C   UNL     1      11.421  -2.219 -24.201  0.00  0.00    -0.028 A 
ATOM     12  C   UNL     1      12.302  -3.048 -23.492  0.00  0.00    +0.005 A 
ATOM     13  C   UNL     1      11.649  -2.008 -25.569  0.00  0.00    +0.005 A 
ATOM     14  C   UNL     1      13.370  -3.670 -24.142  0.00  0.00    +0.000 A 
ATOM     15  C   UNL     1      12.717  -2.630 -26.215  0.00  0.00    +0.000 A 
ATOM     16  C   UNL     1      13.576  -3.463 -25.502  0.00  0.00    +0.000 A 
ENDBRANCH  10  11
ENDBRANCH   1  10
TORSDOF 2
ENDMDL
MODEL 4
REMARK VINA RESULT:    -4.717     20.851     22.062
REMARK INTER + INTRA:          -5.398
REMARK INTER:                  -5.303
REMARK INTRA:                  -0.095
REMARK UNBOUND:                -0.130
REMARK  Name = 1550473
REMARK  2 active torsions:
REMARK  status: ('A' for Active; 'I' for Inactive)
REMARK    1  A    between atoms: N_1  and  C_4
REMARK    2  A    between atoms: C_4  and  C_5
REMARK                            x       y       z     vdW  Elec       q    Type
REMARK                         _______ _______ _______ _____ _____    ______ ____
ROOT
ATOM      1  N   UNL     1      13.655   9.291   0.749  0.00  0.00    -0.354 N 
ATOM      2  N   UNL     1      13.263   9.232  -1.533  0.00  0.00    -0.372 N 
ATOM      3  N   UNL     1      11.810   8.144  -0.129  0.00  0.00    -0.372 N 
ATOM      4  C   UNL     1      12.910   8.888  -0.289  0.00  0.00    +0.166 C 
ATOM      5  H   UNL     1      14.494   9.827   0.559  0.00  0.00    +0.163 HD
ATOM      6  H   UNL     1      12.718   8.946  -2.335  0.00  0.00    +0.159 HD
ATOM      7  H   UNL     1      14.076   9.807  -1.716  0.00  0.00    +0.159 HD
ATOM      8  H   UNL     1      11.493   7.846   0.783  0.00  0.00    +0.159 HD
ATOM      9  H   UNL     1      11.258   7.838  -0.921  0.00  0.00    +0.159 HD
ENDROOT
BRANCH   1  10
ATOM     10  C   UNL     1      13.328   9.015   2.147  0.00  0.00    +0.151 C 
BRANCH  10  11
ATOM     11  C   UNL     1      14.346   9.682   3.030  0.00  0.00    -0.028 A 
ATOM     12  C   UNL     1      15.292   8.917   3.729  0.00  0.00    +0.005 A 
ATOM     13  C   UNL     1      14.375  11.078   3.167  0.00  0.00    +0.005 A 
ATOM     14  C   UNL     1      16.257   9.538   4.526  0.00  0.00    +0.000 A 
ATOM     15  C   UNL     1      15.339  11.694   3.965  0.00  0.00    +0.000 A 
ATOM     16  C   UNL     1      16.281  10.924   4.642  0.00  0.00    +0.000 A 
ENDBRANCH  10  11
ENDBRANCH   1  10
TORSDOF 2
ENDMDL
MODEL 5
REMARK VINA RESULT:    -4.655     19.640     20.428
REMARK INTER + INTRA:          -5.330
REMARK INTER:                  -5.215
REMARK INTRA:                  -0.114
REMARK UNBOUND:                -0.130
REMARK  Name = 1550473
REMARK  2 active torsions:
REMARK  status: ('A' for Active; 'I' for Inactive)
REMARK    1  A    between atoms: N_1  and  C_4
REMARK    2  A    between atoms: C_4  and  C_5
REMARK                            x       y       z     vdW  Elec       q    Type
REMARK                         _______ _______ _______ _____ _____    ______ ____
ROOT
ATOM      1  N   UNL     1     -11.265   8.021   3.093  0.00  0.00    -0.354 N 
ATOM      2  N   UNL     1      -9.998   9.924   3.466  0.00  0.00    -0.372 N 
ATOM      3  N   UNL     1     -12.285  10.105   3.422  0.00  0.00    -0.372 N 
ATOM      4  C   UNL     1     -11.194   9.339   3.324  0.00  0.00    +0.166 C 
ATOM      5  H   UNL     1     -10.400   7.501   3.001  0.00  0.00    +0.163 HD
ATOM      6  H   UNL     1      -9.913  10.916   3.644  0.00  0.00    +0.159 HD
ATOM      7  H   UNL     1      -9.137   9.394   3.418  0.00  0.00    +0.159 HD
ATOM      8  H   UNL     1     -13.217   9.726   3.319  0.00  0.00    +0.159 HD
ATOM      9  H   UNL     1     -12.220  11.102   3.588  0.00  0.00    +0.159 HD
ENDROOT
BRANCH   1  10
ATOM     10  C   UNL     1     -12.519   7.278   2.978  0.00  0.00    +0.151 C 
BRANCH  10  11
ATOM     11  C   UNL     1     -12.295   5.864   3.437  0.00  0.00    -0.028 A 
ATOM     12  C   UNL     1     -12.482   4.790   2.554  0.00  0.00    +0.005 A 
ATOM     13  C   UNL     1     -11.892   5.591   4.753  0.00  0.00    +0.005 A 
ATOM     14  C   UNL     1     -12.246   3.478   2.972  0.00  0.00    +0.000 A 
ATOM     15  C   UNL     1     -11.658   4.279   5.167  0.00  0.00    +0.000 A 
ATOM     16  C   UNL     1     -11.832   3.224   4.276  0.00  0.00    +0.000 A 
ENDBRANCH  10  11
ENDBRANCH   1  10
TORSDOF 2
ENDMDL
MODEL 6
REMARK VINA RESULT:    -4.430     18.275     19.203
REMARK INTER + INTRA:          -5.078
REMARK INTER:                  -4.984
REMARK INTRA:                  -0.094
REMARK UNBOUND:                -0.130
REMARK  Name = 1550473
REMARK  2 active torsions:
REMARK  status: ('A' for Active; 'I' for Inactive)
REMARK    1  A    between atoms: N_1  and  C_4
REMARK    2  A    between atoms: C_4  and  C_5
REMARK                            x       y       z     vdW  Elec       q    Type
REMARK                         _______ _______ _______ _____ _____    ______ ____
ROOT
ATOM      1  N   UNL     1       8.812 -10.307 -11.764  0.00  0.00    -0.354 N 
ATOM      2  N   UNL     1       7.842 -10.583  -9.680  0.00  0.00    -0.372 N 
ATOM      3  N   UNL     1      10.001  -9.817  -9.804  0.00  0.00    -0.372 N 
ATOM      4  C   UNL     1       8.894 -10.233 -10.429  0.00  0.00    +0.166 C 
ATOM      5  H   UNL     1       7.956 -10.659 -12.175  0.00  0.00    +0.163 HD
ATOM      6  H   UNL     1       7.872 -10.535  -8.670  0.00  0.00    +0.159 HD
ATOM      7  H   UNL     1       6.971 -10.891 -10.095  0.00  0.00    +0.159 HD
ATOM      8  H   UNL     1      10.832  -9.545 -10.312  0.00  0.00    +0.159 HD
ATOM      9  H   UNL     1      10.055  -9.773  -8.794  0.00  0.00    +0.159 HD
ENDROOT
BRANCH   1  10
ATOM     10  C   UNL     1       9.882  -9.898 -12.672  0.00  0.00    +0.151 C 
BRANCH  10  11
ATOM     11  C   UNL     1       9.540 -10.344 -14.067  0.00  0.00    -0.028 A 
ATOM     12  C   UNL     1       9.749 -11.673 -14.461  0.00  0.00    +0.005 A 
ATOM     13  C   UNL     1       9.000  -9.442 -14.997  0.00  0.00    +0.005 A 
ATOM     14  C   UNL     1       9.402 -12.095 -15.748  0.00  0.00    +0.000 A 
ATOM     15  C   UNL     1       8.657  -9.866 -16.281  0.00  0.00    +0.000 A 
ATOM     16  C   UNL     1       8.855 -11.193 -16.655  0.00  0.00    +0.000 A 
ENDBRANCH  10  11
ENDBRANCH   1  10
TORSDOF 2
ENDMDL
MODEL 7
REMARK VINA RESULT:    -4.422     15.160     16.744
REMARK INTER + INTRA:          -5.069
REMARK INTER:                  -4.925
REMARK INTRA:                  -0.144
REMARK UNBOUND:                -0.130
REMARK  Name = 1550473
REMARK  2 active torsions:
REMARK  status: ('A' for Active; 'I' for Inactive)
REMARK    1  A    between atoms: N_1  and  C_4
REMARK    2  A    between atoms: C_4  and  C_5
REMARK                            x       y       z     vdW  Elec       q    Type
REMARK                         _______ _______ _______ _____ _____    ______ ____
ROOT
ATOM      1  N   UNL     1      -8.670  17.584  -3.336  0.00  0.00    -0.354 N 
ATOM      2  N   UNL     1      -8.435  17.035  -1.099  0.00  0.00    -0.372 N 
ATOM      3  N   UNL     1      -7.918  19.164  -1.778  0.00  0.00    -0.372 N 
ATOM      4  C   UNL     1      -8.342  17.934  -2.085  0.00  0.00    +0.166 C 
ATOM      5  H   UNL     1      -8.955  16.627  -3.509  0.00  0.00    +0.163 HD
ATOM      6  H   UNL     1      -8.198  17.270  -0.144  0.00  0.00    +0.159 HD
ATOM      7  H   UNL     1      -8.765  16.092  -1.266  0.00  0.00    +0.159 HD
ATOM      8  H   UNL     1      -7.819  19.887  -2.478  0.00  0.00    +0.159 HD
ATOM      9  H   UNL     1      -7.664  19.416  -0.831  0.00  0.00    +0.159 HD
ENDROOT
BRANCH   1  10
ATOM     10  C   UNL     1      -8.654  18.503  -4.473  0.00  0.00    +0.151 C 
BRANCH  10  11
ATOM     11  C   UNL     1      -7.729  17.963  -5.528  0.00  0.00    -0.028 A 
ATOM     12  C   UNL     1      -8.197  17.053  -6.488  0.00  0.00    +0.005 A 
ATOM     13  C   UNL     1      -6.384  18.361  -5.578  0.00  0.00    +0.005 A 
ATOM     14  C   UNL     1      -7.346  16.574  -7.487  0.00  0.00    +0.000 A 
ATOM     15  C   UNL     1      -5.537  17.880  -6.576  0.00  0.00    +0.000 A 
ATOM     16  C   UNL     1      -6.019  16.989  -7.531  0.00  0.00    +0.000 A 
ENDBRANCH  10  11
ENDBRANCH   1  10
TORSDOF 2
ENDMDL
MODEL 8
REMARK VINA RESULT:    -4.250     14.031     16.371
REMARK INTER + INTRA:          -4.877
REMARK INTER:                  -4.724
REMARK INTRA:                  -0.153
REMARK UNBOUND:                -0.130
REMARK  Name = 1550473
REMARK  2 active torsions:
REMARK  status: ('A' for Active; 'I' for Inactive)
REMARK    1  A    between atoms: N_1  and  C_4
REMARK    2  A    between atoms: C_4  and  C_5
REMARK                            x       y       z     vdW  Elec       q    Type
REMARK                         _______ _______ _______ _____ _____    ______ ____
ROOT
ATOM      1  N   UNL     1       7.523  -2.280 -22.092  0.00  0.00    -0.354 N 
ATOM      2  N   UNL     1       5.495  -3.398 -22.122  0.00  0.00    -0.372 N 
ATOM      3  N   UNL     1       6.505  -2.985 -20.103  0.00  0.00    -0.372 N 
ATOM      4  C   UNL     1       6.522  -2.881 -21.436  0.00  0.00    +0.166 C 
ATOM      5  H   UNL     1       7.492  -2.260 -23.105  0.00  0.00    +0.163 HD
ATOM      6  H   UNL     1       4.723  -3.853 -21.654  0.00  0.00    +0.159 HD
ATOM      7  H   UNL     1       5.443  -3.336 -23.132  0.00  0.00    +0.159 HD
ATOM      8  H   UNL     1       7.252  -2.621 -19.528  0.00  0.00    +0.159 HD
ATOM      9  H   UNL     1       5.747  -3.448 -19.618  0.00  0.00    +0.159 HD
ENDROOT
BRANCH   1  10
ATOM     10  C   UNL     1       8.661  -1.638 -21.437  0.00  0.00    +0.151 C 
BRANCH  10  11
ATOM     11  C   UNL     1       9.921  -2.369 -21.811  0.00  0.00    -0.028 A 
ATOM     12  C   UNL     1      10.940  -1.716 -22.520  0.00  0.00    +0.005 A 
ATOM     13  C   UNL     1      10.104  -3.714 -21.454  0.00  0.00    +0.005 A 
ATOM     14  C   UNL     1      12.122  -2.387 -22.841  0.00  0.00    +0.000 A 
ATOM     15  C   UNL     1      11.286  -4.380 -21.778  0.00  0.00    +0.000 A 
ATOM     16  C   UNL     1      12.296  -3.715 -22.469  0.00  0.00    +0.000 A 
ENDBRANCH  10  11
ENDBRANCH   1  10
TORSDOF 2
ENDMDL
MODEL 9
REMARK VINA RESULT:    -4.244     17.993     20.748
REMARK INTER + INTRA:          -4.869
REMARK INTER:                  -4.688
REMARK INTRA:                  -0.181
REMARK UNBOUND:                -0.130
REMARK  Name = 1550473
REMARK  2 active torsions:
REMARK  status: ('A' for Active; 'I' for Inactive)
REMARK    1  A    between atoms: N_1  and  C_4
REMARK    2  A    between atoms: C_4  and  C_5
REMARK                            x       y       z     vdW  Elec       q    Type
REMARK                         _______ _______ _______ _____ _____    ______ ____
ROOT
ATOM      1  N   UNL     1      11.309  -2.660 -24.551  0.00  0.00    -0.354 N 
ATOM      2  N   UNL     1      10.952  -0.476 -23.869  0.00  0.00    -0.372 N 
ATOM      3  N   UNL     1      11.995  -1.930 -22.433  0.00  0.00    -0.372 N 
ATOM      4  C   UNL     1      11.422  -1.704 -23.619  0.00  0.00    +0.166 C 
ATOM      5  H   UNL     1      10.837  -2.434 -25.419  0.00  0.00    +0.163 HD
ATOM      6  H   UNL     1      11.026   0.267 -23.187  0.00  0.00    +0.159 HD
ATOM      7  H   UNL     1      10.522  -0.240 -24.755  0.00  0.00    +0.159 HD
ATOM      8  H   UNL     1      12.365  -2.837 -22.180  0.00  0.00    +0.159 HD
ATOM      9  H   UNL     1      12.069  -1.202 -21.732  0.00  0.00    +0.159 HD
ENDROOT
BRANCH   1  10
ATOM     10  C   UNL     1      11.836  -4.015 -24.400  0.00  0.00    +0.151 C 
BRANCH  10  11
ATOM     11  C   UNL     1      13.188  -4.093 -25.054  0.00  0.00    -0.028 A 
ATOM     12  C   UNL     1      13.333  -3.818 -26.422  0.00  0.00    +0.005 A 
ATOM     13  C   UNL     1      14.328  -4.434 -24.311  0.00  0.00    +0.005 A 
ATOM     14  C   UNL     1      14.593  -3.860 -27.024  0.00  0.00    +0.000 A 
ATOM     15  C   UNL     1      15.584  -4.476 -24.916  0.00  0.00    +0.000 A 
ATOM     16  C   UNL     1      15.717  -4.186 -26.272  0.00  0.00    +0.000 A 
ENDBRANCH  10  11
ENDBRANCH   1  10
TORSDOF 2
ENDMDL
