MODEL 1
REMARK VINA RESULT:    -5.460      0.000      0.000
REMARK INTER + INTRA:          -6.188
REMARK INTER:                  -6.098
REMARK INTRA:                  -0.091
REMARK UNBOUND:                -0.091
REMARK  Name = 1550473
REMARK  2 active torsions:
REMARK  status: ('A' for Active; 'I' for Inactive)
REMARK    1  A    between atoms: N_1  and  C_4
REMARK    2  A    between atoms: C_4  and  C_5
REMARK                            x       y       z     vdW  Elec       q    Type
REMARK                         _______ _______ _______ _____ _____    ______ ____
ROOT
ATOM      1  N   UNL     1       6.715  -1.986  -6.777  0.00  0.00    -0.354 N 
ATOM      2  N   UNL     1       4.560  -2.805  -7.002  0.00  0.00    -0.372 N 
ATOM      3  N   UNL     1       6.070  -3.179  -8.689  0.00  0.00    -0.372 N 
ATOM      4  C   UNL     1       5.797  -2.652  -7.490  0.00  0.00    +0.166 C 
ATOM      5  H   UNL     1       6.436  -1.585  -5.889  0.00  0.00    +0.163 HD
ATOM      6  H   UNL     1       3.847  -3.305  -7.516  0.00  0.00    +0.159 HD
ATOM      7  H   UNL     1       4.297  -2.442  -6.094  0.00  0.00    +0.159 HD
ATOM      8  H   UNL     1       6.983  -3.093  -9.116  0.00  0.00    +0.159 HD
ATOM      9  H   UNL     1       5.367  -3.673  -9.224  0.00  0.00    +0.159 HD
ENDROOT
BRANCH   1  10
ATOM     10  C   UNL     1       8.105  -1.811  -7.194  0.00  0.00    +0.151 C 
BRANCH  10  11
ATOM     11  C   UNL     1       8.793  -0.882  -6.232  0.00  0.00    -0.028 A 
ATOM     12  C   UNL     1       9.438  -1.388  -5.093  0.00  0.00    +0.005 A 
ATOM     13  C   UNL     1       8.809   0.503  -6.455  0.00  0.00    +0.005 A 
ATOM     14  C   UNL     1      10.103  -0.529  -4.215  0.00  0.00    +0.000 A 
ATOM     15  C   UNL     1       9.473   1.357  -5.575  0.00  0.00    +0.000 A 
ATOM     16  C   UNL     1      10.122   0.841  -4.457  0.00  0.00    +0.000 A 
ENDBRANCH  10  11
ENDBRANCH   1  10
TORSDOF 2
ENDMDL
MODEL 2
REMARK VINA RESULT:    -5.361      1.197      2.275
REMARK INTER + INTRA:          -6.079
REMARK INTER:                  -5.971
REMARK INTRA:                  -0.108
REMARK UNBOUND:                -0.091
REMARK  Name = 1550473
REMARK  2 active torsions:
REMARK  status: ('A' for Active; 'I' for Inactive)
REMARK    1  A    between atoms: N_1  and  C_4
REMARK    2  A    between atoms: C_4  and  C_5
REMARK                            x       y       z     vdW  Elec       q    Type
REMARK                         _______ _______ _______ _____ _____    ______ ____
ROOT
ATOM      1  N   UNL     1       6.491  -3.291  -8.065  0.00  0.00    -0.354 N 
ATOM      2  N   UNL     1       4.994  -2.858  -9.779  0.00  0.00    -0.372 N 
ATOM      3  N   UNL     1       4.315  -2.549  -7.609  0.00  0.00    -0.372 N 
ATOM      4  C   UNL     1       5.275  -2.902  -8.471  0.00  0.00    +0.166 C 
ATOM      5  H   UNL     1       7.164  -3.575  -8.767  0.00  0.00    +0.163 HD
ATOM      6  H   UNL     1       4.087  -2.565 -10.115  0.00  0.00    +0.159 HD
ATOM      7  H   UNL     1       5.684  -3.098 -10.480  0.00  0.00    +0.159 HD
ATOM      8  H   UNL     1       4.461  -2.566  -6.608  0.00  0.00    +0.159 HD
ATOM      9  H   UNL     1       3.397  -2.264  -7.926  0.00  0.00    +0.159 HD
ENDROOT
BRANCH   1  10
ATOM     10  C   UNL     1       6.915  -3.322  -6.666  0.00  0.00    +0.151 C 
BRANCH  10  11
ATOM     11  C   UNL     1       7.850  -2.173  -6.411  0.00  0.00    -0.028 A 
ATOM     12  C   UNL     1       8.305  -1.376  -7.471  0.00  0.00    +0.005 A 
ATOM     13  C   UNL     1       8.279  -1.871  -5.109  0.00  0.00    +0.005 A 
ATOM     14  C   UNL     1       9.150  -0.289  -7.231  0.00  0.00    +0.000 A 
ATOM     15  C   UNL     1       9.123  -0.786  -4.873  0.00  0.00    +0.000 A 
ATOM     16  C   UNL     1       9.556   0.006  -5.934  0.00  0.00    +0.000 A 
ENDBRANCH  10  11
ENDBRANCH   1  10
TORSDOF 2
ENDMDL
MODEL 3
REMARK VINA RESULT:    -5.159     25.793     28.184
REMARK INTER + INTRA:          -5.852
REMARK INTER:                  -5.713
REMARK INTRA:                  -0.139
REMARK UNBOUND:                -0.091
REMARK  Name = 1550473
REMARK  2 active torsions:
REMARK  status: ('A' for Active; 'I' for Inactive)
REMARK    1  A    between atoms: N_1  and  C_4
REMARK    2  A    between atoms: C_4  and  C_5
REMARK                            x       y       z     vdW  Elec       q    Type
REMARK                         _______ _______ _______ _____ _____    ______ ____
ROOT
ATOM      1  N   UNL     1      -0.762 -17.951 -24.480  0.00  0.00    -0.354 N 
ATOM      2  N   UNL     1       1.361 -17.687 -23.593  0.00  0.00    -0.372 N 
ATOM      3  N   UNL     1       1.119 -17.816 -25.871  0.00  0.00    -0.372 N 
ATOM      4  C   UNL     1       0.560 -17.820 -24.657  0.00  0.00    +0.166 C 
ATOM      5  H   UNL     1      -1.120 -17.977 -23.532  0.00  0.00    +0.163 HD
ATOM      6  H   UNL     1       2.362 -17.582 -23.696  0.00  0.00    +0.159 HD
ATOM      7  H   UNL     1       0.995 -17.666 -22.649  0.00  0.00    +0.159 HD
ATOM      8  H   UNL     1       0.570 -17.919 -26.714  0.00  0.00    +0.159 HD
ATOM      9  H   UNL     1       2.120 -17.725 -25.994  0.00  0.00    +0.159 HD
ENDROOT
BRANCH   1  10
ATOM     10  C   UNL     1      -1.727 -18.049 -25.573  0.00  0.00    +0.151 C 
BRANCH  10  11
ATOM     11  C   UNL     1      -2.669 -19.188 -25.296  0.00  0.00    -0.028 A 
ATOM     12  C   UNL     1      -2.756 -19.744 -24.011  0.00  0.00    +0.005 A 
ATOM     13  C   UNL     1      -3.482 -19.713 -26.313  0.00  0.00    +0.005 A 
ATOM     14  C   UNL     1      -3.653 -20.782 -23.747  0.00  0.00    +0.000 A 
ATOM     15  C   UNL     1      -4.375 -20.750 -26.045  0.00  0.00    +0.000 A 
ATOM     16  C   UNL     1      -4.462 -21.282 -24.761  0.00  0.00    +0.000 A 
ENDBRANCH  10  11
ENDBRANCH   1  10
TORSDOF 2
ENDMDL
MODEL 4
REMARK VINA RESULT:    -5.119     18.005     19.613
REMARK INTER + INTRA:          -5.808
REMARK INTER:                  -5.708
REMARK INTRA:                  -0.100
REMARK UNBOUND:                -0.091
REMARK  Name = 1550473
REMARK  2 active torsions:
REMARK  status: ('A' for Active; 'I' for Inactive)
REMARK    1  A    between atoms: N_1  and  C_4
REMARK    2  A    between atoms: C_4  and  C_5
REMARK                            x       y       z     vdW  Elec       q    Type
REMARK                         _______ _______ _______ _____ _____    ______ ____
ROOT
ATOM      1  N   UNL     1      -4.908 -16.506 -12.634  0.00  0.00    -0.354 N 
ATOM      2  N   UNL     1      -5.924 -18.522 -13.154  0.00  0.00    -0.372 N 
ATOM      3  N   UNL     1      -5.996 -17.769 -10.987  0.00  0.00    -0.372 N 
ATOM      4  C   UNL     1      -5.603 -17.586 -12.252  0.00  0.00    +0.166 C 
ATOM      5  H   UNL     1      -4.614 -16.441 -13.602  0.00  0.00    +0.163 HD
ATOM      6  H   UNL     1      -6.450 -19.346 -12.896  0.00  0.00    +0.159 HD
ATOM      7  H   UNL     1      -5.668 -18.432 -14.129  0.00  0.00    +0.159 HD
ATOM      8  H   UNL     1      -5.781 -17.103 -10.258  0.00  0.00    +0.159 HD
ATOM      9  H   UNL     1      -6.514 -18.593 -10.707  0.00  0.00    +0.159 HD
ENDROOT
BRANCH   1  10
ATOM     10  C   UNL     1      -4.554 -15.403 -11.742  0.00  0.00    +0.151 C 
BRANCH  10  11
ATOM     11  C   UNL     1      -3.299 -14.747 -12.246  0.00  0.00    -0.028 A 
ATOM     12  C   UNL     1      -3.286 -14.091 -13.485  0.00  0.00    +0.005 A 
ATOM     13  C   UNL     1      -2.119 -14.773 -11.486  0.00  0.00    +0.005 A 
ATOM     14  C   UNL     1      -2.128 -13.456 -13.940  0.00  0.00    +0.000 A 
ATOM     15  C   UNL     1      -0.965 -14.138 -11.944  0.00  0.00    +0.000 A 
ATOM     16  C   UNL     1      -0.970 -13.478 -13.170  0.00  0.00    +0.000 A 
ENDBRANCH  10  11
ENDBRANCH   1  10
TORSDOF 2
ENDMDL
MODEL 5
REMARK VINA RESULT:    -4.932     34.749     35.810
REMARK INTER + INTRA:          -5.599
REMARK INTER:                  -5.499
REMARK INTRA:                  -0.101
REMARK UNBOUND:                -0.091
REMARK  Name = 1550473
REMARK  2 active torsions:
REMARK  status: ('A' for Active; 'I' for Inactive)
REMARK    1  A    between atoms: N_1  and  C_4
REMARK    2  A    between atoms: C_4  and  C_5
REMARK                            x       y       z     vdW  Elec       q    Type
REMARK                         _______ _______ _______ _____ _____    ______ ____
ROOT
ATOM      1  N   UNL     1      -0.495  -7.158  29.196  0.00  0.00    -0.354 N 
ATOM      2  N   UNL     1      -0.528  -6.952  31.502  0.00  0.00    -0.372 N 
ATOM      3  N   UNL     1       1.340  -7.821  30.493  0.00  0.00    -0.372 N 
ATOM      4  C   UNL     1       0.109  -7.313  30.382  0.00  0.00    +0.166 C 
ATOM      5  H   UNL     1      -1.441  -6.795  29.181  0.00  0.00    +0.163 HD
ATOM      6  H   UNL     1      -0.097  -7.054  32.411  0.00  0.00    +0.159 HD
ATOM      7  H   UNL     1      -1.456  -6.547  31.481  0.00  0.00    +0.159 HD
ATOM      8  H   UNL     1       1.872  -8.119  29.686  0.00  0.00    +0.159 HD
ATOM      9  H   UNL     1       1.784  -7.942  31.395  0.00  0.00    +0.159 HD
ENDROOT
BRANCH   1  10
ATOM     10  C   UNL     1       0.132  -7.470  27.912  0.00  0.00    +0.151 C 
BRANCH  10  11
ATOM     11  C   UNL     1      -0.743  -6.958  26.801  0.00  0.00    -0.028 A 
ATOM     12  C   UNL     1      -1.342  -7.848  25.899  0.00  0.00    +0.005 A 
ATOM     13  C   UNL     1      -0.980  -5.583  26.649  0.00  0.00    +0.005 A 
ATOM     14  C   UNL     1      -2.179  -7.376  24.885  0.00  0.00    +0.000 A 
ATOM     15  C   UNL     1      -1.816  -5.115  25.635  0.00  0.00    +0.000 A 
ATOM     16  C   UNL     1      -2.416  -6.011  24.755  0.00  0.00    +0.000 A 
ENDBRANCH  10  11
ENDBRANCH   1  10
TORSDOF 2
ENDMDL
MODEL 6
REMARK VINA RESULT:    -4.844     34.566     35.609
REMARK INTER + INTRA:          -5.500
REMARK INTER:                  -5.363
REMARK INTRA:                  -0.137
REMARK UNBOUND:                -0.091
REMARK  Name = 1550473
REMARK  2 active torsions:
REMARK  status: ('A' for Active; 'I' for Inactive)
REMARK    1  A    between atoms: N_1  and  C_4
REMARK    2  A    between atoms: C_4  and  C_5
REMARK                            x       y       z     vdW  Elec       q    Type
REMARK                         _______ _______ _______ _____ _____    ______ ____
ROOT
ATOM      1  N   UNL     1      -1.157  -6.472  28.603  0.00  0.00    -0.354 N 
ATOM      2  N   UNL     1      -0.691  -7.555  30.597  0.00  0.00    -0.372 N 
ATOM      3  N   UNL     1       0.675  -7.922  28.790  0.00  0.00    -0.372 N 
ATOM      4  C   UNL     1      -0.392  -7.310  29.315  0.00  0.00    +0.166 C 
ATOM      5  H   UNL     1      -1.970  -6.064  29.051  0.00  0.00    +0.163 HD
ATOM      6  H   UNL     1      -0.131  -8.180  31.160  0.00  0.00    +0.159 HD
ATOM      7  H   UNL     1      -1.477  -7.110  31.055  0.00  0.00    +0.159 HD
ATOM      8  H   UNL     1       0.951  -7.784  27.827  0.00  0.00    +0.159 HD
ATOM      9  H   UNL     1       1.242  -8.560  29.335  0.00  0.00    +0.159 HD
ENDROOT
BRANCH   1  10
ATOM     10  C   UNL     1      -0.886  -6.097  27.217  0.00  0.00    +0.151 C 
BRANCH  10  11
ATOM     11  C   UNL     1      -2.058  -6.495  26.362  0.00  0.00    -0.028 A 
ATOM     12  C   UNL     1      -3.356  -6.080  26.695  0.00  0.00    +0.005 A 
ATOM     13  C   UNL     1      -1.877  -7.282  25.215  0.00  0.00    +0.005 A 
ATOM     14  C   UNL     1      -4.441  -6.425  25.886  0.00  0.00    +0.000 A 
ATOM     15  C   UNL     1      -2.962  -7.625  24.410  0.00  0.00    +0.000 A 
ATOM     16  C   UNL     1      -4.244  -7.194  24.744  0.00  0.00    +0.000 A 
ENDBRANCH  10  11
ENDBRANCH   1  10
TORSDOF 2
ENDMDL
MODEL 7
REMARK VINA RESULT:    -4.731     16.268     17.232
REMARK INTER + INTRA:          -5.374
REMARK INTER:                  -5.231
REMARK INTRA:                  -0.143
REMARK UNBOUND:                -0.091
REMARK  Name = 1550473
REMARK  2 active torsions:
REMARK  status: ('A' for Active; 'I' for Inactive)
REMARK    1  A    between atoms: N_1  and  C_4
REMARK    2  A    between atoms: C_4  and  C_5
REMARK                            x       y       z     vdW  Elec       q    Type
REMARK                         _______ _______ _______ _____ _____    ______ ____
ROOT
ATOM      1  N   UNL     1       6.238   3.977 -22.595  0.00  0.00    -0.354 N 
ATOM      2  N   UNL     1       4.687   2.259 -22.527  0.00  0.00    -0.372 N 
ATOM      3  N   UNL     1       6.227   2.429 -20.835  0.00  0.00    -0.372 N 
ATOM      4  C   UNL     1       5.729   2.899 -21.984  0.00  0.00    +0.166 C 
ATOM      5  H   UNL     1       5.835   4.265 -23.479  0.00  0.00    +0.163 HD
ATOM      6  H   UNL     1       4.279   1.445 -22.088  0.00  0.00    +0.159 HD
ATOM      7  H   UNL     1       4.256   2.576 -23.388  0.00  0.00    +0.159 HD
ATOM      8  H   UNL     1       7.017   2.863 -20.377  0.00  0.00    +0.159 HD
ATOM      9  H   UNL     1       5.840   1.609 -20.386  0.00  0.00    +0.159 HD
ENDROOT
BRANCH   1  10
ATOM     10  C   UNL     1       7.338   4.777 -22.059  0.00  0.00    +0.151 C 
BRANCH  10  11
ATOM     11  C   UNL     1       6.877   6.199 -21.897  0.00  0.00    -0.028 A 
ATOM     12  C   UNL     1       5.602   6.589 -22.333  0.00  0.00    +0.005 A 
ATOM     13  C   UNL     1       7.708   7.161 -21.302  0.00  0.00    +0.005 A 
ATOM     14  C   UNL     1       5.162   7.903 -22.155  0.00  0.00    +0.000 A 
ATOM     15  C   UNL     1       7.266   8.472 -21.127  0.00  0.00    +0.000 A 
ATOM     16  C   UNL     1       5.992   8.842 -21.552  0.00  0.00    +0.000 A 
ENDBRANCH  10  11
ENDBRANCH   1  10
TORSDOF 2
ENDMDL
MODEL 8
REMARK VINA RESULT:    -4.719     18.435     19.894
REMARK INTER + INTRA:          -5.361
REMARK INTER:                  -5.216
REMARK INTRA:                  -0.146
REMARK UNBOUND:                -0.091
REMARK  Name = 1550473
REMARK  2 active torsions:
REMARK  status: ('A' for Active; 'I' for Inactive)
REMARK    1  A    between atoms: N_1  and  C_4
REMARK    2  A    between atoms: C_4  and  C_5
REMARK                            x       y       z     vdW  Elec       q    Type
REMARK                         _______ _______ _______ _____ _____    ______ ____
ROOT
ATOM      1  N   UNL     1      -3.806 -17.447 -11.801  0.00  0.00    -0.354 N 
ATOM      2  N   UNL     1      -3.915 -19.711 -12.276  0.00  0.00    -0.372 N 
ATOM      3  N   UNL     1      -5.581 -18.334 -13.048  0.00  0.00    -0.372 N 
ATOM      4  C   UNL     1      -4.436 -18.482 -12.373  0.00  0.00    +0.166 C 
ATOM      5  H   UNL     1      -2.958 -17.629 -11.277  0.00  0.00    +0.163 HD
ATOM      6  H   UNL     1      -4.366 -20.511 -12.701  0.00  0.00    +0.159 HD
ATOM      7  H   UNL     1      -3.043 -19.884 -11.792  0.00  0.00    +0.159 HD
ATOM      8  H   UNL     1      -6.028 -17.434 -13.153  0.00  0.00    +0.159 HD
ATOM      9  H   UNL     1      -6.053 -19.124 -13.470  0.00  0.00    +0.159 HD
ENDROOT
BRANCH   1  10
ATOM     10  C   UNL     1      -4.261 -16.061 -11.893  0.00  0.00    +0.151 C 
BRANCH  10  11
ATOM     11  C   UNL     1      -3.197 -15.238 -12.566  0.00  0.00    -0.028 A 
ATOM     12  C   UNL     1      -1.841 -15.557 -12.403  0.00  0.00    +0.005 A 
ATOM     13  C   UNL     1      -3.539 -14.142 -13.373  0.00  0.00    +0.005 A 
ATOM     14  C   UNL     1      -0.854 -14.812 -13.052  0.00  0.00    +0.000 A 
ATOM     15  C   UNL     1      -2.550 -13.400 -14.019  0.00  0.00    +0.000 A 
ATOM     16  C   UNL     1      -1.208 -13.737 -13.860  0.00  0.00    +0.000 A 
ENDBRANCH  10  11
ENDBRANCH   1  10
TORSDOF 2
ENDMDL
MODEL 9
REMARK VINA RESULT:    -4.586     14.848     15.625
REMARK INTER + INTRA:          -5.213
REMARK INTER:                  -5.090
REMARK INTRA:                  -0.123
REMARK UNBOUND:                -0.091
REMARK  Name = 1550473
REMARK  2 active torsions:
REMARK  status: ('A' for Active; 'I' for Inactive)
REMARK    1  A    between atoms: N_1  and  C_4
REMARK    2  A    between atoms: C_4  and  C_5
REMARK                            x       y       z     vdW  Elec       q    Type
REMARK                         _______ _______ _______ _____ _____    ______ ____
ROOT
ATOM      1  N   UNL     1      11.180 -14.815 -13.444  0.00  0.00    -0.354 N 
ATOM      2  N   UNL     1      12.340 -13.118 -14.512  0.00  0.00    -0.372 N 
ATOM      3  N   UNL     1      10.079 -12.888 -14.195  0.00  0.00    -0.372 N 
ATOM      4  C   UNL     1      11.189 -13.617 -14.044  0.00  0.00    +0.166 C 
ATOM      5  H   UNL     1      12.050 -15.332 -13.387  0.00  0.00    +0.163 HD
ATOM      6  H   UNL     1      12.378 -12.215 -14.966  0.00  0.00    +0.159 HD
ATOM      7  H   UNL     1      13.216 -13.616 -14.413  0.00  0.00    +0.159 HD
ATOM      8  H   UNL     1       9.177 -13.210 -13.869  0.00  0.00    +0.159 HD
ATOM      9  H   UNL     1      10.095 -11.987 -14.657  0.00  0.00    +0.159 HD
ENDROOT
BRANCH   1  10
ATOM     10  C   UNL     1       9.990 -15.424 -12.852  0.00  0.00    +0.151 C 
BRANCH  10  11
ATOM     11  C   UNL     1      10.251 -15.698 -11.397  0.00  0.00    -0.028 A 
ATOM     12  C   UNL     1      11.285 -15.033 -10.721  0.00  0.00    +0.005 A 
ATOM     13  C   UNL     1       9.463 -16.617 -10.686  0.00  0.00    +0.005 A 
ATOM     14  C   UNL     1      11.508 -15.265  -9.362  0.00  0.00    +0.000 A 
ATOM     15  C   UNL     1       9.690 -16.846  -9.329  0.00  0.00    +0.000 A 
ATOM     16  C   UNL     1      10.711 -16.168  -8.667  0.00  0.00    +0.000 A 
ENDBRANCH  10  11
ENDBRANCH   1  10
TORSDOF 2
ENDMDL
