MODEL 1
REMARK VINA RESULT:    -5.374      0.000      0.000
REMARK INTER + INTRA:          -6.146
REMARK INTER:                  -6.003
REMARK INTRA:                  -0.143
REMARK UNBOUND:                -0.143
REMARK  Name = 1550473
REMARK  2 active torsions:
REMARK  status: ('A' for Active; 'I' for Inactive)
REMARK    1  A    between atoms: N_1  and  C_4
REMARK    2  A    between atoms: C_4  and  C_5
REMARK                            x       y       z     vdW  Elec       q    Type
REMARK                         _______ _______ _______ _____ _____    ______ ____
ROOT
ATOM      1  N   UNL     1      11.688  -6.418  -6.070  0.00  0.00    -0.354 N 
ATOM      2  N   UNL     1      11.949  -8.418  -4.931  0.00  0.00    -0.372 N 
ATOM      3  N   UNL     1      10.064  -7.165  -4.555  0.00  0.00    -0.372 N 
ATOM      4  C   UNL     1      11.230  -7.320  -5.191  0.00  0.00    +0.166 C 
ATOM      5  H   UNL     1      12.594  -6.579  -6.496  0.00  0.00    +0.163 HD
ATOM      6  H   UNL     1      11.627  -9.117  -4.275  0.00  0.00    +0.159 HD
ATOM      7  H   UNL     1      12.832  -8.598  -5.393  0.00  0.00    +0.159 HD
ATOM      8  H   UNL     1       9.476  -6.356  -4.703  0.00  0.00    +0.159 HD
ATOM      9  H   UNL     1       9.730  -7.848  -3.886  0.00  0.00    +0.159 HD
ENDROOT
BRANCH   1  10
ATOM     10  C   UNL     1      10.957  -5.216  -6.465  0.00  0.00    +0.151 C 
BRANCH  10  11
ATOM     11  C   UNL     1      10.673  -5.275  -7.940  0.00  0.00    -0.028 A 
ATOM     12  C   UNL     1       9.439  -4.843  -8.446  0.00  0.00    +0.005 A 
ATOM     13  C   UNL     1      11.637  -5.758  -8.839  0.00  0.00    +0.005 A 
ATOM     14  C   UNL     1       9.186  -4.870  -9.820  0.00  0.00    +0.000 A 
ATOM     15  C   UNL     1      11.381  -5.785 -10.209  0.00  0.00    +0.000 A 
ATOM     16  C   UNL     1      10.156  -5.338 -10.700  0.00  0.00    +0.000 A 
ENDBRANCH  10  11
ENDBRANCH   1  10
TORSDOF 2
ENDMDL
MODEL 2
REMARK VINA RESULT:    -5.235     13.129     13.826
REMARK INTER + INTRA:          -5.990
REMARK INTER:                  -5.841
REMARK INTRA:                  -0.150
REMARK UNBOUND:                -0.143
REMARK  Name = 1550473
REMARK  2 active torsions:
REMARK  status: ('A' for Active; 'I' for Inactive)
REMARK    1  A    between atoms: N_1  and  C_4
REMARK    2  A    between atoms: C_4  and  C_5
REMARK                            x       y       z     vdW  Elec       q    Type
REMARK                         _______ _______ _______ _____ _____    ______ ____
ROOT
ATOM      1  N   UNL     1      -0.724 -15.632  -9.980  0.00  0.00    -0.354 N 
ATOM      2  N   UNL     1      -2.242 -16.424  -8.421  0.00  0.00    -0.372 N 
ATOM      3  N   UNL     1      -0.176 -17.414  -8.560  0.00  0.00    -0.372 N 
ATOM      4  C   UNL     1      -1.035 -16.487  -8.997  0.00  0.00    +0.166 C 
ATOM      5  H   UNL     1      -1.430 -14.973 -10.287  0.00  0.00    +0.163 HD
ATOM      6  H   UNL     1      -2.504 -17.054  -7.674  0.00  0.00    +0.159 HD
ATOM      7  H   UNL     1      -2.929 -15.734  -8.698  0.00  0.00    +0.159 HD
ATOM      8  H   UNL     1       0.748 -17.517  -8.957  0.00  0.00    +0.159 HD
ATOM      9  H   UNL     1      -0.424 -18.061  -7.822  0.00  0.00    +0.159 HD
ENDROOT
BRANCH   1  10
ATOM     10  C   UNL     1       0.582 -15.581 -10.637  0.00  0.00    +0.151 C 
BRANCH  10  11
ATOM     11  C   UNL     1       1.487 -14.665  -9.861  0.00  0.00    -0.028 A 
ATOM     12  C   UNL     1       2.655 -15.158  -9.262  0.00  0.00    +0.005 A 
ATOM     13  C   UNL     1       1.184 -13.301  -9.725  0.00  0.00    +0.005 A 
ATOM     14  C   UNL     1       3.512 -14.301  -8.566  0.00  0.00    +0.000 A 
ATOM     15  C   UNL     1       2.041 -12.449  -9.029  0.00  0.00    +0.000 A 
ATOM     16  C   UNL     1       3.206 -12.949  -8.452  0.00  0.00    +0.000 A 
ENDBRANCH  10  11
ENDBRANCH   1  10
TORSDOF 2
ENDMDL
MODEL 3
REMARK VINA RESULT:    -5.209      3.808      5.089
REMARK INTER + INTRA:          -5.961
REMARK INTER:                  -5.796
REMARK INTRA:                  -0.164
REMARK UNBOUND:                -0.143
REMARK  Name = 1550473
REMARK  2 active torsions:
REMARK  status: ('A' for Active; 'I' for Inactive)
REMARK    1  A    between atoms: N_1  and  C_4
REMARK    2  A    between atoms: C_4  and  C_5
REMARK                            x       y       z     vdW  Elec       q    Type
REMARK                         _______ _______ _______ _____ _____    ______ ____
ROOT
ATOM      1  N   UNL     1       7.462  -6.027 -10.185  0.00  0.00    -0.354 N 
ATOM      2  N   UNL     1       6.556  -7.965 -11.072  0.00  0.00    -0.372 N 
ATOM      3  N   UNL     1       7.621  -6.495 -12.476  0.00  0.00    -0.372 N 
ATOM      4  C   UNL     1       7.220  -6.815 -11.241  0.00  0.00    +0.166 C 
ATOM      5  H   UNL     1       7.105  -6.312  -9.280  0.00  0.00    +0.163 HD
ATOM      6  H   UNL     1       6.361  -8.582 -11.850  0.00  0.00    +0.159 HD
ATOM      7  H   UNL     1       6.240  -8.269 -10.159  0.00  0.00    +0.159 HD
ATOM      8  H   UNL     1       8.121  -5.638 -12.671  0.00  0.00    +0.159 HD
ATOM      9  H   UNL     1       7.425  -7.094 -13.269  0.00  0.00    +0.159 HD
ENDROOT
BRANCH   1  10
ATOM     10  C   UNL     1       8.223  -4.781 -10.253  0.00  0.00    +0.151 C 
BRANCH  10  11
ATOM     11  C   UNL     1       9.569  -4.992  -9.616  0.00  0.00    -0.028 A 
ATOM     12  C   UNL     1      10.598  -5.633 -10.321  0.00  0.00    +0.005 A 
ATOM     13  C   UNL     1       9.823  -4.549  -8.309  0.00  0.00    +0.005 A 
ATOM     14  C   UNL     1      11.857  -5.802  -9.741  0.00  0.00    +0.000 A 
ATOM     15  C   UNL     1      11.082  -4.721  -7.733  0.00  0.00    +0.000 A 
ATOM     16  C   UNL     1      12.099  -5.345  -8.450  0.00  0.00    +0.000 A 
ENDBRANCH  10  11
ENDBRANCH   1  10
TORSDOF 2
ENDMDL
MODEL 4
REMARK VINA RESULT:    -5.175      6.514      8.412
REMARK INTER + INTRA:          -5.923
REMARK INTER:                  -5.806
REMARK INTRA:                  -0.117
REMARK UNBOUND:                -0.143
REMARK  Name = 1550473
REMARK  2 active torsions:
REMARK  status: ('A' for Active; 'I' for Inactive)
REMARK    1  A    between atoms: N_1  and  C_4
REMARK    2  A    between atoms: C_4  and  C_5
REMARK                            x       y       z     vdW  Elec       q    Type
REMARK                         _______ _______ _______ _____ _____    ______ ____
ROOT
ATOM      1  N   UNL     1      10.979  -5.069 -15.739  0.00  0.00    -0.354 N 
ATOM      2  N   UNL     1      12.363  -6.060 -17.309  0.00  0.00    -0.372 N 
ATOM      3  N   UNL     1      11.301  -4.099 -17.849  0.00  0.00    -0.372 N 
ATOM      4  C   UNL     1      11.538  -5.067 -16.957  0.00  0.00    +0.166 C 
ATOM      5  H   UNL     1      11.175  -5.847 -15.121  0.00  0.00    +0.163 HD
ATOM      6  H   UNL     1      12.802  -6.084 -18.220  0.00  0.00    +0.159 HD
ATOM      7  H   UNL     1      12.594  -6.813 -16.672  0.00  0.00    +0.159 HD
ATOM      8  H   UNL     1      10.683  -3.325 -17.647  0.00  0.00    +0.159 HD
ATOM      9  H   UNL     1      11.722  -4.112 -18.769  0.00  0.00    +0.159 HD
ENDROOT
BRANCH   1  10
ATOM     10  C   UNL     1      10.109  -4.007 -15.238  0.00  0.00    +0.151 C 
BRANCH  10  11
ATOM     11  C   UNL     1       9.752  -4.299 -13.807  0.00  0.00    -0.028 A 
ATOM     12  C   UNL     1      10.641  -5.001 -12.980  0.00  0.00    +0.005 A 
ATOM     13  C   UNL     1       8.527  -3.872 -13.270  0.00  0.00    +0.005 A 
ATOM     14  C   UNL     1      10.323  -5.246 -11.642  0.00  0.00    +0.000 A 
ATOM     15  C   UNL     1       8.213  -4.120 -11.934  0.00  0.00    +0.000 A 
ATOM     16  C   UNL     1       9.112  -4.805 -11.120  0.00  0.00    +0.000 A 
ENDBRANCH  10  11
ENDBRANCH   1  10
TORSDOF 2
ENDMDL
MODEL 5
REMARK VINA RESULT:    -5.170      2.077      2.818
REMARK INTER + INTRA:          -5.918
REMARK INTER:                  -5.770
REMARK INTRA:                  -0.148
REMARK UNBOUND:                -0.143
REMARK  Name = 1550473
REMARK  2 active torsions:
REMARK  status: ('A' for Active; 'I' for Inactive)
REMARK    1  A    between atoms: N_1  and  C_4
REMARK    2  A    between atoms: C_4  and  C_5
REMARK                            x       y       z     vdW  Elec       q    Type
REMARK                         _______ _______ _______ _____ _____    ______ ____
ROOT
ATOM      1  N   UNL     1      11.261  -6.941  -4.928  0.00  0.00    -0.354 N 
ATOM      2  N   UNL     1      12.617  -8.735  -4.373  0.00  0.00    -0.372 N 
ATOM      3  N   UNL     1      13.352  -7.234  -5.946  0.00  0.00    -0.372 N 
ATOM      4  C   UNL     1      12.403  -7.624  -5.088  0.00  0.00    +0.166 C 
ATOM      5  H   UNL     1      10.568  -7.305  -4.284  0.00  0.00    +0.163 HD
ATOM      6  H   UNL     1      13.470  -9.269  -4.470  0.00  0.00    +0.159 HD
ATOM      7  H   UNL     1      11.942  -9.071  -3.697  0.00  0.00    +0.159 HD
ATOM      8  H   UNL     1      13.249  -6.408  -6.519  0.00  0.00    +0.159 HD
ATOM      9  H   UNL     1      14.207  -7.762  -6.065  0.00  0.00    +0.159 HD
ENDROOT
BRANCH   1  10
ATOM     10  C   UNL     1      10.954  -5.689  -5.619  0.00  0.00    +0.151 C 
BRANCH  10  11
ATOM     11  C   UNL     1       9.698  -5.870  -6.427  0.00  0.00    -0.028 A 
ATOM     12  C   UNL     1       8.908  -7.018  -6.268  0.00  0.00    +0.005 A 
ATOM     13  C   UNL     1       9.291  -4.894  -7.350  0.00  0.00    +0.005 A 
ATOM     14  C   UNL     1       7.726  -7.172  -6.996  0.00  0.00    +0.000 A 
ATOM     15  C   UNL     1       8.110  -5.053  -8.076  0.00  0.00    +0.000 A 
ATOM     16  C   UNL     1       7.327  -6.190  -7.897  0.00  0.00    +0.000 A 
ENDBRANCH  10  11
ENDBRANCH   1  10
TORSDOF 2
ENDMDL
MODEL 6
REMARK VINA RESULT:    -5.164      1.482      2.172
REMARK INTER + INTRA:          -5.910
REMARK INTER:                  -5.744
REMARK INTRA:                  -0.167
REMARK UNBOUND:                -0.143
REMARK  Name = 1550473
REMARK  2 active torsions:
REMARK  status: ('A' for Active; 'I' for Inactive)
REMARK    1  A    between atoms: N_1  and  C_4
REMARK    2  A    between atoms: C_4  and  C_5
REMARK                            x       y       z     vdW  Elec       q    Type
REMARK                         _______ _______ _______ _____ _____    ______ ____
ROOT
ATOM      1  N   UNL     1      10.506  -8.542  -6.368  0.00  0.00    -0.354 N 
ATOM      2  N   UNL     1      12.141  -8.539  -4.727  0.00  0.00    -0.372 N 
ATOM      3  N   UNL     1      10.399  -7.055  -4.560  0.00  0.00    -0.372 N 
ATOM      4  C   UNL     1      11.003  -8.043  -5.228  0.00  0.00    +0.166 C 
ATOM      5  H   UNL     1      11.028  -9.271  -6.842  0.00  0.00    +0.163 HD
ATOM      6  H   UNL     1      12.538  -8.185  -3.867  0.00  0.00    +0.159 HD
ATOM      7  H   UNL     1      12.636  -9.298  -5.179  0.00  0.00    +0.159 HD
ATOM      8  H   UNL     1       9.541  -6.633  -4.889  0.00  0.00    +0.159 HD
ATOM      9  H   UNL     1      10.787  -6.679  -3.704  0.00  0.00    +0.159 HD
ENDROOT
BRANCH   1  10
ATOM     10  C   UNL     1       9.246  -8.110  -6.969  0.00  0.00    +0.151 C 
BRANCH  10  11
ATOM     11  C   UNL     1       9.535  -7.091  -8.037  0.00  0.00    -0.028 A 
ATOM     12  C   UNL     1      10.567  -7.304  -8.963  0.00  0.00    +0.005 A 
ATOM     13  C   UNL     1       8.778  -5.914  -8.131  0.00  0.00    +0.005 A 
ATOM     14  C   UNL     1      10.817  -6.372  -9.973  0.00  0.00    +0.000 A 
ATOM     15  C   UNL     1       9.031  -4.985  -9.141  0.00  0.00    +0.000 A 
ATOM     16  C   UNL     1      10.049  -5.216 -10.063  0.00  0.00    +0.000 A 
ENDBRANCH  10  11
ENDBRANCH   1  10
TORSDOF 2
ENDMDL
MODEL 7
REMARK VINA RESULT:    -5.138      3.715      4.860
REMARK INTER + INTRA:          -5.882
REMARK INTER:                  -5.737
REMARK INTRA:                  -0.145
REMARK UNBOUND:                -0.143
REMARK  Name = 1550473
REMARK  2 active torsions:
REMARK  status: ('A' for Active; 'I' for Inactive)
REMARK    1  A    between atoms: N_1  and  C_4
REMARK    2  A    between atoms: C_4  and  C_5
REMARK                            x       y       z     vdW  Elec       q    Type
REMARK                         _______ _______ _______ _____ _____    ______ ____
ROOT
ATOM      1  N   UNL     1       7.108  -7.021  -8.764  0.00  0.00    -0.354 N 
ATOM      2  N   UNL     1       6.822  -7.555 -10.999  0.00  0.00    -0.372 N 
ATOM      3  N   UNL     1       7.590  -9.170  -9.562  0.00  0.00    -0.372 N 
ATOM      4  C   UNL     1       7.176  -7.914  -9.760  0.00  0.00    +0.166 C 
ATOM      5  H   UNL     1       6.815  -6.076  -8.984  0.00  0.00    +0.163 HD
ATOM      6  H   UNL     1       6.860  -8.208 -11.770  0.00  0.00    +0.159 HD
ATOM      7  H   UNL     1       6.486  -6.622 -11.208  0.00  0.00    +0.159 HD
ATOM      8  H   UNL     1       7.877  -9.503  -8.652  0.00  0.00    +0.159 HD
ATOM      9  H   UNL     1       7.646  -9.836 -10.323  0.00  0.00    +0.159 HD
ENDROOT
BRANCH   1  10
ATOM     10  C   UNL     1       7.420  -7.326  -7.369  0.00  0.00    +0.151 C 
BRANCH  10  11
ATOM     11  C   UNL     1       8.546  -6.440  -6.912  0.00  0.00    -0.028 A 
ATOM     12  C   UNL     1       8.680  -5.139  -7.419  0.00  0.00    +0.005 A 
ATOM     13  C   UNL     1       9.480  -6.894  -5.968  0.00  0.00    +0.005 A 
ATOM     14  C   UNL     1       9.708  -4.306  -6.973  0.00  0.00    +0.000 A 
ATOM     15  C   UNL     1      10.506  -6.059  -5.526  0.00  0.00    +0.000 A 
ATOM     16  C   UNL     1      10.619  -4.765  -6.027  0.00  0.00    +0.000 A 
ENDBRANCH  10  11
ENDBRANCH   1  10
TORSDOF 2
ENDMDL
MODEL 8
REMARK VINA RESULT:    -4.975      3.522      4.944
REMARK INTER + INTRA:          -5.700
REMARK INTER:                  -5.565
REMARK INTRA:                  -0.135
REMARK UNBOUND:                -0.143
REMARK  Name = 1550473
REMARK  2 active torsions:
REMARK  status: ('A' for Active; 'I' for Inactive)
REMARK    1  A    between atoms: N_1  and  C_4
REMARK    2  A    between atoms: C_4  and  C_5
REMARK                            x       y       z     vdW  Elec       q    Type
REMARK                         _______ _______ _______ _____ _____    ______ ____
ROOT
ATOM      1  N   UNL     1       8.823  -5.398 -10.066  0.00  0.00    -0.354 N 
ATOM      2  N   UNL     1       7.254  -6.287  -8.612  0.00  0.00    -0.372 N 
ATOM      3  N   UNL     1       9.103  -7.536  -9.147  0.00  0.00    -0.372 N 
ATOM      4  C   UNL     1       8.405  -6.403  -9.285  0.00  0.00    +0.166 C 
ATOM      5  H   UNL     1       8.233  -4.578 -10.151  0.00  0.00    +0.163 HD
ATOM      6  H   UNL     1       6.915  -7.027  -8.013  0.00  0.00    +0.159 HD
ATOM      7  H   UNL     1       6.689  -5.447  -8.664  0.00  0.00    +0.159 HD
ATOM      8  H   UNL     1       9.977  -7.689  -9.632  0.00  0.00    +0.159 HD
ATOM      9  H   UNL     1       8.774  -8.293  -8.560  0.00  0.00    +0.159 HD
ENDROOT
BRANCH   1  10
ATOM     10  C   UNL     1      10.088  -5.403 -10.798  0.00  0.00    +0.151 C 
BRANCH  10  11
ATOM     11  C   UNL     1       9.864  -4.828 -12.169  0.00  0.00    -0.028 A 
ATOM     12  C   UNL     1      10.838  -4.971 -13.168  0.00  0.00    +0.005 A 
ATOM     13  C   UNL     1       8.678  -4.145 -12.477  0.00  0.00    +0.005 A 
ATOM     14  C   UNL     1      10.618  -4.464 -14.451  0.00  0.00    +0.000 A 
ATOM     15  C   UNL     1       8.463  -3.639 -13.759  0.00  0.00    +0.000 A 
ATOM     16  C   UNL     1       9.432  -3.801 -14.746  0.00  0.00    +0.000 A 
ENDBRANCH  10  11
ENDBRANCH   1  10
TORSDOF 2
ENDMDL
MODEL 9
REMARK VINA RESULT:    -4.917      1.117      2.121
REMARK INTER + INTRA:          -5.635
REMARK INTER:                  -5.496
REMARK INTRA:                  -0.139
REMARK UNBOUND:                -0.143
REMARK  Name = 1550473
REMARK  2 active torsions:
REMARK  status: ('A' for Active; 'I' for Inactive)
REMARK    1  A    between atoms: N_1  and  C_4
REMARK    2  A    between atoms: C_4  and  C_5
REMARK                            x       y       z     vdW  Elec       q    Type
REMARK                         _______ _______ _______ _____ _____    ______ ____
ROOT
ATOM      1  N   UNL     1      10.896  -6.618  -6.945  0.00  0.00    -0.354 N 
ATOM      2  N   UNL     1      10.448  -6.758  -4.677  0.00  0.00    -0.372 N 
ATOM      3  N   UNL     1      12.341  -5.661  -5.367  0.00  0.00    -0.372 N 
ATOM      4  C   UNL     1      11.234  -6.343  -5.677  0.00  0.00    +0.166 C 
ATOM      5  H   UNL     1      10.060  -7.166  -7.112  0.00  0.00    +0.163 HD
ATOM      6  H   UNL     1      10.675  -6.563  -3.711  0.00  0.00    +0.159 HD
ATOM      7  H   UNL     1       9.589  -7.266  -4.849  0.00  0.00    +0.159 HD
ATOM      8  H   UNL     1      12.980  -5.325  -6.076  0.00  0.00    +0.159 HD
ATOM      9  H   UNL     1      12.592  -5.466  -4.406  0.00  0.00    +0.159 HD
ENDROOT
BRANCH   1  10
ATOM     10  C   UNL     1      11.655  -6.166  -8.109  0.00  0.00    +0.151 C 
BRANCH  10  11
ATOM     11  C   UNL     1      10.700  -5.636  -9.143  0.00  0.00    -0.028 A 
ATOM     12  C   UNL     1      11.033  -5.671 -10.505  0.00  0.00    +0.005 A 
ATOM     13  C   UNL     1       9.456  -5.105  -8.767  0.00  0.00    +0.005 A 
ATOM     14  C   UNL     1      10.134  -5.207 -11.467  0.00  0.00    +0.000 A 
ATOM     15  C   UNL     1       8.561  -4.642  -9.731  0.00  0.00    +0.000 A 
ATOM     16  C   UNL     1       8.899  -4.695 -11.081  0.00  0.00    +0.000 A 
ENDBRANCH  10  11
ENDBRANCH   1  10
TORSDOF 2
ENDMDL
