MODEL 1
REMARK VINA RESULT:    -4.917      0.000      0.000
REMARK INTER + INTRA:          -5.661
REMARK INTER:                  -5.492
REMARK INTRA:                  -0.170
REMARK UNBOUND:                -0.170
REMARK  Name = 1550473
REMARK  2 active torsions:
REMARK  status: ('A' for Active; 'I' for Inactive)
REMARK    1  A    between atoms: N_1  and  C_4
REMARK    2  A    between atoms: C_4  and  C_5
REMARK                            x       y       z     vdW  Elec       q    Type
REMARK                         _______ _______ _______ _____ _____    ______ ____
ROOT
ATOM      1  N   UNL     1      -7.438  12.951 -14.133  0.00  0.00    -0.354 N 
ATOM      2  N   UNL     1      -6.771  12.909 -11.916  0.00  0.00    -0.372 N 
ATOM      3  N   UNL     1      -6.887  10.933 -13.076  0.00  0.00    -0.372 N 
ATOM      4  C   UNL     1      -7.036  12.262 -13.057  0.00  0.00    +0.166 C 
ATOM      5  H   UNL     1      -7.561  13.953 -14.045  0.00  0.00    +0.163 HD
ATOM      6  H   UNL     1      -6.463  12.416 -11.088  0.00  0.00    +0.159 HD
ATOM      7  H   UNL     1      -6.850  13.916 -11.843  0.00  0.00    +0.159 HD
ATOM      8  H   UNL     1      -7.077  10.385 -13.905  0.00  0.00    +0.159 HD
ATOM      9  H   UNL     1      -6.591  10.421 -12.255  0.00  0.00    +0.159 HD
ENDROOT
BRANCH   1  10
ATOM     10  C   UNL     1      -7.701  12.348 -15.439  0.00  0.00    +0.151 C 
BRANCH  10  11
ATOM     11  C   UNL     1      -9.187  12.285 -15.661  0.00  0.00    -0.028 A 
ATOM     12  C   UNL     1      -9.964  13.451 -15.608  0.00  0.00    +0.005 A 
ATOM     13  C   UNL     1      -9.822  11.063 -15.929  0.00  0.00    +0.005 A 
ATOM     14  C   UNL     1     -11.340  13.398 -15.844  0.00  0.00    +0.000 A 
ATOM     15  C   UNL     1     -11.196  11.014 -16.163  0.00  0.00    +0.000 A 
ATOM     16  C   UNL     1     -11.955  12.181 -16.123  0.00  0.00    +0.000 A 
ENDBRANCH  10  11
ENDBRANCH   1  10
TORSDOF 2
ENDMDL
MODEL 2
REMARK VINA RESULT:    -4.904     22.054     23.083
REMARK INTER + INTRA:          -5.647
REMARK INTER:                  -5.537
REMARK INTRA:                  -0.110
REMARK UNBOUND:                -0.170
REMARK  Name = 1550473
REMARK  2 active torsions:
REMARK  status: ('A' for Active; 'I' for Inactive)
REMARK    1  A    between atoms: N_1  and  C_4
REMARK    2  A    between atoms: C_4  and  C_5
REMARK                            x       y       z     vdW  Elec       q    Type
REMARK                         _______ _______ _______ _____ _____    ______ ____
ROOT
ATOM      1  N   UNL     1      -6.860   1.071   5.380  0.00  0.00    -0.354 N 
ATOM      2  N   UNL     1      -8.918   0.009   5.408  0.00  0.00    -0.372 N 
ATOM      3  N   UNL     1      -7.478  -0.411   3.672  0.00  0.00    -0.372 N 
ATOM      4  C   UNL     1      -7.738   0.229   4.817  0.00  0.00    +0.166 C 
ATOM      5  H   UNL     1      -7.130   1.548   6.232  0.00  0.00    +0.163 HD
ATOM      6  H   UNL     1      -9.599  -0.624   5.009  0.00  0.00    +0.159 HD
ATOM      7  H   UNL     1      -9.166   0.452   6.285  0.00  0.00    +0.159 HD
ATOM      8  H   UNL     1      -6.607  -0.283   3.173  0.00  0.00    +0.159 HD
ATOM      9  H   UNL     1      -8.151  -1.039   3.251  0.00  0.00    +0.159 HD
ENDROOT
BRANCH   1  10
ATOM     10  C   UNL     1      -5.526   1.339   4.845  0.00  0.00    +0.151 C 
BRANCH  10  11
ATOM     11  C   UNL     1      -5.071   2.693   5.316  0.00  0.00    -0.028 A 
ATOM     12  C   UNL     1      -4.462   3.589   4.426  0.00  0.00    +0.005 A 
ATOM     13  C   UNL     1      -5.252   3.088   6.651  0.00  0.00    +0.005 A 
ATOM     14  C   UNL     1      -4.066   4.857   4.856  0.00  0.00    +0.000 A 
ATOM     15  C   UNL     1      -4.855   4.355   7.076  0.00  0.00    +0.000 A 
ATOM     16  C   UNL     1      -4.264   5.241   6.178  0.00  0.00    +0.000 A 
ENDBRANCH  10  11
ENDBRANCH   1  10
TORSDOF 2
ENDMDL
MODEL 3
REMARK VINA RESULT:    -4.877     21.955     22.617
REMARK INTER + INTRA:          -5.617
REMARK INTER:                  -5.487
REMARK INTRA:                  -0.130
REMARK UNBOUND:                -0.170
REMARK  Name = 1550473
REMARK  2 active torsions:
REMARK  status: ('A' for Active; 'I' for Inactive)
REMARK    1  A    between atoms: N_1  and  C_4
REMARK    2  A    between atoms: C_4  and  C_5
REMARK                            x       y       z     vdW  Elec       q    Type
REMARK                         _______ _______ _______ _____ _____    ______ ____
ROOT
ATOM      1  N   UNL     1       3.601  -0.309  -0.777  0.00  0.00    -0.354 N 
ATOM      2  N   UNL     1       5.864  -0.047  -0.358  0.00  0.00    -0.372 N 
ATOM      3  N   UNL     1       4.362   1.220   0.828  0.00  0.00    -0.372 N 
ATOM      4  C   UNL     1       4.593   0.288  -0.103  0.00  0.00    +0.166 C 
ATOM      5  H   UNL     1       3.843  -0.985  -1.492  0.00  0.00    +0.163 HD
ATOM      6  H   UNL     1       6.633   0.383   0.137  0.00  0.00    +0.159 HD
ATOM      7  H   UNL     1       6.101  -0.757  -1.040  0.00  0.00    +0.159 HD
ATOM      8  H   UNL     1       3.426   1.522   1.063  0.00  0.00    +0.159 HD
ATOM      9  H   UNL     1       5.120   1.671   1.326  0.00  0.00    +0.159 HD
ENDROOT
BRANCH   1  10
ATOM     10  C   UNL     1       2.181  -0.054  -0.538  0.00  0.00    +0.151 C 
BRANCH  10  11
ATOM     11  C   UNL     1       1.398  -1.295  -0.868  0.00  0.00    -0.028 A 
ATOM     12  C   UNL     1       0.011  -1.336  -0.664  0.00  0.00    +0.005 A 
ATOM     13  C   UNL     1       2.035  -2.430  -1.391  0.00  0.00    +0.005 A 
ATOM     14  C   UNL     1      -0.722  -2.477  -0.999  0.00  0.00    +0.000 A 
ATOM     15  C   UNL     1       1.300  -3.568  -1.724  0.00  0.00    +0.000 A 
ATOM     16  C   UNL     1      -0.079  -3.590  -1.530  0.00  0.00    +0.000 A 
ENDBRANCH  10  11
ENDBRANCH   1  10
TORSDOF 2
ENDMDL
MODEL 4
REMARK VINA RESULT:    -4.714     13.379     14.404
REMARK INTER + INTRA:          -5.434
REMARK INTER:                  -5.316
REMARK INTRA:                  -0.118
REMARK UNBOUND:                -0.170
REMARK  Name = 1550473
REMARK  2 active torsions:
REMARK  status: ('A' for Active; 'I' for Inactive)
REMARK    1  A    between atoms: N_1  and  C_4
REMARK    2  A    between atoms: C_4  and  C_5
REMARK                            x       y       z     vdW  Elec       q    Type
REMARK                         _______ _______ _______ _____ _____    ______ ____
ROOT
ATOM      1  N   UNL     1      -4.983   3.981  -3.526  0.00  0.00    -0.354 N 
ATOM      2  N   UNL     1      -4.661   1.717  -3.892  0.00  0.00    -0.372 N 
ATOM      3  N   UNL     1      -2.901   2.979  -3.134  0.00  0.00    -0.372 N 
ATOM      4  C   UNL     1      -4.181   2.908  -3.514  0.00  0.00    +0.166 C 
ATOM      5  H   UNL     1      -5.935   3.867  -3.854  0.00  0.00    +0.163 HD
ATOM      6  H   UNL     1      -4.081   0.889  -3.891  0.00  0.00    +0.159 HD
ATOM      7  H   UNL     1      -5.626   1.597  -4.176  0.00  0.00    +0.159 HD
ATOM      8  H   UNL     1      -2.477   3.850  -2.843  0.00  0.00    +0.159 HD
ATOM      9  H   UNL     1      -2.301   2.164  -3.137  0.00  0.00    +0.159 HD
ENDROOT
BRANCH   1  10
ATOM     10  C   UNL     1      -4.574   5.313  -3.082  0.00  0.00    +0.151 C 
BRANCH  10  11
ATOM     11  C   UNL     1      -5.798   6.164  -2.888  0.00  0.00    -0.028 A 
ATOM     12  C   UNL     1      -6.976   5.890  -3.599  0.00  0.00    +0.005 A 
ATOM     13  C   UNL     1      -5.790   7.242  -1.991  0.00  0.00    +0.005 A 
ATOM     14  C   UNL     1      -8.123   6.661  -3.397  0.00  0.00    +0.000 A 
ATOM     15  C   UNL     1      -6.936   8.011  -1.792  0.00  0.00    +0.000 A 
ATOM     16  C   UNL     1      -8.103   7.719  -2.494  0.00  0.00    +0.000 A 
ENDBRANCH  10  11
ENDBRANCH   1  10
TORSDOF 2
ENDMDL
MODEL 5
REMARK VINA RESULT:    -4.708     20.412     21.821
REMARK INTER + INTRA:          -5.428
REMARK INTER:                  -5.284
REMARK INTRA:                  -0.144
REMARK UNBOUND:                -0.170
REMARK  Name = 1550473
REMARK  2 active torsions:
REMARK  status: ('A' for Active; 'I' for Inactive)
REMARK    1  A    between atoms: N_1  and  C_4
REMARK    2  A    between atoms: C_4  and  C_5
REMARK                            x       y       z     vdW  Elec       q    Type
REMARK                         _______ _______ _______ _____ _____    ______ ____
ROOT
ATOM      1  N   UNL     1      -1.819  -3.326  -1.528  0.00  0.00    -0.354 N 
ATOM      2  N   UNL     1      -3.823  -2.970  -0.424  0.00  0.00    -0.372 N 
ATOM      3  N   UNL     1      -1.968  -3.537   0.801  0.00  0.00    -0.372 N 
ATOM      4  C   UNL     1      -2.522  -3.281  -0.388  0.00  0.00    +0.166 C 
ATOM      5  H   UNL     1      -2.304  -3.151  -2.400  0.00  0.00    +0.163 HD
ATOM      6  H   UNL     1      -4.379  -2.924   0.420  0.00  0.00    +0.159 HD
ATOM      7  H   UNL     1      -4.295  -2.750  -1.293  0.00  0.00    +0.159 HD
ATOM      8  H   UNL     1      -0.992  -3.784   0.896  0.00  0.00    +0.159 HD
ATOM      9  H   UNL     1      -2.510  -3.508   1.656  0.00  0.00    +0.159 HD
ENDROOT
BRANCH   1  10
ATOM     10  C   UNL     1      -0.385  -3.602  -1.593  0.00  0.00    +0.151 C 
BRANCH  10  11
ATOM     11  C   UNL     1       0.351  -2.319  -1.866  0.00  0.00    -0.028 A 
ATOM     12  C   UNL     1      -0.311  -1.230  -2.450  0.00  0.00    +0.005 A 
ATOM     13  C   UNL     1       1.708  -2.185  -1.536  0.00  0.00    +0.005 A 
ATOM     14  C   UNL     1       0.364  -0.027  -2.676  0.00  0.00    +0.000 A 
ATOM     15  C   UNL     1       2.379  -0.983  -1.764  0.00  0.00    +0.000 A 
ATOM     16  C   UNL     1       1.705   0.096  -2.332  0.00  0.00    +0.000 A 
ENDBRANCH  10  11
ENDBRANCH   1  10
TORSDOF 2
ENDMDL
MODEL 6
REMARK VINA RESULT:    -4.676     21.863     23.499
REMARK INTER + INTRA:          -5.392
REMARK INTER:                  -5.221
REMARK INTRA:                  -0.172
REMARK UNBOUND:                -0.170
REMARK  Name = 1550473
REMARK  2 active torsions:
REMARK  status: ('A' for Active; 'I' for Inactive)
REMARK    1  A    between atoms: N_1  and  C_4
REMARK    2  A    between atoms: C_4  and  C_5
REMARK                            x       y       z     vdW  Elec       q    Type
REMARK                         _______ _______ _______ _____ _____    ______ ____
ROOT
ATOM      1  N   UNL     1       2.872  -3.840   0.466  0.00  0.00    -0.354 N 
ATOM      2  N   UNL     1       4.969  -4.820   0.526  0.00  0.00    -0.372 N 
ATOM      3  N   UNL     1       3.465  -5.515  -1.062  0.00  0.00    -0.372 N 
ATOM      4  C   UNL     1       3.754  -4.720  -0.026  0.00  0.00    +0.166 C 
ATOM      5  H   UNL     1       3.141  -3.287   1.272  0.00  0.00    +0.163 HD
ATOM      6  H   UNL     1       5.657  -5.472   0.174  0.00  0.00    +0.159 HD
ATOM      7  H   UNL     1       5.252  -4.234   1.302  0.00  0.00    +0.159 HD
ATOM      8  H   UNL     1       2.563  -5.493  -1.519  0.00  0.00    +0.159 HD
ATOM      9  H   UNL     1       4.136  -6.183  -1.420  0.00  0.00    +0.159 HD
ENDROOT
BRANCH   1  10
ATOM     10  C   UNL     1       1.541  -3.615  -0.096  0.00  0.00    +0.151 C 
BRANCH  10  11
ATOM     11  C   UNL     1       1.565  -2.365  -0.932  0.00  0.00    -0.028 A 
ATOM     12  C   UNL     1       2.169  -1.196  -0.447  0.00  0.00    +0.005 A 
ATOM     13  C   UNL     1       0.992  -2.346  -2.213  0.00  0.00    +0.005 A 
ATOM     14  C   UNL     1       2.218  -0.043  -1.235  0.00  0.00    +0.000 A 
ATOM     15  C   UNL     1       1.043  -1.193  -2.997  0.00  0.00    +0.000 A 
ATOM     16  C   UNL     1       1.658  -0.043  -2.508  0.00  0.00    +0.000 A 
ENDBRANCH  10  11
ENDBRANCH   1  10
TORSDOF 2
ENDMDL
MODEL 7
REMARK VINA RESULT:    -4.596      1.667      2.105
REMARK INTER + INTRA:          -5.303
REMARK INTER:                  -5.165
REMARK INTRA:                  -0.138
REMARK UNBOUND:                -0.170
REMARK  Name = 1550473
REMARK  2 active torsions:
REMARK  status: ('A' for Active; 'I' for Inactive)
REMARK    1  A    between atoms: N_1  and  C_4
REMARK    2  A    between atoms: C_4  and  C_5
REMARK                            x       y       z     vdW  Elec       q    Type
REMARK                         _______ _______ _______ _____ _____    ______ ____
ROOT
ATOM      1  N   UNL     1      -7.135  13.938 -14.612  0.00  0.00    -0.354 N 
ATOM      2  N   UNL     1      -5.739  15.761 -14.915  0.00  0.00    -0.372 N 
ATOM      3  N   UNL     1      -5.040  13.698 -15.634  0.00  0.00    -0.372 N 
ATOM      4  C   UNL     1      -5.979  14.452 -15.052  0.00  0.00    +0.166 C 
ATOM      5  H   UNL     1      -7.793  14.558 -14.153  0.00  0.00    +0.163 HD
ATOM      6  H   UNL     1      -4.877  16.178 -15.241  0.00  0.00    +0.159 HD
ATOM      7  H   UNL     1      -6.418  16.386 -14.497  0.00  0.00    +0.159 HD
ATOM      8  H   UNL     1      -5.157  12.701 -15.762  0.00  0.00    +0.159 HD
ATOM      9  H   UNL     1      -4.166  14.094 -15.956  0.00  0.00    +0.159 HD
ENDROOT
BRANCH   1  10
ATOM     10  C   UNL     1      -7.516  12.535 -14.762  0.00  0.00    +0.151 C 
BRANCH  10  11
ATOM     11  C   UNL     1      -8.958  12.460 -15.183  0.00  0.00    -0.028 A 
ATOM     12  C   UNL     1      -9.747  13.619 -15.230  0.00  0.00    +0.005 A 
ATOM     13  C   UNL     1      -9.540  11.234 -15.542  0.00  0.00    +0.005 A 
ATOM     14  C   UNL     1     -11.078  13.554 -15.650  0.00  0.00    +0.000 A 
ATOM     15  C   UNL     1     -10.869  11.174 -15.959  0.00  0.00    +0.000 A 
ATOM     16  C   UNL     1     -11.637  12.335 -16.016  0.00  0.00    +0.000 A 
ENDBRANCH  10  11
ENDBRANCH   1  10
TORSDOF 2
ENDMDL
MODEL 8
REMARK VINA RESULT:    -4.580     22.178     23.853
REMARK INTER + INTRA:          -5.285
REMARK INTER:                  -5.120
REMARK INTRA:                  -0.165
REMARK UNBOUND:                -0.170
REMARK  Name = 1550473
REMARK  2 active torsions:
REMARK  status: ('A' for Active; 'I' for Inactive)
REMARK    1  A    between atoms: N_1  and  C_4
REMARK    2  A    between atoms: C_4  and  C_5
REMARK                            x       y       z     vdW  Elec       q    Type
REMARK                         _______ _______ _______ _____ _____    ______ ____
ROOT
ATOM      1  N   UNL     1       2.844  -4.401  -1.527  0.00  0.00    -0.354 N 
ATOM      2  N   UNL     1       3.876  -6.468  -1.364  0.00  0.00    -0.372 N 
ATOM      3  N   UNL     1       3.974  -5.035   0.425  0.00  0.00    -0.372 N 
ATOM      4  C   UNL     1       3.559  -5.286  -0.821  0.00  0.00    +0.166 C 
ATOM      5  H   UNL     1       2.586  -4.639  -2.478  0.00  0.00    +0.163 HD
ATOM      6  H   UNL     1       4.411  -7.158  -0.854  0.00  0.00    +0.159 HD
ATOM      7  H   UNL     1       3.577  -6.722  -2.298  0.00  0.00    +0.159 HD
ATOM      8  H   UNL     1       3.773  -4.160   0.891  0.00  0.00    +0.159 HD
ATOM      9  H   UNL     1       4.521  -5.708   0.948  0.00  0.00    +0.159 HD
ENDROOT
BRANCH   1  10
ATOM     10  C   UNL     1       2.401  -3.108  -1.008  0.00  0.00    +0.151 C 
BRANCH  10  11
ATOM     11  C   UNL     1       0.905  -3.128  -0.853  0.00  0.00    -0.028 A 
ATOM     12  C   UNL     1       0.084  -2.478  -1.786  0.00  0.00    +0.005 A 
ATOM     13  C   UNL     1       0.303  -3.800   0.222  0.00  0.00    +0.005 A 
ATOM     14  C   UNL     1      -1.306  -2.521  -1.658  0.00  0.00    +0.000 A 
ATOM     15  C   UNL     1      -1.086  -3.840   0.346  0.00  0.00    +0.000 A 
ATOM     16  C   UNL     1      -1.890  -3.203  -0.596  0.00  0.00    +0.000 A 
ENDBRANCH  10  11
ENDBRANCH   1  10
TORSDOF 2
ENDMDL
MODEL 9
REMARK VINA RESULT:    -4.490     26.410     28.321
REMARK INTER + INTRA:          -5.184
REMARK INTER:                  -5.052
REMARK INTRA:                  -0.132
REMARK UNBOUND:                -0.170
REMARK  Name = 1550473
REMARK  2 active torsions:
REMARK  status: ('A' for Active; 'I' for Inactive)
REMARK    1  A    between atoms: N_1  and  C_4
REMARK    2  A    between atoms: C_4  and  C_5
REMARK                            x       y       z     vdW  Elec       q    Type
REMARK                         _______ _______ _______ _____ _____    ______ ____
ROOT
ATOM      1  N   UNL     1      12.927  -3.305 -14.893  0.00  0.00    -0.354 N 
ATOM      2  N   UNL     1      11.490  -2.509 -16.526  0.00  0.00    -0.372 N 
ATOM      3  N   UNL     1      13.366  -3.665 -17.166  0.00  0.00    -0.372 N 
ATOM      4  C   UNL     1      12.606  -3.166 -16.186  0.00  0.00    +0.166 C 
ATOM      5  H   UNL     1      12.325  -2.878 -14.199  0.00  0.00    +0.163 HD
ATOM      6  H   UNL     1      11.221  -2.391 -17.493  0.00  0.00    +0.159 HD
ATOM      7  H   UNL     1      10.866  -2.122 -15.828  0.00  0.00    +0.159 HD
ATOM      8  H   UNL     1      14.224  -4.166 -16.977  0.00  0.00    +0.159 HD
ATOM      9  H   UNL     1      13.119  -3.547 -18.141  0.00  0.00    +0.159 HD
ENDROOT
BRANCH   1  10
ATOM     10  C   UNL     1      14.091  -4.049 -14.415  0.00  0.00    +0.151 C 
BRANCH  10  11
ATOM     11  C   UNL     1      13.623  -5.221 -13.596  0.00  0.00    -0.028 A 
ATOM     12  C   UNL     1      14.550  -6.108 -13.030  0.00  0.00    +0.005 A 
ATOM     13  C   UNL     1      12.255  -5.446 -13.379  0.00  0.00    +0.005 A 
ATOM     14  C   UNL     1      14.117  -7.180 -12.245  0.00  0.00    +0.000 A 
ATOM     15  C   UNL     1      11.827  -6.517 -12.595  0.00  0.00    +0.000 A 
ATOM     16  C   UNL     1      12.758  -7.382 -12.026  0.00  0.00    +0.000 A 
ENDBRANCH  10  11
ENDBRANCH   1  10
TORSDOF 2
ENDMDL
