MODEL 1
REMARK VINA RESULT:    -4.829      0.000      0.000
REMARK INTER + INTRA:          -5.516
REMARK INTER:                  -5.394
REMARK INTRA:                  -0.122
REMARK UNBOUND:                -0.122
REMARK  Name = 1550473
REMARK  2 active torsions:
REMARK  status: ('A' for Active; 'I' for Inactive)
REMARK    1  A    between atoms: N_1  and  C_4
REMARK    2  A    between atoms: C_4  and  C_5
REMARK                            x       y       z     vdW  Elec       q    Type
REMARK                         _______ _______ _______ _____ _____    ______ ____
ROOT
ATOM      1  N   UNL     1      -7.584 -14.121 -19.119  0.00  0.00    -0.354 N 
ATOM      2  N   UNL     1      -5.874 -14.804 -17.715  0.00  0.00    -0.372 N 
ATOM      3  N   UNL     1      -6.346 -16.057 -19.578  0.00  0.00    -0.372 N 
ATOM      4  C   UNL     1      -6.613 -14.992 -18.815  0.00  0.00    +0.166 C 
ATOM      5  H   UNL     1      -7.756 -13.350 -18.484  0.00  0.00    +0.163 HD
ATOM      6  H   UNL     1      -5.131 -15.443 -17.462  0.00  0.00    +0.159 HD
ATOM      7  H   UNL     1      -6.017 -14.008 -17.106  0.00  0.00    +0.159 HD
ATOM      8  H   UNL     1      -6.872 -16.258 -20.419  0.00  0.00    +0.159 HD
ATOM      9  H   UNL     1      -5.615 -16.714 -19.335  0.00  0.00    +0.159 HD
ENDROOT
BRANCH   1  10
ATOM     10  C   UNL     1      -8.410 -14.204 -20.322  0.00  0.00    +0.151 C 
BRANCH  10  11
ATOM     11  C   UNL     1      -9.225 -12.946 -20.447  0.00  0.00    -0.028 A 
ATOM     12  C   UNL     1      -9.975 -12.696 -21.606  0.00  0.00    +0.005 A 
ATOM     13  C   UNL     1      -9.254 -12.003 -19.409  0.00  0.00    +0.005 A 
ATOM     14  C   UNL     1     -10.755 -11.542 -21.710  0.00  0.00    +0.000 A 
ATOM     15  C   UNL     1     -10.034 -10.852 -19.517  0.00  0.00    +0.000 A 
ATOM     16  C   UNL     1     -10.786 -10.623 -20.667  0.00  0.00    +0.000 A 
ENDBRANCH  10  11
ENDBRANCH   1  10
TORSDOF 2
ENDMDL
MODEL 2
REMARK VINA RESULT:    -4.740      1.864      2.525
REMARK INTER + INTRA:          -5.416
REMARK INTER:                  -5.259
REMARK INTRA:                  -0.157
REMARK UNBOUND:                -0.122
REMARK  Name = 1550473
REMARK  2 active torsions:
REMARK  status: ('A' for Active; 'I' for Inactive)
REMARK    1  A    between atoms: N_1  and  C_4
REMARK    2  A    between atoms: C_4  and  C_5
REMARK                            x       y       z     vdW  Elec       q    Type
REMARK                         _______ _______ _______ _____ _____    ______ ____
ROOT
ATOM      1  N   UNL     1      -8.878 -13.260 -18.458  0.00  0.00    -0.354 N 
ATOM      2  N   UNL     1      -9.649 -14.207 -16.490  0.00  0.00    -0.372 N 
ATOM      3  N   UNL     1      -9.260 -15.567 -18.297  0.00  0.00    -0.372 N 
ATOM      4  C   UNL     1      -9.258 -14.341 -17.763  0.00  0.00    +0.166 C 
ATOM      5  H   UNL     1      -8.928 -12.355 -18.006  0.00  0.00    +0.163 HD
ATOM      6  H   UNL     1      -9.938 -15.004 -15.940  0.00  0.00    +0.159 HD
ATOM      7  H   UNL     1      -9.654 -13.307 -16.026  0.00  0.00    +0.159 HD
ATOM      8  H   UNL     1      -8.981 -15.735 -19.255  0.00  0.00    +0.159 HD
ATOM      9  H   UNL     1      -9.557 -16.376 -17.766  0.00  0.00    +0.159 HD
ENDROOT
BRANCH   1  10
ATOM     10  C   UNL     1      -8.383 -13.305 -19.833  0.00  0.00    +0.151 C 
BRANCH  10  11
ATOM     11  C   UNL     1      -9.409 -12.688 -20.744  0.00  0.00    -0.028 A 
ATOM     12  C   UNL     1      -9.973 -11.441 -20.440  0.00  0.00    +0.005 A 
ATOM     13  C   UNL     1      -9.815 -13.344 -21.917  0.00  0.00    +0.005 A 
ATOM     14  C   UNL     1     -10.903 -10.854 -21.302  0.00  0.00    +0.000 A 
ATOM     15  C   UNL     1     -10.745 -12.754 -22.774  0.00  0.00    +0.000 A 
ATOM     16  C   UNL     1     -11.286 -11.508 -22.467  0.00  0.00    +0.000 A 
ENDBRANCH  10  11
ENDBRANCH   1  10
TORSDOF 2
ENDMDL
MODEL 3
REMARK VINA RESULT:    -4.607     10.445     12.290
REMARK INTER + INTRA:          -5.268
REMARK INTER:                  -5.150
REMARK INTRA:                  -0.118
REMARK UNBOUND:                -0.122
REMARK  Name = 1550473
REMARK  2 active torsions:
REMARK  status: ('A' for Active; 'I' for Inactive)
REMARK    1  A    between atoms: N_1  and  C_4
REMARK    2  A    between atoms: C_4  and  C_5
REMARK                            x       y       z     vdW  Elec       q    Type
REMARK                         _______ _______ _______ _____ _____    ______ ____
ROOT
ATOM      1  N   UNL     1     -15.557  -4.585 -18.872  0.00  0.00    -0.354 N 
ATOM      2  N   UNL     1     -16.863  -6.040 -17.629  0.00  0.00    -0.372 N 
ATOM      3  N   UNL     1     -14.580  -6.266 -17.564  0.00  0.00    -0.372 N 
ATOM      4  C   UNL     1     -15.656  -5.622 -18.029  0.00  0.00    +0.166 C 
ATOM      5  H   UNL     1     -16.412  -4.158 -19.211  0.00  0.00    +0.163 HD
ATOM      6  H   UNL     1     -16.968  -6.818 -16.992  0.00  0.00    +0.159 HD
ATOM      7  H   UNL     1     -17.713  -5.583 -17.935  0.00  0.00    +0.159 HD
ATOM      8  H   UNL     1     -13.641  -6.004 -17.832  0.00  0.00    +0.159 HD
ATOM      9  H   UNL     1     -14.666  -7.055 -16.935  0.00  0.00    +0.159 HD
ENDROOT
BRANCH   1  10
ATOM     10  C   UNL     1     -14.289  -4.017 -19.326  0.00  0.00    +0.151 C 
BRANCH  10  11
ATOM     11  C   UNL     1     -14.322  -2.526 -19.136  0.00  0.00    -0.028 A 
ATOM     12  C   UNL     1     -13.510  -1.912 -18.172  0.00  0.00    +0.005 A 
ATOM     13  C   UNL     1     -15.160  -1.720 -19.923  0.00  0.00    +0.005 A 
ATOM     14  C   UNL     1     -13.518  -0.524 -18.016  0.00  0.00    +0.000 A 
ATOM     15  C   UNL     1     -15.166  -0.334 -19.764  0.00  0.00    +0.000 A 
ATOM     16  C   UNL     1     -14.343   0.263 -18.812  0.00  0.00    +0.000 A 
ENDBRANCH  10  11
ENDBRANCH   1  10
TORSDOF 2
ENDMDL
MODEL 4
REMARK VINA RESULT:    -4.598     29.859     30.787
REMARK INTER + INTRA:          -5.259
REMARK INTER:                  -5.115
REMARK INTRA:                  -0.144
REMARK UNBOUND:                -0.122
REMARK  Name = 1550473
REMARK  2 active torsions:
REMARK  status: ('A' for Active; 'I' for Inactive)
REMARK    1  A    between atoms: N_1  and  C_4
REMARK    2  A    between atoms: C_4  and  C_5
REMARK                            x       y       z     vdW  Elec       q    Type
REMARK                         _______ _______ _______ _____ _____    ______ ____
ROOT
ATOM      1  N   UNL     1      12.842   5.972  -8.245  0.00  0.00    -0.354 N 
ATOM      2  N   UNL     1      12.881   4.015  -7.006  0.00  0.00    -0.372 N 
ATOM      3  N   UNL     1      13.070   6.024  -5.913  0.00  0.00    -0.372 N 
ATOM      4  C   UNL     1      12.931   5.352  -7.060  0.00  0.00    +0.166 C 
ATOM      5  H   UNL     1      12.768   5.404  -9.081  0.00  0.00    +0.163 HD
ATOM      6  H   UNL     1      12.943   3.520  -6.127  0.00  0.00    +0.159 HD
ATOM      7  H   UNL     1      12.761   3.452  -7.839  0.00  0.00    +0.159 HD
ATOM      8  H   UNL     1      13.121   7.034  -5.886  0.00  0.00    +0.159 HD
ATOM      9  H   UNL     1      13.145   5.545  -5.024  0.00  0.00    +0.159 HD
ENDROOT
BRANCH   1  10
ATOM     10  C   UNL     1      12.832   7.425  -8.408  0.00  0.00    +0.151 C 
BRANCH  10  11
ATOM     11  C   UNL     1      11.536   7.838  -9.050  0.00  0.00    -0.028 A 
ATOM     12  C   UNL     1      10.924   9.050  -8.702  0.00  0.00    +0.005 A 
ATOM     13  C   UNL     1      10.919   7.023 -10.012  0.00  0.00    +0.005 A 
ATOM     14  C   UNL     1       9.736   9.449  -9.320  0.00  0.00    +0.000 A 
ATOM     15  C   UNL     1       9.733   7.424 -10.627  0.00  0.00    +0.000 A 
ATOM     16  C   UNL     1       9.143   8.638 -10.282  0.00  0.00    +0.000 A 
ENDBRANCH  10  11
ENDBRANCH   1  10
TORSDOF 2
ENDMDL
MODEL 5
REMARK VINA RESULT:    -4.502     31.222     32.220
REMARK INTER + INTRA:          -5.151
REMARK INTER:                  -5.018
REMARK INTRA:                  -0.133
REMARK UNBOUND:                -0.122
REMARK  Name = 1550473
REMARK  2 active torsions:
REMARK  status: ('A' for Active; 'I' for Inactive)
REMARK    1  A    between atoms: N_1  and  C_4
REMARK    2  A    between atoms: C_4  and  C_5
REMARK                            x       y       z     vdW  Elec       q    Type
REMARK                         _______ _______ _______ _____ _____    ______ ____
ROOT
ATOM      1  N   UNL     1      10.606   8.502  -9.776  0.00  0.00    -0.354 N 
ATOM      2  N   UNL     1       9.130   7.182 -10.978  0.00  0.00    -0.372 N 
ATOM      3  N   UNL     1       8.547   7.855  -8.863  0.00  0.00    -0.372 N 
ATOM      4  C   UNL     1       9.436   7.855  -9.862  0.00  0.00    +0.166 C 
ATOM      5  H   UNL     1      11.249   8.439 -10.557  0.00  0.00    +0.163 HD
ATOM      6  H   UNL     1       8.253   6.687 -11.073  0.00  0.00    +0.159 HD
ATOM      7  H   UNL     1       9.755   7.158 -11.774  0.00  0.00    +0.159 HD
ATOM      8  H   UNL     1       8.720   8.339  -7.992  0.00  0.00    +0.159 HD
ATOM      9  H   UNL     1       7.669   7.356  -8.934  0.00  0.00    +0.159 HD
ENDROOT
BRANCH   1  10
ATOM     10  C   UNL     1      11.012   9.308  -8.626  0.00  0.00    +0.151 C 
BRANCH  10  11
ATOM     11  C   UNL     1      11.136  10.745  -9.053  0.00  0.00    -0.028 A 
ATOM     12  C   UNL     1      11.450  11.741  -8.117  0.00  0.00    +0.005 A 
ATOM     13  C   UNL     1      10.948  11.115 -10.394  0.00  0.00    +0.005 A 
ATOM     14  C   UNL     1      11.595  13.072  -8.519  0.00  0.00    +0.000 A 
ATOM     15  C   UNL     1      11.093  12.445 -10.790  0.00  0.00    +0.000 A 
ATOM     16  C   UNL     1      11.419  13.422  -9.853  0.00  0.00    +0.000 A 
ENDBRANCH  10  11
ENDBRANCH   1  10
TORSDOF 2
ENDMDL
MODEL 6
REMARK VINA RESULT:    -4.491     40.504     41.667
REMARK INTER + INTRA:          -5.138
REMARK INTER:                  -4.998
REMARK INTRA:                  -0.140
REMARK UNBOUND:                -0.122
REMARK  Name = 1550473
REMARK  2 active torsions:
REMARK  status: ('A' for Active; 'I' for Inactive)
REMARK    1  A    between atoms: N_1  and  C_4
REMARK    2  A    between atoms: C_4  and  C_5
REMARK                            x       y       z     vdW  Elec       q    Type
REMARK                         _______ _______ _______ _____ _____    ______ ____
ROOT
ATOM      1  N   UNL     1      13.337  -2.306  15.420  0.00  0.00    -0.354 N 
ATOM      2  N   UNL     1      12.750  -2.066  17.648  0.00  0.00    -0.372 N 
ATOM      3  N   UNL     1      11.511  -0.980  16.051  0.00  0.00    -0.372 N 
ATOM      4  C   UNL     1      12.534  -1.784  16.357  0.00  0.00    +0.166 C 
ATOM      5  H   UNL     1      14.114  -2.884  15.720  0.00  0.00    +0.163 HD
ATOM      6  H   UNL     1      12.159  -1.689  18.377  0.00  0.00    +0.159 HD
ATOM      7  H   UNL     1      13.500  -2.680  17.941  0.00  0.00    +0.159 HD
ATOM      8  H   UNL     1      11.298  -0.724  15.096  0.00  0.00    +0.159 HD
ATOM      9  H   UNL     1      10.915  -0.583  16.767  0.00  0.00    +0.159 HD
ENDROOT
BRANCH   1  10
ATOM     10  C   UNL     1      13.155  -2.105  13.984  0.00  0.00    +0.151 C 
BRANCH  10  11
ATOM     11  C   UNL     1      13.181  -3.441  13.294  0.00  0.00    -0.028 A 
ATOM     12  C   UNL     1      13.920  -3.619  12.114  0.00  0.00    +0.005 A 
ATOM     13  C   UNL     1      12.474  -4.534  13.817  0.00  0.00    +0.005 A 
ATOM     14  C   UNL     1      13.968  -4.867  11.489  0.00  0.00    +0.000 A 
ATOM     15  C   UNL     1      12.525  -5.779  13.189  0.00  0.00    +0.000 A 
ATOM     16  C   UNL     1      13.274  -5.945  12.027  0.00  0.00    +0.000 A 
ENDBRANCH  10  11
ENDBRANCH   1  10
TORSDOF 2
ENDMDL
MODEL 7
REMARK VINA RESULT:    -4.441     29.822     30.799
REMARK INTER + INTRA:          -5.083
REMARK INTER:                  -4.951
REMARK INTRA:                  -0.132
REMARK UNBOUND:                -0.122
REMARK  Name = 1550473
REMARK  2 active torsions:
REMARK  status: ('A' for Active; 'I' for Inactive)
REMARK    1  A    between atoms: N_1  and  C_4
REMARK    2  A    between atoms: C_4  and  C_5
REMARK                            x       y       z     vdW  Elec       q    Type
REMARK                         _______ _______ _______ _____ _____    ______ ____
ROOT
ATOM      1  N   UNL     1      10.103   7.160  -9.626  0.00  0.00    -0.354 N 
ATOM      2  N   UNL     1       8.199   8.098  -8.699  0.00  0.00    -0.372 N 
ATOM      3  N   UNL     1       8.955   8.888 -10.717  0.00  0.00    -0.372 N 
ATOM      4  C   UNL     1       9.098   8.044  -9.689  0.00  0.00    +0.166 C 
ATOM      5  H   UNL     1      10.173   6.569  -8.805  0.00  0.00    +0.163 HD
ATOM      6  H   UNL     1       7.428   8.752  -8.721  0.00  0.00    +0.159 HD
ATOM      7  H   UNL     1       8.246   7.475  -7.902  0.00  0.00    +0.159 HD
ATOM      8  H   UNL     1       9.603   8.902 -11.492  0.00  0.00    +0.159 HD
ATOM      9  H   UNL     1       8.197   9.558 -10.751  0.00  0.00    +0.159 HD
ENDROOT
BRANCH   1  10
ATOM     10  C   UNL     1      11.104   6.984 -10.676  0.00  0.00    +0.151 C 
BRANCH  10  11
ATOM     11  C   UNL     1      12.407   6.572 -10.049  0.00  0.00    -0.028 A 
ATOM     12  C   UNL     1      13.538   6.336 -10.845  0.00  0.00    +0.005 A 
ATOM     13  C   UNL     1      12.520   6.421  -8.658  0.00  0.00    +0.005 A 
ATOM     14  C   UNL     1      14.756   5.982 -10.260  0.00  0.00    +0.000 A 
ATOM     15  C   UNL     1      13.738   6.067  -8.078  0.00  0.00    +0.000 A 
ATOM     16  C   UNL     1      14.856   5.850  -8.879  0.00  0.00    +0.000 A 
ENDBRANCH  10  11
ENDBRANCH   1  10
TORSDOF 2
ENDMDL
MODEL 8
REMARK VINA RESULT:    -4.361     13.692     15.433
REMARK INTER + INTRA:          -4.993
REMARK INTER:                  -4.892
REMARK INTRA:                  -0.101
REMARK UNBOUND:                -0.122
REMARK  Name = 1550473
REMARK  2 active torsions:
REMARK  status: ('A' for Active; 'I' for Inactive)
REMARK    1  A    between atoms: N_1  and  C_4
REMARK    2  A    between atoms: C_4  and  C_5
REMARK                            x       y       z     vdW  Elec       q    Type
REMARK                         _______ _______ _______ _____ _____    ______ ____
ROOT
ATOM      1  N   UNL     1     -14.573   1.719 -21.242  0.00  0.00    -0.354 N 
ATOM      2  N   UNL     1     -13.838   3.351 -22.712  0.00  0.00    -0.372 N 
ATOM      3  N   UNL     1     -15.648   2.067 -23.295  0.00  0.00    -0.372 N 
ATOM      4  C   UNL     1     -14.693   2.367 -22.408  0.00  0.00    +0.166 C 
ATOM      5  H   UNL     1     -13.809   1.974 -20.626  0.00  0.00    +0.163 HD
ATOM      6  H   UNL     1     -13.906   3.860 -23.583  0.00  0.00    +0.159 HD
ATOM      7  H   UNL     1     -13.104   3.634 -22.075  0.00  0.00    +0.159 HD
ATOM      8  H   UNL     1     -16.321   1.331 -23.128  0.00  0.00    +0.159 HD
ATOM      9  H   UNL     1     -15.725   2.557 -24.177  0.00  0.00    +0.159 HD
ENDROOT
BRANCH   1  10
ATOM     10  C   UNL     1     -15.485   0.670 -20.792  0.00  0.00    +0.151 C 
BRANCH  10  11
ATOM     11  C   UNL     1     -14.750  -0.254 -19.860  0.00  0.00    -0.028 A 
ATOM     12  C   UNL     1     -14.581  -1.608 -20.185  0.00  0.00    +0.005 A 
ATOM     13  C   UNL     1     -14.215   0.221 -18.652  0.00  0.00    +0.005 A 
ATOM     14  C   UNL     1     -13.873  -2.459 -19.334  0.00  0.00    +0.000 A 
ATOM     15  C   UNL     1     -13.509  -0.633 -17.804  0.00  0.00    +0.000 A 
ATOM     16  C   UNL     1     -13.336  -1.972 -18.147  0.00  0.00    +0.000 A 
ENDBRANCH  10  11
ENDBRANCH   1  10
TORSDOF 2
ENDMDL
MODEL 9
REMARK VINA RESULT:    -4.346     34.325     35.432
REMARK INTER + INTRA:          -4.977
REMARK INTER:                  -4.841
REMARK INTRA:                  -0.136
REMARK UNBOUND:                -0.122
REMARK  Name = 1550473
REMARK  2 active torsions:
REMARK  status: ('A' for Active; 'I' for Inactive)
REMARK    1  A    between atoms: N_1  and  C_4
REMARK    2  A    between atoms: C_4  and  C_5
REMARK                            x       y       z     vdW  Elec       q    Type
REMARK                         _______ _______ _______ _____ _____    ______ ____
ROOT
ATOM      1  N   UNL     1      14.380   5.986  -3.371  0.00  0.00    -0.354 N 
ATOM      2  N   UNL     1      13.810   4.270  -4.818  0.00  0.00    -0.372 N 
ATOM      3  N   UNL     1      12.888   6.346  -5.141  0.00  0.00    -0.372 N 
ATOM      4  C   UNL     1      13.695   5.548  -4.435  0.00  0.00    +0.166 C 
ATOM      5  H   UNL     1      14.952   5.323  -2.859  0.00  0.00    +0.163 HD
ATOM      6  H   UNL     1      13.308   3.912  -5.619  0.00  0.00    +0.159 HD
ATOM      7  H   UNL     1      14.417   3.621  -4.333  0.00  0.00    +0.159 HD
ATOM      8  H   UNL     1      12.753   7.319  -4.900  0.00  0.00    +0.159 HD
ATOM      9  H   UNL     1      12.368   6.003  -5.939  0.00  0.00    +0.159 HD
ENDROOT
BRANCH   1  10
ATOM     10  C   UNL     1      14.366   7.371  -2.903  0.00  0.00    +0.151 C 
BRANCH  10  11
ATOM     11  C   UNL     1      14.394   7.382  -1.400  0.00  0.00    -0.028 A 
ATOM     12  C   UNL     1      14.233   6.192  -0.676  0.00  0.00    +0.005 A 
ATOM     13  C   UNL     1      14.588   8.579  -0.693  0.00  0.00    +0.005 A 
ATOM     14  C   UNL     1      14.289   6.197   0.720  0.00  0.00    +0.000 A 
ATOM     15  C   UNL     1      14.642   8.580   0.701  0.00  0.00    +0.000 A 
ATOM     16  C   UNL     1      14.496   7.389   1.407  0.00  0.00    +0.000 A 
ENDBRANCH  10  11
ENDBRANCH   1  10
TORSDOF 2
ENDMDL
