MODEL 1
REMARK VINA RESULT:    -5.238      0.000      0.000
REMARK INTER + INTRA:          -5.954
REMARK INTER:                  -5.850
REMARK INTRA:                  -0.104
REMARK UNBOUND:                -0.104
REMARK  Name = 1550473
REMARK  2 active torsions:
REMARK  status: ('A' for Active; 'I' for Inactive)
REMARK    1  A    between atoms: N_1  and  C_4
REMARK    2  A    between atoms: C_4  and  C_5
REMARK                            x       y       z     vdW  Elec       q    Type
REMARK                         _______ _______ _______ _____ _____    ______ ____
ROOT
ATOM      1  N   UNL     1     -14.850  -4.520  -7.566  0.00  0.00    -0.354 N 
ATOM      2  N   UNL     1     -12.603  -4.765  -7.060  0.00  0.00    -0.372 N 
ATOM      3  N   UNL     1     -13.832  -6.631  -7.581  0.00  0.00    -0.372 N 
ATOM      4  C   UNL     1     -13.777  -5.307  -7.406  0.00  0.00    +0.166 C 
ATOM      5  H   UNL     1     -14.750  -3.527  -7.389  0.00  0.00    +0.163 HD
ATOM      6  H   UNL     1     -11.775  -5.332  -6.935  0.00  0.00    +0.159 HD
ATOM      7  H   UNL     1     -12.495  -3.766  -6.928  0.00  0.00    +0.159 HD
ATOM      8  H   UNL     1     -14.689  -7.102  -7.836  0.00  0.00    +0.159 HD
ATOM      9  H   UNL     1     -13.017  -7.217  -7.449  0.00  0.00    +0.159 HD
ENDROOT
BRANCH   1  10
ATOM     10  C   UNL     1     -16.161  -5.004  -7.994  0.00  0.00    +0.151 C 
BRANCH  10  11
ATOM     11  C   UNL     1     -16.880  -3.899  -8.717  0.00  0.00    -0.028 A 
ATOM     12  C   UNL     1     -17.109  -2.667  -8.088  0.00  0.00    +0.005 A 
ATOM     13  C   UNL     1     -17.331  -4.076 -10.035  0.00  0.00    +0.005 A 
ATOM     14  C   UNL     1     -17.750  -1.630  -8.770  0.00  0.00    +0.000 A 
ATOM     15  C   UNL     1     -17.971  -3.039 -10.712  0.00  0.00    +0.000 A 
ATOM     16  C   UNL     1     -18.178  -1.815 -10.080  0.00  0.00    +0.000 A 
ENDBRANCH  10  11
ENDBRANCH   1  10
TORSDOF 2
ENDMDL
MODEL 2
REMARK VINA RESULT:    -5.125     29.352     31.131
REMARK INTER + INTRA:          -5.827
REMARK INTER:                  -5.705
REMARK INTRA:                  -0.122
REMARK UNBOUND:                -0.104
REMARK  Name = 1550473
REMARK  2 active torsions:
REMARK  status: ('A' for Active; 'I' for Inactive)
REMARK    1  A    between atoms: N_1  and  C_4
REMARK    2  A    between atoms: C_4  and  C_5
REMARK                            x       y       z     vdW  Elec       q    Type
REMARK                         _______ _______ _______ _____ _____    ______ ____
ROOT
ATOM      1  N   UNL     1       7.130   5.157   7.927  0.00  0.00    -0.354 N 
ATOM      2  N   UNL     1       6.775   3.338   6.539  0.00  0.00    -0.372 N 
ATOM      3  N   UNL     1       8.917   3.827   7.200  0.00  0.00    -0.372 N 
ATOM      4  C   UNL     1       7.613   4.119   7.231  0.00  0.00    +0.166 C 
ATOM      5  H   UNL     1       6.135   5.344   7.886  0.00  0.00    +0.163 HD
ATOM      6  H   UNL     1       7.109   2.545   6.007  0.00  0.00    +0.159 HD
ATOM      7  H   UNL     1       5.775   3.499   6.536  0.00  0.00    +0.159 HD
ATOM      8  H   UNL     1       9.602   4.381   7.697  0.00  0.00    +0.159 HD
ATOM      9  H   UNL     1       9.273   3.045   6.665  0.00  0.00    +0.159 HD
ENDROOT
BRANCH   1  10
ATOM     10  C   UNL     1       7.951   6.037   8.757  0.00  0.00    +0.151 C 
BRANCH  10  11
ATOM     11  C   UNL     1       7.277   6.227  10.088  0.00  0.00    -0.028 A 
ATOM     12  C   UNL     1       5.909   6.529  10.157  0.00  0.00    +0.005 A 
ATOM     13  C   UNL     1       7.999   6.100  11.285  0.00  0.00    +0.005 A 
ATOM     14  C   UNL     1       5.276   6.675  11.393  0.00  0.00    +0.000 A 
ATOM     15  C   UNL     1       7.364   6.247  12.517  0.00  0.00    +0.000 A 
ATOM     16  C   UNL     1       6.002   6.532  12.571  0.00  0.00    +0.000 A 
ENDBRANCH  10  11
ENDBRANCH   1  10
TORSDOF 2
ENDMDL
MODEL 3
REMARK VINA RESULT:    -4.947     14.133     14.888
REMARK INTER + INTRA:          -5.629
REMARK INTER:                  -5.455
REMARK INTRA:                  -0.174
REMARK UNBOUND:                -0.104
REMARK  Name = 1550473
REMARK  2 active torsions:
REMARK  status: ('A' for Active; 'I' for Inactive)
REMARK    1  A    between atoms: N_1  and  C_4
REMARK    2  A    between atoms: C_4  and  C_5
REMARK                            x       y       z     vdW  Elec       q    Type
REMARK                         _______ _______ _______ _____ _____    ______ ____
ROOT
ATOM      1  N   UNL     1     -11.302  -4.583 -23.224  0.00  0.00    -0.354 N 
ATOM      2  N   UNL     1     -11.491  -3.068 -24.965  0.00  0.00    -0.372 N 
ATOM      3  N   UNL     1      -9.453  -4.040 -24.557  0.00  0.00    -0.372 N 
ATOM      4  C   UNL     1     -10.745  -3.907 -24.237  0.00  0.00    +0.166 C 
ATOM      5  H   UNL     1     -12.279  -4.416 -23.013  0.00  0.00    +0.163 HD
ATOM      6  H   UNL     1     -11.099  -2.547 -25.738  0.00  0.00    +0.159 HD
ATOM      7  H   UNL     1     -12.478  -2.937 -24.781  0.00  0.00    +0.159 HD
ATOM      8  H   UNL     1      -8.834  -4.653 -24.043  0.00  0.00    +0.159 HD
ATOM      9  H   UNL     1      -9.039  -3.518 -25.320  0.00  0.00    +0.159 HD
ENDROOT
BRANCH   1  10
ATOM     10  C   UNL     1     -10.590  -5.562 -22.404  0.00  0.00    +0.151 C 
BRANCH  10  11
ATOM     11  C   UNL     1     -10.373  -4.987 -21.031  0.00  0.00    -0.028 A 
ATOM     12  C   UNL     1      -9.175  -4.328 -20.716  0.00  0.00    +0.005 A 
ATOM     13  C   UNL     1     -11.363  -5.093 -20.042  0.00  0.00    +0.005 A 
ATOM     14  C   UNL     1      -8.985  -3.768 -19.451  0.00  0.00    +0.000 A 
ATOM     15  C   UNL     1     -11.169  -4.534 -18.780  0.00  0.00    +0.000 A 
ATOM     16  C   UNL     1      -9.981  -3.869 -18.485  0.00  0.00    +0.000 A 
ENDBRANCH  10  11
ENDBRANCH   1  10
TORSDOF 2
ENDMDL
MODEL 4
REMARK VINA RESULT:    -4.944     39.361     40.991
REMARK INTER + INTRA:          -5.626
REMARK INTER:                  -5.468
REMARK INTRA:                  -0.157
REMARK UNBOUND:                -0.104
REMARK  Name = 1550473
REMARK  2 active torsions:
REMARK  status: ('A' for Active; 'I' for Inactive)
REMARK    1  A    between atoms: N_1  and  C_4
REMARK    2  A    between atoms: C_4  and  C_5
REMARK                            x       y       z     vdW  Elec       q    Type
REMARK                         _______ _______ _______ _____ _____    ______ ____
ROOT
ATOM      1  N   UNL     1       8.458   9.884  23.183  0.00  0.00    -0.354 N 
ATOM      2  N   UNL     1       9.029  10.693  25.276  0.00  0.00    -0.372 N 
ATOM      3  N   UNL     1       9.402   8.479  24.804  0.00  0.00    -0.372 N 
ATOM      4  C   UNL     1       8.960   9.677  24.408  0.00  0.00    +0.166 C 
ATOM      5  H   UNL     1       8.112  10.808  22.954  0.00  0.00    +0.163 HD
ATOM      6  H   UNL     1       9.406  10.568  26.206  0.00  0.00    +0.159 HD
ATOM      7  H   UNL     1       8.725  11.627  25.030  0.00  0.00    +0.159 HD
ATOM      8  H   UNL     1       9.372   7.670  24.198  0.00  0.00    +0.159 HD
ATOM      9  H   UNL     1       9.772   8.331  25.735  0.00  0.00    +0.159 HD
ENDROOT
BRANCH   1  10
ATOM     10  C   UNL     1       8.388   8.857  22.144  0.00  0.00    +0.151 C 
BRANCH  10  11
ATOM     11  C   UNL     1       6.952   8.460  21.943  0.00  0.00    -0.028 A 
ATOM     12  C   UNL     1       5.927   9.410  22.057  0.00  0.00    +0.005 A 
ATOM     13  C   UNL     1       6.610   7.135  21.631  0.00  0.00    +0.005 A 
ATOM     14  C   UNL     1       4.596   9.048  21.841  0.00  0.00    +0.000 A 
ATOM     15  C   UNL     1       5.279   6.777  21.416  0.00  0.00    +0.000 A 
ATOM     16  C   UNL     1       4.273   7.734  21.519  0.00  0.00    +0.000 A 
ENDBRANCH  10  11
ENDBRANCH   1  10
TORSDOF 2
ENDMDL
MODEL 5
REMARK VINA RESULT:    -4.752     14.675     15.394
REMARK INTER + INTRA:          -5.411
REMARK INTER:                  -5.285
REMARK INTRA:                  -0.126
REMARK UNBOUND:                -0.104
REMARK  Name = 1550473
REMARK  2 active torsions:
REMARK  status: ('A' for Active; 'I' for Inactive)
REMARK    1  A    between atoms: N_1  and  C_4
REMARK    2  A    between atoms: C_4  and  C_5
REMARK                            x       y       z     vdW  Elec       q    Type
REMARK                         _______ _______ _______ _____ _____    ______ ____
ROOT
ATOM      1  N   UNL     1      -9.671  -3.487 -23.472  0.00  0.00    -0.354 N 
ATOM      2  N   UNL     1      -8.573  -2.286 -25.120  0.00  0.00    -0.372 N 
ATOM      3  N   UNL     1      -8.825  -4.552 -25.380  0.00  0.00    -0.372 N 
ATOM      4  C   UNL     1      -9.030  -3.452 -24.648  0.00  0.00    +0.166 C 
ATOM      5  H   UNL     1      -9.767  -2.623 -22.950  0.00  0.00    +0.163 HD
ATOM      6  H   UNL     1      -8.088  -2.229 -26.006  0.00  0.00    +0.159 HD
ATOM      7  H   UNL     1      -8.711  -1.417 -24.618  0.00  0.00    +0.159 HD
ATOM      8  H   UNL     1      -9.140  -5.464 -25.077  0.00  0.00    +0.159 HD
ATOM      9  H   UNL     1      -8.332  -4.516 -26.264  0.00  0.00    +0.159 HD
ENDROOT
BRANCH   1  10
ATOM     10  C   UNL     1     -10.254  -4.696 -22.894  0.00  0.00    +0.151 C 
BRANCH  10  11
ATOM     11  C   UNL     1     -10.194  -4.603 -21.394  0.00  0.00    -0.028 A 
ATOM     12  C   UNL     1     -11.247  -5.091 -20.607  0.00  0.00    +0.005 A 
ATOM     13  C   UNL     1      -9.083  -4.032 -20.754  0.00  0.00    +0.005 A 
ATOM     14  C   UNL     1     -11.178  -5.031 -19.213  0.00  0.00    +0.000 A 
ATOM     15  C   UNL     1      -9.019  -3.974 -19.362  0.00  0.00    +0.000 A 
ATOM     16  C   UNL     1     -10.065  -4.476 -18.592  0.00  0.00    +0.000 A 
ENDBRANCH  10  11
ENDBRANCH   1  10
TORSDOF 2
ENDMDL
MODEL 6
REMARK VINA RESULT:    -4.734     32.087     34.462
REMARK INTER + INTRA:          -5.392
REMARK INTER:                  -5.269
REMARK INTRA:                  -0.122
REMARK UNBOUND:                -0.104
REMARK  Name = 1550473
REMARK  2 active torsions:
REMARK  status: ('A' for Active; 'I' for Inactive)
REMARK    1  A    between atoms: N_1  and  C_4
REMARK    2  A    between atoms: C_4  and  C_5
REMARK                            x       y       z     vdW  Elec       q    Type
REMARK                         _______ _______ _______ _____ _____    ______ ____
ROOT
ATOM      1  N   UNL     1       7.485   6.267  11.478  0.00  0.00    -0.354 N 
ATOM      2  N   UNL     1       5.939   5.157  10.157  0.00  0.00    -0.372 N 
ATOM      3  N   UNL     1       5.230   6.904  11.466  0.00  0.00    -0.372 N 
ATOM      4  C   UNL     1       6.226   6.118  11.044  0.00  0.00    +0.166 C 
ATOM      5  H   UNL     1       8.189   5.620  11.142  0.00  0.00    +0.163 HD
ATOM      6  H   UNL     1       4.999   5.024   9.809  0.00  0.00    +0.159 HD
ATOM      7  H   UNL     1       6.654   4.542   9.789  0.00  0.00    +0.159 HD
ATOM      8  H   UNL     1       5.380   7.643  12.139  0.00  0.00    +0.159 HD
ATOM      9  H   UNL     1       4.280   6.778  11.138  0.00  0.00    +0.159 HD
ENDROOT
BRANCH   1  10
ATOM     10  C   UNL     1       7.913   7.315  12.402  0.00  0.00    +0.151 C 
BRANCH  10  11
ATOM     11  C   UNL     1       9.351   7.083  12.777  0.00  0.00    -0.028 A 
ATOM     12  C   UNL     1      10.073   8.065  13.471  0.00  0.00    +0.005 A 
ATOM     13  C   UNL     1       9.994   5.880  12.447  0.00  0.00    +0.005 A 
ATOM     14  C   UNL     1      11.400   7.837  13.846  0.00  0.00    +0.000 A 
ATOM     15  C   UNL     1      11.319   5.657  12.823  0.00  0.00    +0.000 A 
ATOM     16  C   UNL     1      12.020   6.634  13.524  0.00  0.00    +0.000 A 
ENDBRANCH  10  11
ENDBRANCH   1  10
TORSDOF 2
ENDMDL
MODEL 7
REMARK VINA RESULT:    -4.582     39.296     40.798
REMARK INTER + INTRA:          -5.222
REMARK INTER:                  -5.060
REMARK INTRA:                  -0.161
REMARK UNBOUND:                -0.104
REMARK  Name = 1550473
REMARK  2 active torsions:
REMARK  status: ('A' for Active; 'I' for Inactive)
REMARK    1  A    between atoms: N_1  and  C_4
REMARK    2  A    between atoms: C_4  and  C_5
REMARK                            x       y       z     vdW  Elec       q    Type
REMARK                         _______ _______ _______ _____ _____    ______ ____
ROOT
ATOM      1  N   UNL     1       9.160   8.448  23.139  0.00  0.00    -0.354 N 
ATOM      2  N   UNL     1      11.046   8.691  21.816  0.00  0.00    -0.372 N 
ATOM      3  N   UNL     1       9.506  10.391  21.875  0.00  0.00    -0.372 N 
ATOM      4  C   UNL     1       9.890   9.177  22.284  0.00  0.00    +0.166 C 
ATOM      5  H   UNL     1       9.491   7.523  23.387  0.00  0.00    +0.163 HD
ATOM      6  H   UNL     1      11.620   9.219  21.173  0.00  0.00    +0.159 HD
ATOM      7  H   UNL     1      11.397   7.785  22.101  0.00  0.00    +0.159 HD
ATOM      8  H   UNL     1       8.642  10.813  22.187  0.00  0.00    +0.159 HD
ATOM      9  H   UNL     1      10.061  10.931  21.223  0.00  0.00    +0.159 HD
ENDROOT
BRANCH   1  10
ATOM     10  C   UNL     1       7.914   8.908  23.749  0.00  0.00    +0.151 C 
BRANCH  10  11
ATOM     11  C   UNL     1       6.755   8.432  22.918  0.00  0.00    -0.028 A 
ATOM     12  C   UNL     1       5.711   9.308  22.584  0.00  0.00    +0.005 A 
ATOM     13  C   UNL     1       6.697   7.108  22.456  0.00  0.00    +0.005 A 
ATOM     14  C   UNL     1       4.649   8.875  21.786  0.00  0.00    +0.000 A 
ATOM     15  C   UNL     1       5.634   6.679  21.661  0.00  0.00    +0.000 A 
ATOM     16  C   UNL     1       4.612   7.563  21.325  0.00  0.00    +0.000 A 
ENDBRANCH  10  11
ENDBRANCH   1  10
TORSDOF 2
ENDMDL
MODEL 8
REMARK VINA RESULT:    -4.555     33.720     35.896
REMARK INTER + INTRA:          -5.191
REMARK INTER:                  -5.063
REMARK INTRA:                  -0.128
REMARK UNBOUND:                -0.104
REMARK  Name = 1550473
REMARK  2 active torsions:
REMARK  status: ('A' for Active; 'I' for Inactive)
REMARK    1  A    between atoms: N_1  and  C_4
REMARK    2  A    between atoms: C_4  and  C_5
REMARK                            x       y       z     vdW  Elec       q    Type
REMARK                         _______ _______ _______ _____ _____    ______ ____
ROOT
ATOM      1  N   UNL     1       8.849   6.852  12.907  0.00  0.00    -0.354 N 
ATOM      2  N   UNL     1       7.244   5.209  12.611  0.00  0.00    -0.372 N 
ATOM      3  N   UNL     1       7.816   6.534  10.827  0.00  0.00    -0.372 N 
ATOM      4  C   UNL     1       7.980   6.211  12.114  0.00  0.00    +0.166 C 
ATOM      5  H   UNL     1       8.904   6.579  13.881  0.00  0.00    +0.163 HD
ATOM      6  H   UNL     1       6.583   4.704  12.036  0.00  0.00    +0.159 HD
ATOM      7  H   UNL     1       7.335   4.907  13.573  0.00  0.00    +0.159 HD
ATOM      8  H   UNL     1       8.336   7.285  10.393  0.00  0.00    +0.159 HD
ATOM      9  H   UNL     1       7.150   6.048  10.239  0.00  0.00    +0.159 HD
ENDROOT
BRANCH   1  10
ATOM     10  C   UNL     1       9.736   7.921  12.451  0.00  0.00    +0.151 C 
BRANCH  10  11
ATOM     11  C   UNL     1       9.822   8.977  13.518  0.00  0.00    -0.028 A 
ATOM     12  C   UNL     1       8.659   9.584  14.014  0.00  0.00    +0.005 A 
ATOM     13  C   UNL     1      11.063   9.370  14.042  0.00  0.00    +0.005 A 
ATOM     14  C   UNL     1       8.737  10.543  15.027  0.00  0.00    +0.000 A 
ATOM     15  C   UNL     1      11.137  10.329  15.052  0.00  0.00    +0.000 A 
ATOM     16  C   UNL     1       9.973  10.913  15.546  0.00  0.00    +0.000 A 
ENDBRANCH  10  11
ENDBRANCH   1  10
TORSDOF 2
ENDMDL
MODEL 9
REMARK VINA RESULT:    -4.323     33.115     34.828
REMARK INTER + INTRA:          -4.933
REMARK INTER:                  -4.799
REMARK INTRA:                  -0.133
REMARK UNBOUND:                -0.104
REMARK  Name = 1550473
REMARK  2 active torsions:
REMARK  status: ('A' for Active; 'I' for Inactive)
REMARK    1  A    between atoms: N_1  and  C_4
REMARK    2  A    between atoms: C_4  and  C_5
REMARK                            x       y       z     vdW  Elec       q    Type
REMARK                         _______ _______ _______ _____ _____    ______ ____
ROOT
ATOM      1  N   UNL     1       9.520   9.728  13.141  0.00  0.00    -0.354 N 
ATOM      2  N   UNL     1       9.279  11.999  13.527  0.00  0.00    -0.372 N 
ATOM      3  N   UNL     1       8.431  10.517  15.060  0.00  0.00    -0.372 N 
ATOM      4  C   UNL     1       9.077  10.732  13.909  0.00  0.00    +0.166 C 
ATOM      5  H   UNL     1       9.976   9.957  12.265  0.00  0.00    +0.163 HD
ATOM      6  H   UNL     1       8.960  12.777  14.088  0.00  0.00    +0.159 HD
ATOM      7  H   UNL     1       9.776  12.225  12.674  0.00  0.00    +0.159 HD
ATOM      8  H   UNL     1       8.242   9.584  15.402  0.00  0.00    +0.159 HD
ATOM      9  H   UNL     1       8.093  11.283  15.630  0.00  0.00    +0.159 HD
ENDROOT
BRANCH   1  10
ATOM     10  C   UNL     1       9.398   8.314  13.493  0.00  0.00    +0.151 C 
BRANCH  10  11
ATOM     11  C   UNL     1       8.707   7.587  12.373  0.00  0.00    -0.028 A 
ATOM     12  C   UNL     1       9.058   7.837  11.038  0.00  0.00    +0.005 A 
ATOM     13  C   UNL     1       7.704   6.643  12.640  0.00  0.00    +0.005 A 
ATOM     14  C   UNL     1       8.438   7.140   9.999  0.00  0.00    +0.000 A 
ATOM     15  C   UNL     1       7.086   5.949  11.599  0.00  0.00    +0.000 A 
ATOM     16  C   UNL     1       7.455   6.196  10.279  0.00  0.00    +0.000 A 
ENDBRANCH  10  11
ENDBRANCH   1  10
TORSDOF 2
ENDMDL
