MODEL 1
REMARK VINA RESULT:    -4.815      0.000      0.000
REMARK INTER + INTRA:          -5.517
REMARK INTER:                  -5.378
REMARK INTRA:                  -0.139
REMARK UNBOUND:                -0.139
REMARK  Name = 1550473
REMARK  2 active torsions:
REMARK  status: ('A' for Active; 'I' for Inactive)
REMARK    1  A    between atoms: N_1  and  C_4
REMARK    2  A    between atoms: C_4  and  C_5
REMARK                            x       y       z     vdW  Elec       q    Type
REMARK                         _______ _______ _______ _____ _____    ______ ____
ROOT
ATOM      1  N   UNL     1       9.508  -6.241 -17.394  0.00  0.00    -0.354 N 
ATOM      2  N   UNL     1       9.826  -8.204 -16.206  0.00  0.00    -0.372 N 
ATOM      3  N   UNL     1       8.216  -8.144 -17.839  0.00  0.00    -0.372 N 
ATOM      4  C   UNL     1       9.179  -7.517 -17.156  0.00  0.00    +0.166 C 
ATOM      5  H   UNL     1      10.227  -5.814 -16.820  0.00  0.00    +0.163 HD
ATOM      6  H   UNL     1       9.602  -9.169 -16.007  0.00  0.00    +0.159 HD
ATOM      7  H   UNL     1      10.576  -7.789 -15.666  0.00  0.00    +0.159 HD
ATOM      8  H   UNL     1       7.685  -7.680 -18.565  0.00  0.00    +0.159 HD
ATOM      9  H   UNL     1       7.969  -9.106 -17.646  0.00  0.00    +0.159 HD
ENDROOT
BRANCH   1  10
ATOM     10  C   UNL     1       8.901  -5.421 -18.441  0.00  0.00    +0.151 C 
BRANCH  10  11
ATOM     11  C   UNL     1       8.462  -4.111 -17.848  0.00  0.00    -0.028 A 
ATOM     12  C   UNL     1       8.265  -3.987 -16.465  0.00  0.00    +0.005 A 
ATOM     13  C   UNL     1       8.245  -2.990 -18.663  0.00  0.00    +0.005 A 
ATOM     14  C   UNL     1       7.886  -2.762 -15.909  0.00  0.00    +0.000 A 
ATOM     15  C   UNL     1       7.865  -1.769 -18.104  0.00  0.00    +0.000 A 
ATOM     16  C   UNL     1       7.688  -1.655 -16.728  0.00  0.00    +0.000 A 
ENDBRANCH  10  11
ENDBRANCH   1  10
TORSDOF 2
ENDMDL
MODEL 2
REMARK VINA RESULT:    -4.581     22.670     24.000
REMARK INTER + INTRA:          -5.256
REMARK INTER:                  -5.103
REMARK INTRA:                  -0.153
REMARK UNBOUND:                -0.139
REMARK  Name = 1550473
REMARK  2 active torsions:
REMARK  status: ('A' for Active; 'I' for Inactive)
REMARK    1  A    between atoms: N_1  and  C_4
REMARK    2  A    between atoms: C_4  and  C_5
REMARK                            x       y       z     vdW  Elec       q    Type
REMARK                         _______ _______ _______ _____ _____    ______ ____
ROOT
ATOM      1  N   UNL     1      13.185  -1.474   4.281  0.00  0.00    -0.354 N 
ATOM      2  N   UNL     1      11.656  -3.210   4.163  0.00  0.00    -0.372 N 
ATOM      3  N   UNL     1      13.594  -3.518   5.351  0.00  0.00    -0.372 N 
ATOM      4  C   UNL     1      12.824  -2.724   4.600  0.00  0.00    +0.166 C 
ATOM      5  H   UNL     1      12.570  -0.934   3.683  0.00  0.00    +0.163 HD
ATOM      6  H   UNL     1      11.355  -4.148   4.391  0.00  0.00    +0.159 HD
ATOM      7  H   UNL     1      11.023  -2.651   3.604  0.00  0.00    +0.159 HD
ATOM      8  H   UNL     1      14.490  -3.214   5.708  0.00  0.00    +0.159 HD
ATOM      9  H   UNL     1      13.316  -4.464   5.580  0.00  0.00    +0.159 HD
ENDROOT
BRANCH   1  10
ATOM     10  C   UNL     1      14.411  -0.832   4.751  0.00  0.00    +0.151 C 
BRANCH  10  11
ATOM     11  C   UNL     1      14.049   0.341   5.620  0.00  0.00    -0.028 A 
ATOM     12  C   UNL     1      13.698   1.571   5.046  0.00  0.00    +0.005 A 
ATOM     13  C   UNL     1      14.049   0.226   7.019  0.00  0.00    +0.005 A 
ATOM     14  C   UNL     1      13.333   2.652   5.852  0.00  0.00    +0.000 A 
ATOM     15  C   UNL     1      13.685   1.307   7.820  0.00  0.00    +0.000 A 
ATOM     16  C   UNL     1      13.324   2.519   7.237  0.00  0.00    +0.000 A 
ENDBRANCH  10  11
ENDBRANCH   1  10
TORSDOF 2
ENDMDL
MODEL 3
REMARK VINA RESULT:    -4.399      4.817      6.071
REMARK INTER + INTRA:          -5.052
REMARK INTER:                  -4.907
REMARK INTRA:                  -0.145
REMARK UNBOUND:                -0.139
REMARK  Name = 1550473
REMARK  2 active torsions:
REMARK  status: ('A' for Active; 'I' for Inactive)
REMARK    1  A    between atoms: N_1  and  C_4
REMARK    2  A    between atoms: C_4  and  C_5
REMARK                            x       y       z     vdW  Elec       q    Type
REMARK                         _______ _______ _______ _____ _____    ______ ____
ROOT
ATOM      1  N   UNL     1       3.648  -1.978 -19.092  0.00  0.00    -0.354 N 
ATOM      2  N   UNL     1       2.173  -2.983 -20.568  0.00  0.00    -0.372 N 
ATOM      3  N   UNL     1       3.337  -1.130 -21.254  0.00  0.00    -0.372 N 
ATOM      4  C   UNL     1       3.063  -2.022 -20.297  0.00  0.00    +0.166 C 
ATOM      5  H   UNL     1       3.374  -2.666 -18.399  0.00  0.00    +0.163 HD
ATOM      6  H   UNL     1       1.718  -3.044 -21.469  0.00  0.00    +0.159 HD
ATOM      7  H   UNL     1       1.935  -3.697 -19.889  0.00  0.00    +0.159 HD
ATOM      8  H   UNL     1       3.996  -0.375 -21.111  0.00  0.00    +0.159 HD
ATOM      9  H   UNL     1       2.884  -1.166 -22.159  0.00  0.00    +0.159 HD
ENDROOT
BRANCH   1  10
ATOM     10  C   UNL     1       4.670  -1.004 -18.714  0.00  0.00    +0.151 C 
BRANCH  10  11
ATOM     11  C   UNL     1       5.885  -1.736 -18.215  0.00  0.00    -0.028 A 
ATOM     12  C   UNL     1       6.563  -2.641 -19.045  0.00  0.00    +0.005 A 
ATOM     13  C   UNL     1       6.368  -1.525 -16.914  0.00  0.00    +0.005 A 
ATOM     14  C   UNL     1       7.709  -3.298 -18.592  0.00  0.00    +0.000 A 
ATOM     15  C   UNL     1       7.512  -2.184 -16.465  0.00  0.00    +0.000 A 
ATOM     16  C   UNL     1       8.184  -3.069 -17.306  0.00  0.00    +0.000 A 
ENDBRANCH  10  11
ENDBRANCH   1  10
TORSDOF 2
ENDMDL
MODEL 4
REMARK VINA RESULT:    -4.277     25.990     27.605
REMARK INTER + INTRA:          -4.916
REMARK INTER:                  -4.747
REMARK INTRA:                  -0.169
REMARK UNBOUND:                -0.139
REMARK  Name = 1550473
REMARK  2 active torsions:
REMARK  status: ('A' for Active; 'I' for Inactive)
REMARK    1  A    between atoms: N_1  and  C_4
REMARK    2  A    between atoms: C_4  and  C_5
REMARK                            x       y       z     vdW  Elec       q    Type
REMARK                         _______ _______ _______ _____ _____    ______ ____
ROOT
ATOM      1  N   UNL     1       2.785  13.134   0.826  0.00  0.00    -0.354 N 
ATOM      2  N   UNL     1       4.418  13.237  -0.813  0.00  0.00    -0.372 N 
ATOM      3  N   UNL     1       4.478  11.519   0.707  0.00  0.00    -0.372 N 
ATOM      4  C   UNL     1       3.884  12.627   0.252  0.00  0.00    +0.166 C 
ATOM      5  H   UNL     1       2.400  13.994   0.453  0.00  0.00    +0.163 HD
ATOM      6  H   UNL     1       5.244  12.875  -1.269  0.00  0.00    +0.159 HD
ATOM      7  H   UNL     1       4.004  14.070  -1.212  0.00  0.00    +0.159 HD
ATOM      8  H   UNL     1       4.128  11.015   1.511  0.00  0.00    +0.159 HD
ATOM      9  H   UNL     1       5.313  11.148   0.271  0.00  0.00    +0.159 HD
ENDROOT
BRANCH   1  10
ATOM     10  C   UNL     1       2.094  12.517   1.957  0.00  0.00    +0.151 C 
BRANCH  10  11
ATOM     11  C   UNL     1       2.591  13.136   3.234  0.00  0.00    -0.028 A 
ATOM     12  C   UNL     1       3.129  12.335   4.252  0.00  0.00    +0.005 A 
ATOM     13  C   UNL     1       2.534  14.525   3.430  0.00  0.00    +0.005 A 
ATOM     14  C   UNL     1       3.619  12.912   5.426  0.00  0.00    +0.000 A 
ATOM     15  C   UNL     1       3.024  15.097   4.604  0.00  0.00    +0.000 A 
ATOM     16  C   UNL     1       3.568  14.291   5.600  0.00  0.00    +0.000 A 
ENDBRANCH  10  11
ENDBRANCH   1  10
TORSDOF 2
ENDMDL
MODEL 5
REMARK VINA RESULT:    -4.243     25.011     26.061
REMARK INTER + INTRA:          -4.879
REMARK INTER:                  -4.761
REMARK INTRA:                  -0.118
REMARK UNBOUND:                -0.139
REMARK  Name = 1550473
REMARK  2 active torsions:
REMARK  status: ('A' for Active; 'I' for Inactive)
REMARK    1  A    between atoms: N_1  and  C_4
REMARK    2  A    between atoms: C_4  and  C_5
REMARK                            x       y       z     vdW  Elec       q    Type
REMARK                         _______ _______ _______ _____ _____    ______ ____
ROOT
ATOM      1  N   UNL     1     -12.875  -2.023  -0.870  0.00  0.00    -0.354 N 
ATOM      2  N   UNL     1     -13.799  -3.484   0.672  0.00  0.00    -0.372 N 
ATOM      3  N   UNL     1     -14.073  -1.227   0.980  0.00  0.00    -0.372 N 
ATOM      4  C   UNL     1     -13.577  -2.233   0.252  0.00  0.00    +0.166 C 
ATOM      5  H   UNL     1     -12.500  -2.827  -1.360  0.00  0.00    +0.163 HD
ATOM      6  H   UNL     1     -14.328  -3.673   1.512  0.00  0.00    +0.159 HD
ATOM      7  H   UNL     1     -13.462  -4.287   0.155  0.00  0.00    +0.159 HD
ATOM      8  H   UNL     1     -13.936  -0.259   0.720  0.00  0.00    +0.159 HD
ATOM      9  H   UNL     1     -14.595  -1.396   1.831  0.00  0.00    +0.159 HD
ENDROOT
BRANCH   1  10
ATOM     10  C   UNL     1     -12.623  -0.702  -1.442  0.00  0.00    +0.151 C 
BRANCH  10  11
ATOM     11  C   UNL     1     -11.612  -0.830  -2.548  0.00  0.00    -0.028 A 
ATOM     12  C   UNL     1     -11.634   0.052  -3.638  0.00  0.00    +0.005 A 
ATOM     13  C   UNL     1     -10.627  -1.828  -2.509  0.00  0.00    +0.005 A 
ATOM     14  C   UNL     1     -10.677  -0.047  -4.651  0.00  0.00    +0.000 A 
ATOM     15  C   UNL     1      -9.674  -1.925  -3.523  0.00  0.00    +0.000 A 
ATOM     16  C   UNL     1      -9.698  -1.033  -4.592  0.00  0.00    +0.000 A 
ENDBRANCH  10  11
ENDBRANCH   1  10
TORSDOF 2
ENDMDL
MODEL 6
REMARK VINA RESULT:    -4.228     25.614     27.261
REMARK INTER + INTRA:          -4.862
REMARK INTER:                  -4.692
REMARK INTRA:                  -0.170
REMARK UNBOUND:                -0.139
REMARK  Name = 1550473
REMARK  2 active torsions:
REMARK  status: ('A' for Active; 'I' for Inactive)
REMARK    1  A    between atoms: N_1  and  C_4
REMARK    2  A    between atoms: C_4  and  C_5
REMARK                            x       y       z     vdW  Elec       q    Type
REMARK                         _______ _______ _______ _____ _____    ______ ____
ROOT
ATOM      1  N   UNL     1       3.375  11.749   1.537  0.00  0.00    -0.354 N 
ATOM      2  N   UNL     1       5.073  11.166   0.075  0.00  0.00    -0.372 N 
ATOM      3  N   UNL     1       5.591  12.393   1.944  0.00  0.00    -0.372 N 
ATOM      4  C   UNL     1       4.670  11.775   1.197  0.00  0.00    +0.166 C 
ATOM      5  H   UNL     1       2.722  11.290   0.912  0.00  0.00    +0.163 HD
ATOM      6  H   UNL     1       6.045  11.166  -0.206  0.00  0.00    +0.159 HD
ATOM      7  H   UNL     1       4.426  10.669  -0.524  0.00  0.00    +0.159 HD
ATOM      8  H   UNL     1       5.350  12.876   2.799  0.00  0.00    +0.159 HD
ATOM      9  H   UNL     1       6.566  12.413   1.673  0.00  0.00    +0.159 HD
ENDROOT
BRANCH   1  10
ATOM     10  C   UNL     1       2.840  12.335   2.765  0.00  0.00    +0.151 C 
BRANCH  10  11
ATOM     11  C   UNL     1       2.255  13.684   2.452  0.00  0.00    -0.028 A 
ATOM     12  C   UNL     1       1.401  13.852   1.352  0.00  0.00    +0.005 A 
ATOM     13  C   UNL     1       2.546  14.798   3.254  0.00  0.00    +0.005 A 
ATOM     14  C   UNL     1       0.834  15.099   1.078  0.00  0.00    +0.000 A 
ATOM     15  C   UNL     1       1.978  16.041   2.977  0.00  0.00    +0.000 A 
ATOM     16  C   UNL     1       1.120  16.191   1.890  0.00  0.00    +0.000 A 
ENDBRANCH  10  11
ENDBRANCH   1  10
TORSDOF 2
ENDMDL
MODEL 7
REMARK VINA RESULT:    -4.218     29.150     30.702
REMARK INTER + INTRA:          -4.851
REMARK INTER:                  -4.720
REMARK INTRA:                  -0.130
REMARK UNBOUND:                -0.139
REMARK  Name = 1550473
REMARK  2 active torsions:
REMARK  status: ('A' for Active; 'I' for Inactive)
REMARK    1  A    between atoms: N_1  and  C_4
REMARK    2  A    between atoms: C_4  and  C_5
REMARK                            x       y       z     vdW  Elec       q    Type
REMARK                         _______ _______ _______ _____ _____    ______ ____
ROOT
ATOM      1  N   UNL     1       4.043  14.179   7.543  0.00  0.00    -0.354 N 
ATOM      2  N   UNL     1       3.792  13.629   9.779  0.00  0.00    -0.372 N 
ATOM      3  N   UNL     1       3.334  15.775   9.107  0.00  0.00    -0.372 N 
ATOM      4  C   UNL     1       3.724  14.534   8.795  0.00  0.00    +0.166 C 
ATOM      5  H   UNL     1       4.360  13.231   7.378  0.00  0.00    +0.163 HD
ATOM      6  H   UNL     1       3.554  13.866  10.733  0.00  0.00    +0.159 HD
ATOM      7  H   UNL     1       4.065  12.670   9.603  0.00  0.00    +0.159 HD
ATOM      8  H   UNL     1       3.268  16.506   8.412  0.00  0.00    +0.159 HD
ATOM      9  H   UNL     1       3.103  16.035  10.058  0.00  0.00    +0.159 HD
ENDROOT
BRANCH   1  10
ATOM     10  C   UNL     1       3.951  15.075   6.391  0.00  0.00    +0.151 C 
BRANCH  10  11
ATOM     11  C   UNL     1       3.471  14.293   5.199  0.00  0.00    -0.028 A 
ATOM     12  C   UNL     1       3.564  12.894   5.181  0.00  0.00    +0.005 A 
ATOM     13  C   UNL     1       2.917  14.946   4.087  0.00  0.00    +0.005 A 
ATOM     14  C   UNL     1       3.091  12.166   4.086  0.00  0.00    +0.000 A 
ATOM     15  C   UNL     1       2.447  14.216   2.996  0.00  0.00    +0.000 A 
ATOM     16  C   UNL     1       2.532  12.825   2.997  0.00  0.00    +0.000 A 
ENDBRANCH  10  11
ENDBRANCH   1  10
TORSDOF 2
ENDMDL
MODEL 8
REMARK VINA RESULT:    -4.108     25.774     27.479
REMARK INTER + INTRA:          -4.728
REMARK INTER:                  -4.616
REMARK INTRA:                  -0.112
REMARK UNBOUND:                -0.139
REMARK  Name = 1550473
REMARK  2 active torsions:
REMARK  status: ('A' for Active; 'I' for Inactive)
REMARK    1  A    between atoms: N_1  and  C_4
REMARK    2  A    between atoms: C_4  and  C_5
REMARK                            x       y       z     vdW  Elec       q    Type
REMARK                         _______ _______ _______ _____ _____    ______ ____
ROOT
ATOM      1  N   UNL     1       2.134  13.544  -0.073  0.00  0.00    -0.354 N 
ATOM      2  N   UNL     1       2.909  13.259  -2.237  0.00  0.00    -0.372 N 
ATOM      3  N   UNL     1       1.609  15.088  -1.757  0.00  0.00    -0.372 N 
ATOM      4  C   UNL     1       2.211  13.968  -1.342  0.00  0.00    +0.166 C 
ATOM      5  H   UNL     1       2.587  12.671   0.171  0.00  0.00    +0.163 HD
ATOM      6  H   UNL     1       2.988  13.556  -3.201  0.00  0.00    +0.159 HD
ATOM      7  H   UNL     1       3.400  12.411  -1.980  0.00  0.00    +0.159 HD
ATOM      8  H   UNL     1       1.062  15.665  -1.132  0.00  0.00    +0.159 HD
ATOM      9  H   UNL     1       1.667  15.395  -2.720  0.00  0.00    +0.159 HD
ENDROOT
BRANCH   1  10
ATOM     10  C   UNL     1       1.444  14.271   0.991  0.00  0.00    +0.151 C 
BRANCH  10  11
ATOM     11  C   UNL     1       2.101  13.957   2.306  0.00  0.00    -0.028 A 
ATOM     12  C   UNL     1       2.466  12.640   2.623  0.00  0.00    +0.005 A 
ATOM     13  C   UNL     1       2.367  14.972   3.238  0.00  0.00    +0.005 A 
ATOM     14  C   UNL     1       3.104  12.352   3.833  0.00  0.00    +0.000 A 
ATOM     15  C   UNL     1       3.003  14.680   4.444  0.00  0.00    +0.000 A 
ATOM     16  C   UNL     1       3.374  13.371   4.740  0.00  0.00    +0.000 A 
ENDBRANCH  10  11
ENDBRANCH   1  10
TORSDOF 2
ENDMDL
MODEL 9
REMARK VINA RESULT:    -4.051     35.745     37.288
REMARK INTER + INTRA:          -4.664
REMARK INTER:                  -4.527
REMARK INTRA:                  -0.137
REMARK UNBOUND:                -0.139
REMARK  Name = 1550473
REMARK  2 active torsions:
REMARK  status: ('A' for Active; 'I' for Inactive)
REMARK    1  A    between atoms: N_1  and  C_4
REMARK    2  A    between atoms: C_4  and  C_5
REMARK                            x       y       z     vdW  Elec       q    Type
REMARK                         _______ _______ _______ _____ _____    ______ ____
ROOT
ATOM      1  N   UNL     1       2.528  16.478  14.112  0.00  0.00    -0.354 N 
ATOM      2  N   UNL     1       4.268  17.333  15.379  0.00  0.00    -0.372 N 
ATOM      3  N   UNL     1       2.589  18.744  14.705  0.00  0.00    -0.372 N 
ATOM      4  C   UNL     1       3.116  17.515  14.723  0.00  0.00    +0.166 C 
ATOM      5  H   UNL     1       2.994  15.578  14.137  0.00  0.00    +0.163 HD
ATOM      6  H   UNL     1       4.733  18.096  15.853  0.00  0.00    +0.159 HD
ATOM      7  H   UNL     1       4.707  16.423  15.442  0.00  0.00    +0.159 HD
ATOM      8  H   UNL     1       1.725  18.949  14.222  0.00  0.00    +0.159 HD
ATOM      9  H   UNL     1       3.045  19.523  15.163  0.00  0.00    +0.159 HD
ENDROOT
BRANCH   1  10
ATOM     10  C   UNL     1       1.245  16.558  13.416  0.00  0.00    +0.151 C 
BRANCH  10  11
ATOM     11  C   UNL     1       1.328  15.768  12.139  0.00  0.00    -0.028 A 
ATOM     12  C   UNL     1       2.530  15.703  11.420  0.00  0.00    +0.005 A 
ATOM     13  C   UNL     1       0.210  15.078  11.647  0.00  0.00    +0.005 A 
ATOM     14  C   UNL     1       2.616  14.945  10.249  0.00  0.00    +0.000 A 
ATOM     15  C   UNL     1       0.300  14.323  10.478  0.00  0.00    +0.000 A 
ATOM     16  C   UNL     1       1.503  14.254   9.781  0.00  0.00    +0.000 A 
ENDBRANCH  10  11
ENDBRANCH   1  10
TORSDOF 2
ENDMDL
