MODEL 1
REMARK VINA RESULT:    -5.452      0.000      0.000
REMARK INTER + INTRA:          -6.225
REMARK INTER:                  -6.090
REMARK INTRA:                  -0.135
REMARK UNBOUND:                -0.135
REMARK  Name = 1550473
REMARK  2 active torsions:
REMARK  status: ('A' for Active; 'I' for Inactive)
REMARK    1  A    between atoms: N_1  and  C_4
REMARK    2  A    between atoms: C_4  and  C_5
REMARK                            x       y       z     vdW  Elec       q    Type
REMARK                         _______ _______ _______ _____ _____    ______ ____
ROOT
ATOM      1  N   UNL     1       8.100   0.975   4.420  0.00  0.00    -0.354 N 
ATOM      2  N   UNL     1       6.899  -0.999   4.572  0.00  0.00    -0.372 N 
ATOM      3  N   UNL     1       8.327  -0.703   2.801  0.00  0.00    -0.372 N 
ATOM      4  C   UNL     1       7.784  -0.230   3.928  0.00  0.00    +0.166 C 
ATOM      5  H   UNL     1       7.632   1.289   5.263  0.00  0.00    +0.163 HD
ATOM      6  H   UNL     1       6.643  -1.914   4.226  0.00  0.00    +0.159 HD
ATOM      7  H   UNL     1       6.466  -0.702   5.439  0.00  0.00    +0.159 HD
ATOM      8  H   UNL     1       8.997  -0.169   2.264  0.00  0.00    +0.159 HD
ATOM      9  H   UNL     1       8.075  -1.612   2.432  0.00  0.00    +0.159 HD
ENDROOT
BRANCH   1  10
ATOM     10  C   UNL     1       9.093   1.868   3.824  0.00  0.00    +0.151 C 
BRANCH  10  11
ATOM     11  C   UNL     1       8.433   3.175   3.479  0.00  0.00    -0.028 A 
ATOM     12  C   UNL     1       7.848   3.963   4.481  0.00  0.00    +0.005 A 
ATOM     13  C   UNL     1       8.396   3.633   2.153  0.00  0.00    +0.005 A 
ATOM     14  C   UNL     1       7.262   5.191   4.165  0.00  0.00    +0.000 A 
ATOM     15  C   UNL     1       7.809   4.860   1.842  0.00  0.00    +0.000 A 
ATOM     16  C   UNL     1       7.244   5.639   2.849  0.00  0.00    +0.000 A 
ENDBRANCH  10  11
ENDBRANCH   1  10
TORSDOF 2
ENDMDL
MODEL 2
REMARK VINA RESULT:    -5.213      2.561      5.034
REMARK INTER + INTRA:          -5.957
REMARK INTER:                  -5.829
REMARK INTRA:                  -0.128
REMARK UNBOUND:                -0.135
REMARK  Name = 1550473
REMARK  2 active torsions:
REMARK  status: ('A' for Active; 'I' for Inactive)
REMARK    1  A    between atoms: N_1  and  C_4
REMARK    2  A    between atoms: C_4  and  C_5
REMARK                            x       y       z     vdW  Elec       q    Type
REMARK                         _______ _______ _______ _____ _____    ______ ____
ROOT
ATOM      1  N   UNL     1       7.994   3.848   3.487  0.00  0.00    -0.354 N 
ATOM      2  N   UNL     1       6.945   5.716   2.608  0.00  0.00    -0.372 N 
ATOM      3  N   UNL     1       7.954   5.874   4.663  0.00  0.00    -0.372 N 
ATOM      4  C   UNL     1       7.639   5.135   3.594  0.00  0.00    +0.166 C 
ATOM      5  H   UNL     1       7.699   3.334   2.665  0.00  0.00    +0.163 HD
ATOM      6  H   UNL     1       6.666   6.687   2.660  0.00  0.00    +0.159 HD
ATOM      7  H   UNL     1       6.691   5.213   1.767  0.00  0.00    +0.159 HD
ATOM      8  H   UNL     1       8.471   5.493   5.444  0.00  0.00    +0.159 HD
ATOM      9  H   UNL     1       7.673   6.844   4.738  0.00  0.00    +0.159 HD
ENDROOT
BRANCH   1  10
ATOM     10  C   UNL     1       8.797   3.136   4.480  0.00  0.00    +0.151 C 
BRANCH  10  11
ATOM     11  C   UNL     1       8.428   1.678   4.455  0.00  0.00    -0.028 A 
ATOM     12  C   UNL     1       7.124   1.279   4.128  0.00  0.00    +0.005 A 
ATOM     13  C   UNL     1       9.380   0.690   4.753  0.00  0.00    +0.005 A 
ATOM     14  C   UNL     1       6.788  -0.076   4.076  0.00  0.00    +0.000 A 
ATOM     15  C   UNL     1       9.041  -0.661   4.700  0.00  0.00    +0.000 A 
ATOM     16  C   UNL     1       7.746  -1.044   4.359  0.00  0.00    +0.000 A 
ENDBRANCH  10  11
ENDBRANCH   1  10
TORSDOF 2
ENDMDL
MODEL 3
REMARK VINA RESULT:    -5.004      1.566      2.127
REMARK INTER + INTRA:          -5.723
REMARK INTER:                  -5.574
REMARK INTRA:                  -0.149
REMARK UNBOUND:                -0.135
REMARK  Name = 1550473
REMARK  2 active torsions:
REMARK  status: ('A' for Active; 'I' for Inactive)
REMARK    1  A    between atoms: N_1  and  C_4
REMARK    2  A    between atoms: C_4  and  C_5
REMARK                            x       y       z     vdW  Elec       q    Type
REMARK                         _______ _______ _______ _____ _____    ______ ____
ROOT
ATOM      1  N   UNL     1       8.963   0.941   2.296  0.00  0.00    -0.354 N 
ATOM      2  N   UNL     1      10.702  -0.120   1.194  0.00  0.00    -0.372 N 
ATOM      3  N   UNL     1      10.840   0.167   3.466  0.00  0.00    -0.372 N 
ATOM      4  C   UNL     1      10.158   0.336   2.329  0.00  0.00    +0.166 C 
ATOM      5  H   UNL     1       8.511   1.065   1.398  0.00  0.00    +0.163 HD
ATOM      6  H   UNL     1      11.601  -0.584   1.188  0.00  0.00    +0.159 HD
ATOM      7  H   UNL     1      10.227  -0.036   0.304  0.00  0.00    +0.159 HD
ATOM      8  H   UNL     1      10.488   0.494   4.356  0.00  0.00    +0.159 HD
ATOM      9  H   UNL     1      11.747  -0.284   3.479  0.00  0.00    +0.159 HD
ENDROOT
BRANCH   1  10
ATOM     10  C   UNL     1       8.259   1.425   3.482  0.00  0.00    +0.151 C 
BRANCH  10  11
ATOM     11  C   UNL     1       8.029   2.905   3.346  0.00  0.00    -0.028 A 
ATOM     12  C   UNL     1       7.621   3.667   4.451  0.00  0.00    +0.005 A 
ATOM     13  C   UNL     1       8.223   3.553   2.117  0.00  0.00    +0.005 A 
ATOM     14  C   UNL     1       7.437   5.047   4.333  0.00  0.00    +0.000 A 
ATOM     15  C   UNL     1       8.036   4.930   2.002  0.00  0.00    +0.000 A 
ATOM     16  C   UNL     1       7.646   5.677   3.111  0.00  0.00    +0.000 A 
ENDBRANCH  10  11
ENDBRANCH   1  10
TORSDOF 2
ENDMDL
MODEL 4
REMARK VINA RESULT:    -4.924     13.574     14.601
REMARK INTER + INTRA:          -5.635
REMARK INTER:                  -5.521
REMARK INTRA:                  -0.114
REMARK UNBOUND:                -0.135
REMARK  Name = 1550473
REMARK  2 active torsions:
REMARK  status: ('A' for Active; 'I' for Inactive)
REMARK    1  A    between atoms: N_1  and  C_4
REMARK    2  A    between atoms: C_4  and  C_5
REMARK                            x       y       z     vdW  Elec       q    Type
REMARK                         _______ _______ _______ _____ _____    ______ ____
ROOT
ATOM      1  N   UNL     1       2.931  -0.688 -10.075  0.00  0.00    -0.354 N 
ATOM      2  N   UNL     1       3.893  -2.681  -9.393  0.00  0.00    -0.372 N 
ATOM      3  N   UNL     1       1.771  -2.715 -10.266  0.00  0.00    -0.372 N 
ATOM      4  C   UNL     1       2.856  -2.016  -9.916  0.00  0.00    +0.166 C 
ATOM      5  H   UNL     1       3.770  -0.212  -9.762  0.00  0.00    +0.163 HD
ATOM      6  H   UNL     1       3.867  -3.684  -9.265  0.00  0.00    +0.159 HD
ATOM      7  H   UNL     1       4.748  -2.210  -9.124  0.00  0.00    +0.159 HD
ATOM      8  H   UNL     1       0.953  -2.272 -10.661  0.00  0.00    +0.159 HD
ATOM      9  H   UNL     1       1.722  -3.718 -10.135  0.00  0.00    +0.159 HD
ENDROOT
BRANCH   1  10
ATOM     10  C   UNL     1       1.879   0.124 -10.684  0.00  0.00    +0.151 C 
BRANCH  10  11
ATOM     11  C   UNL     1       1.359   1.100  -9.665  0.00  0.00    -0.028 A 
ATOM     12  C   UNL     1       0.802   2.322 -10.069  0.00  0.00    +0.005 A 
ATOM     13  C   UNL     1       1.417   0.807  -8.294  0.00  0.00    +0.005 A 
ATOM     14  C   UNL     1       0.292   3.216  -9.125  0.00  0.00    +0.000 A 
ATOM     15  C   UNL     1       0.907   1.703  -7.354  0.00  0.00    +0.000 A 
ATOM     16  C   UNL     1       0.343   2.906  -7.770  0.00  0.00    +0.000 A 
ENDBRANCH  10  11
ENDBRANCH   1  10
TORSDOF 2
ENDMDL
MODEL 5
REMARK VINA RESULT:    -4.653      1.562      2.516
REMARK INTER + INTRA:          -5.331
REMARK INTER:                  -5.181
REMARK INTRA:                  -0.150
REMARK UNBOUND:                -0.135
REMARK  Name = 1550473
REMARK  2 active torsions:
REMARK  status: ('A' for Active; 'I' for Inactive)
REMARK    1  A    between atoms: N_1  and  C_4
REMARK    2  A    between atoms: C_4  and  C_5
REMARK                            x       y       z     vdW  Elec       q    Type
REMARK                         _______ _______ _______ _____ _____    ______ ____
ROOT
ATOM      1  N   UNL     1       9.932   1.566   3.384  0.00  0.00    -0.354 N 
ATOM      2  N   UNL     1      11.440   0.789   4.960  0.00  0.00    -0.372 N 
ATOM      3  N   UNL     1       9.197   0.475   5.323  0.00  0.00    -0.372 N 
ATOM      4  C   UNL     1      10.177   0.947   4.547  0.00  0.00    +0.166 C 
ATOM      5  H   UNL     1      10.718   1.928   2.856  0.00  0.00    +0.163 HD
ATOM      6  H   UNL     1      11.656   0.323   5.832  0.00  0.00    +0.159 HD
ATOM      7  H   UNL     1      12.226   1.111   4.409  0.00  0.00    +0.159 HD
ATOM      8  H   UNL     1       8.222   0.568   5.071  0.00  0.00    +0.159 HD
ATOM      9  H   UNL     1       9.392   0.016   6.204  0.00  0.00    +0.159 HD
ENDROOT
BRANCH   1  10
ATOM     10  C   UNL     1       8.596   1.742   2.817  0.00  0.00    +0.151 C 
BRANCH  10  11
ATOM     11  C   UNL     1       8.174   3.175   2.993  0.00  0.00    -0.028 A 
ATOM     12  C   UNL     1       8.189   4.060   1.905  0.00  0.00    +0.005 A 
ATOM     13  C   UNL     1       7.751   3.652   4.243  0.00  0.00    +0.005 A 
ATOM     14  C   UNL     1       7.768   5.383   2.060  0.00  0.00    +0.000 A 
ATOM     15  C   UNL     1       7.332   4.973   4.394  0.00  0.00    +0.000 A 
ATOM     16  C   UNL     1       7.339   5.838   3.302  0.00  0.00    +0.000 A 
ENDBRANCH  10  11
ENDBRANCH   1  10
TORSDOF 2
ENDMDL
MODEL 6
REMARK VINA RESULT:    -4.651      2.247      2.941
REMARK INTER + INTRA:          -5.329
REMARK INTER:                  -5.206
REMARK INTRA:                  -0.123
REMARK UNBOUND:                -0.135
REMARK  Name = 1550473
REMARK  2 active torsions:
REMARK  status: ('A' for Active; 'I' for Inactive)
REMARK    1  A    between atoms: N_1  and  C_4
REMARK    2  A    between atoms: C_4  and  C_5
REMARK                            x       y       z     vdW  Elec       q    Type
REMARK                         _______ _______ _______ _____ _____    ______ ____
ROOT
ATOM      1  N   UNL     1       9.131   1.604   1.212  0.00  0.00    -0.354 N 
ATOM      2  N   UNL     1      10.552  -0.188   1.576  0.00  0.00    -0.372 N 
ATOM      3  N   UNL     1      11.428   1.777   0.779  0.00  0.00    -0.372 N 
ATOM      4  C   UNL     1      10.363   1.078   1.186  0.00  0.00    +0.166 C 
ATOM      5  H   UNL     1       8.361   1.012   1.502  0.00  0.00    +0.163 HD
ATOM      6  H   UNL     1      11.470  -0.612   1.571  0.00  0.00    +0.159 HD
ATOM      7  H   UNL     1       9.787  -0.763   1.909  0.00  0.00    +0.159 HD
ATOM      8  H   UNL     1      11.351   2.735   0.466  0.00  0.00    +0.159 HD
ATOM      9  H   UNL     1      12.353   1.367   0.755  0.00  0.00    +0.159 HD
ENDROOT
BRANCH   1  10
ATOM     10  C   UNL     1       8.826   2.989   0.859  0.00  0.00    +0.151 C 
BRANCH  10  11
ATOM     11  C   UNL     1       8.290   3.699   2.071  0.00  0.00    -0.028 A 
ATOM     12  C   UNL     1       8.216   3.041   3.307  0.00  0.00    +0.005 A 
ATOM     13  C   UNL     1       7.859   5.032   1.992  0.00  0.00    +0.005 A 
ATOM     14  C   UNL     1       7.746   3.709   4.440  0.00  0.00    +0.000 A 
ATOM     15  C   UNL     1       7.389   5.696   3.125  0.00  0.00    +0.000 A 
ATOM     16  C   UNL     1       7.336   5.035   4.350  0.00  0.00    +0.000 A 
ENDBRANCH  10  11
ENDBRANCH   1  10
TORSDOF 2
ENDMDL
MODEL 7
REMARK VINA RESULT:    -4.509     16.629     17.860
REMARK INTER + INTRA:          -5.170
REMARK INTER:                  -5.054
REMARK INTRA:                  -0.116
REMARK UNBOUND:                -0.135
REMARK  Name = 1550473
REMARK  2 active torsions:
REMARK  status: ('A' for Active; 'I' for Inactive)
REMARK    1  A    between atoms: N_1  and  C_4
REMARK    2  A    between atoms: C_4  and  C_5
REMARK                            x       y       z     vdW  Elec       q    Type
REMARK                         _______ _______ _______ _____ _____    ______ ____
ROOT
ATOM      1  N   UNL     1      -0.037 -11.879  -0.742  0.00  0.00    -0.354 N 
ATOM      2  N   UNL     1       2.238 -11.454  -0.667  0.00  0.00    -0.372 N 
ATOM      3  N   UNL     1       1.424 -12.852  -2.294  0.00  0.00    -0.372 N 
ATOM      4  C   UNL     1       1.193 -12.066  -1.237  0.00  0.00    +0.166 C 
ATOM      5  H   UNL     1      -0.142 -11.295   0.080  0.00  0.00    +0.163 HD
ATOM      6  H   UNL     1       3.178 -11.574  -1.020  0.00  0.00    +0.159 HD
ATOM      7  H   UNL     1       2.125 -10.835   0.126  0.00  0.00    +0.159 HD
ATOM      8  H   UNL     1       0.679 -13.347  -2.766  0.00  0.00    +0.159 HD
ATOM      9  H   UNL     1       2.359 -12.994  -2.655  0.00  0.00    +0.159 HD
ENDROOT
BRANCH   1  10
ATOM     10  C   UNL     1      -1.248 -12.456  -1.322  0.00  0.00    +0.151 C 
BRANCH  10  11
ATOM     11  C   UNL     1      -2.451 -11.802  -0.699  0.00  0.00    -0.028 A 
ATOM     12  C   UNL     1      -3.606 -12.550  -0.425  0.00  0.00    +0.005 A 
ATOM     13  C   UNL     1      -2.440 -10.437  -0.377  0.00  0.00    +0.005 A 
ATOM     14  C   UNL     1      -4.712 -11.950   0.181  0.00  0.00    +0.000 A 
ATOM     15  C   UNL     1      -3.547  -9.841   0.227  0.00  0.00    +0.000 A 
ATOM     16  C   UNL     1      -4.682 -10.598   0.508  0.00  0.00    +0.000 A 
ENDBRANCH  10  11
ENDBRANCH   1  10
TORSDOF 2
ENDMDL
MODEL 8
REMARK VINA RESULT:    -4.438     18.368     20.075
REMARK INTER + INTRA:          -5.091
REMARK INTER:                  -4.907
REMARK INTRA:                  -0.184
REMARK UNBOUND:                -0.135
REMARK  Name = 1550473
REMARK  2 active torsions:
REMARK  status: ('A' for Active; 'I' for Inactive)
REMARK    1  A    between atoms: N_1  and  C_4
REMARK    2  A    between atoms: C_4  and  C_5
REMARK                            x       y       z     vdW  Elec       q    Type
REMARK                         _______ _______ _______ _____ _____    ______ ____
ROOT
ATOM      1  N   UNL     1      -6.158 -13.695  -0.153  0.00  0.00    -0.354 N 
ATOM      2  N   UNL     1      -8.082 -13.807  -1.437  0.00  0.00    -0.372 N 
ATOM      3  N   UNL     1      -8.114 -12.584   0.504  0.00  0.00    -0.372 N 
ATOM      4  C   UNL     1      -7.439 -13.360  -0.351  0.00  0.00    +0.166 C 
ATOM      5  H   UNL     1      -5.712 -14.311  -0.823  0.00  0.00    +0.163 HD
ATOM      6  H   UNL     1      -9.048 -13.568  -1.615  0.00  0.00    +0.159 HD
ATOM      7  H   UNL     1      -7.620 -14.385  -2.129  0.00  0.00    +0.159 HD
ATOM      8  H   UNL     1      -7.688 -12.219   1.346  0.00  0.00    +0.159 HD
ATOM      9  H   UNL     1      -9.085 -12.344   0.350  0.00  0.00    +0.159 HD
ENDROOT
BRANCH   1  10
ATOM     10  C   UNL     1      -5.352 -13.217   0.969  0.00  0.00    +0.151 C 
BRANCH  10  11
ATOM     11  C   UNL     1      -4.501 -12.066   0.508  0.00  0.00    -0.028 A 
ATOM     12  C   UNL     1      -4.814 -10.753   0.887  0.00  0.00    +0.005 A 
ATOM     13  C   UNL     1      -3.377 -12.283  -0.304  0.00  0.00    +0.005 A 
ATOM     14  C   UNL     1      -4.007  -9.686   0.484  0.00  0.00    +0.000 A 
ATOM     15  C   UNL     1      -2.574 -11.215  -0.705  0.00  0.00    +0.000 A 
ATOM     16  C   UNL     1      -2.888  -9.917  -0.309  0.00  0.00    +0.000 A 
ENDBRANCH  10  11
ENDBRANCH   1  10
TORSDOF 2
ENDMDL
MODEL 9
REMARK VINA RESULT:    -4.380      4.251      5.695
REMARK INTER + INTRA:          -5.027
REMARK INTER:                  -4.920
REMARK INTRA:                  -0.106
REMARK UNBOUND:                -0.135
REMARK  Name = 1550473
REMARK  2 active torsions:
REMARK  status: ('A' for Active; 'I' for Inactive)
REMARK    1  A    between atoms: N_1  and  C_4
REMARK    2  A    between atoms: C_4  and  C_5
REMARK                            x       y       z     vdW  Elec       q    Type
REMARK                         _______ _______ _______ _____ _____    ______ ____
ROOT
ATOM      1  N   UNL     1       9.255   5.720   0.229  0.00  0.00    -0.354 N 
ATOM      2  N   UNL     1      10.914   6.221  -1.308  0.00  0.00    -0.372 N 
ATOM      3  N   UNL     1       8.763   6.896  -1.738  0.00  0.00    -0.372 N 
ATOM      4  C   UNL     1       9.631   6.277  -0.931  0.00  0.00    +0.166 C 
ATOM      5  H   UNL     1       9.956   5.239   0.781  0.00  0.00    +0.163 HD
ATOM      6  H   UNL     1      11.228   6.635  -2.176  0.00  0.00    +0.159 HD
ATOM      7  H   UNL     1      11.620   5.779  -0.732  0.00  0.00    +0.159 HD
ATOM      8  H   UNL     1       7.780   6.968  -1.513  0.00  0.00    +0.159 HD
ATOM      9  H   UNL     1       9.056   7.306  -2.616  0.00  0.00    +0.159 HD
ENDROOT
BRANCH   1  10
ATOM     10  C   UNL     1       7.893   5.773   0.757  0.00  0.00    +0.151 C 
BRANCH  10  11
ATOM     11  C   UNL     1       7.834   4.991   2.041  0.00  0.00    -0.028 A 
ATOM     12  C   UNL     1       8.332   3.681   2.100  0.00  0.00    +0.005 A 
ATOM     13  C   UNL     1       7.287   5.557   3.202  0.00  0.00    +0.005 A 
ATOM     14  C   UNL     1       8.304   2.966   3.300  0.00  0.00    +0.000 A 
ATOM     15  C   UNL     1       7.260   4.839   4.398  0.00  0.00    +0.000 A 
ATOM     16  C   UNL     1       7.771   3.545   4.447  0.00  0.00    +0.000 A 
ENDBRANCH  10  11
ENDBRANCH   1  10
TORSDOF 2
ENDMDL
