MODEL 1
REMARK VINA RESULT:    -5.593      0.000      0.000
REMARK INTER + INTRA:          -6.391
REMARK INTER:                  -6.247
REMARK INTRA:                  -0.144
REMARK UNBOUND:                -0.144
REMARK  Name = 1550473
REMARK  2 active torsions:
REMARK  status: ('A' for Active; 'I' for Inactive)
REMARK    1  A    between atoms: N_1  and  C_4
REMARK    2  A    between atoms: C_4  and  C_5
REMARK                            x       y       z     vdW  Elec       q    Type
REMARK                         _______ _______ _______ _____ _____    ______ ____
ROOT
ATOM      1  N   UNL     1     -10.392  13.343   4.762  0.00  0.00    -0.354 N 
ATOM      2  N   UNL     1     -11.036  11.274   3.945  0.00  0.00    -0.372 N 
ATOM      3  N   UNL     1      -9.107  12.228   3.150  0.00  0.00    -0.372 N 
ATOM      4  C   UNL     1     -10.172  12.296   3.956  0.00  0.00    +0.166 C 
ATOM      5  H   UNL     1     -11.234  13.347   5.327  0.00  0.00    +0.163 HD
ATOM      6  H   UNL     1     -10.895  10.469   3.349  0.00  0.00    +0.159 HD
ATOM      7  H   UNL     1     -11.853  11.260   4.544  0.00  0.00    +0.159 HD
ATOM      8  H   UNL     1      -8.420  12.969   3.107  0.00  0.00    +0.159 HD
ATOM      9  H   UNL     1      -8.954  11.436   2.538  0.00  0.00    +0.159 HD
ENDROOT
BRANCH   1  10
ATOM     10  C   UNL     1      -9.484  14.481   4.890  0.00  0.00    +0.151 C 
BRANCH  10  11
ATOM     11  C   UNL     1      -8.696  14.341   6.163  0.00  0.00    -0.028 A 
ATOM     12  C   UNL     1      -7.603  13.466   6.231  0.00  0.00    +0.005 A 
ATOM     13  C   UNL     1      -9.034  15.086   7.303  0.00  0.00    +0.005 A 
ATOM     14  C   UNL     1      -6.852  13.357   7.404  0.00  0.00    +0.000 A 
ATOM     15  C   UNL     1      -8.283  14.974   8.473  0.00  0.00    +0.000 A 
ATOM     16  C   UNL     1      -7.190  14.112   8.522  0.00  0.00    +0.000 A 
ENDBRANCH  10  11
ENDBRANCH   1  10
TORSDOF 2
ENDMDL
MODEL 2
REMARK VINA RESULT:    -5.477      3.413      5.016
REMARK INTER + INTRA:          -6.261
REMARK INTER:                  -6.134
REMARK INTRA:                  -0.128
REMARK UNBOUND:                -0.144
REMARK  Name = 1550473
REMARK  2 active torsions:
REMARK  status: ('A' for Active; 'I' for Inactive)
REMARK    1  A    between atoms: N_1  and  C_4
REMARK    2  A    between atoms: C_4  and  C_5
REMARK                            x       y       z     vdW  Elec       q    Type
REMARK                         _______ _______ _______ _____ _____    ______ ____
ROOT
ATOM      1  N   UNL     1      -9.115  15.621   8.942  0.00  0.00    -0.354 N 
ATOM      2  N   UNL     1     -10.593  16.968  10.110  0.00  0.00    -0.372 N 
ATOM      3  N   UNL     1      -8.382  17.572  10.013  0.00  0.00    -0.372 N 
ATOM      4  C   UNL     1      -9.351  16.713   9.682  0.00  0.00    +0.166 C 
ATOM      5  H   UNL     1      -9.887  14.993   8.751  0.00  0.00    +0.163 HD
ATOM      6  H   UNL     1     -10.803  17.786  10.667  0.00  0.00    +0.159 HD
ATOM      7  H   UNL     1     -11.372  16.363   9.878  0.00  0.00    +0.159 HD
ATOM      8  H   UNL     1      -7.422  17.434   9.726  0.00  0.00    +0.159 HD
ATOM      9  H   UNL     1      -8.570  18.391  10.579  0.00  0.00    +0.159 HD
ENDROOT
BRANCH   1  10
ATOM     10  C   UNL     1      -7.809  15.281   8.381  0.00  0.00    +0.151 C 
BRANCH  10  11
ATOM     11  C   UNL     1      -8.008  14.505   7.109  0.00  0.00    -0.028 A 
ATOM     12  C   UNL     1      -7.083  13.525   6.720  0.00  0.00    +0.005 A 
ATOM     13  C   UNL     1      -9.123  14.740   6.290  0.00  0.00    +0.005 A 
ATOM     14  C   UNL     1      -7.283  12.783   5.553  0.00  0.00    +0.000 A 
ATOM     15  C   UNL     1      -9.319  13.998   5.126  0.00  0.00    +0.000 A 
ATOM     16  C   UNL     1      -8.400  13.018   4.759  0.00  0.00    +0.000 A 
ENDBRANCH  10  11
ENDBRANCH   1  10
TORSDOF 2
ENDMDL
MODEL 3
REMARK VINA RESULT:    -5.451     16.141     17.620
REMARK INTER + INTRA:          -6.232
REMARK INTER:                  -6.075
REMARK INTRA:                  -0.156
REMARK UNBOUND:                -0.144
REMARK  Name = 1550473
REMARK  2 active torsions:
REMARK  status: ('A' for Active; 'I' for Inactive)
REMARK    1  A    between atoms: N_1  and  C_4
REMARK    2  A    between atoms: C_4  and  C_5
REMARK                            x       y       z     vdW  Elec       q    Type
REMARK                         _______ _______ _______ _____ _____    ______ ____
ROOT
ATOM      1  N   UNL     1       6.233   8.837   7.286  0.00  0.00    -0.354 N 
ATOM      2  N   UNL     1       5.289   8.159   5.283  0.00  0.00    -0.372 N 
ATOM      3  N   UNL     1       5.869  10.364   5.546  0.00  0.00    -0.372 N 
ATOM      4  C   UNL     1       5.804   9.127   6.051  0.00  0.00    +0.166 C 
ATOM      5  H   UNL     1       6.128   7.886   7.621  0.00  0.00    +0.163 HD
ATOM      6  H   UNL     1       4.960   8.348   4.345  0.00  0.00    +0.159 HD
ATOM      7  H   UNL     1       5.228   7.201   5.603  0.00  0.00    +0.159 HD
ATOM      8  H   UNL     1       6.241  11.140   6.077  0.00  0.00    +0.159 HD
ATOM      9  H   UNL     1       5.534  10.574   4.615  0.00  0.00    +0.159 HD
ENDROOT
BRANCH   1  10
ATOM     10  C   UNL     1       6.859   9.807   8.183  0.00  0.00    +0.151 C 
BRANCH  10  11
ATOM     11  C   UNL     1       8.257   9.352   8.500  0.00  0.00    -0.028 A 
ATOM     12  C   UNL     1       9.274   9.454   7.539  0.00  0.00    +0.005 A 
ATOM     13  C   UNL     1       8.573   8.824   9.761  0.00  0.00    +0.005 A 
ATOM     14  C   UNL     1      10.579   9.060   7.843  0.00  0.00    +0.000 A 
ATOM     15  C   UNL     1       9.877   8.431  10.060  0.00  0.00    +0.000 A 
ATOM     16  C   UNL     1      10.881   8.552   9.102  0.00  0.00    +0.000 A 
ENDBRANCH  10  11
ENDBRANCH   1  10
TORSDOF 2
ENDMDL
MODEL 4
REMARK VINA RESULT:    -5.373      1.024      2.028
REMARK INTER + INTRA:          -6.144
REMARK INTER:                  -5.970
REMARK INTRA:                  -0.175
REMARK UNBOUND:                -0.144
REMARK  Name = 1550473
REMARK  2 active torsions:
REMARK  status: ('A' for Active; 'I' for Inactive)
REMARK    1  A    between atoms: N_1  and  C_4
REMARK    2  A    between atoms: C_4  and  C_5
REMARK                            x       y       z     vdW  Elec       q    Type
REMARK                         _______ _______ _______ _____ _____    ______ ____
ROOT
ATOM      1  N   UNL     1      -9.831  12.046   4.065  0.00  0.00    -0.354 N 
ATOM      2  N   UNL     1     -11.283  10.246   4.203  0.00  0.00    -0.372 N 
ATOM      3  N   UNL     1     -12.060  12.341   4.727  0.00  0.00    -0.372 N 
ATOM      4  C   UNL     1     -11.050  11.558   4.332  0.00  0.00    +0.166 C 
ATOM      5  H   UNL     1      -9.100  11.396   3.799  0.00  0.00    +0.163 HD
ATOM      6  H   UNL     1     -12.193   9.850   4.394  0.00  0.00    +0.159 HD
ATOM      7  H   UNL     1     -10.562   9.606   3.893  0.00  0.00    +0.159 HD
ATOM      8  H   UNL     1     -11.948  13.338   4.849  0.00  0.00    +0.159 HD
ATOM      9  H   UNL     1     -12.975  11.961   4.934  0.00  0.00    +0.159 HD
ENDROOT
BRANCH   1  10
ATOM     10  C   UNL     1      -9.488  13.466   4.123  0.00  0.00    +0.151 C 
BRANCH  10  11
ATOM     11  C   UNL     1      -8.722  13.735   5.389  0.00  0.00    -0.028 A 
ATOM     12  C   UNL     1      -9.170  14.704   6.299  0.00  0.00    +0.005 A 
ATOM     13  C   UNL     1      -7.552  13.021   5.687  0.00  0.00    +0.005 A 
ATOM     14  C   UNL     1      -8.476  14.934   7.489  0.00  0.00    +0.000 A 
ATOM     15  C   UNL     1      -6.861  13.254   6.876  0.00  0.00    +0.000 A 
ATOM     16  C   UNL     1      -7.325  14.209   7.778  0.00  0.00    +0.000 A 
ENDBRANCH  10  11
ENDBRANCH   1  10
TORSDOF 2
ENDMDL
MODEL 5
REMARK VINA RESULT:    -5.341     16.861     18.376
REMARK INTER + INTRA:          -6.109
REMARK INTER:                  -6.011
REMARK INTRA:                  -0.097
REMARK UNBOUND:                -0.144
REMARK  Name = 1550473
REMARK  2 active torsions:
REMARK  status: ('A' for Active; 'I' for Inactive)
REMARK    1  A    between atoms: N_1  and  C_4
REMARK    2  A    between atoms: C_4  and  C_5
REMARK                            x       y       z     vdW  Elec       q    Type
REMARK                         _______ _______ _______ _____ _____    ______ ____
ROOT
ATOM      1  N   UNL     1       8.439  10.635   6.671  0.00  0.00    -0.354 N 
ATOM      2  N   UNL     1       8.020  12.651   5.609  0.00  0.00    -0.372 N 
ATOM      3  N   UNL     1       6.641  10.866   5.186  0.00  0.00    -0.372 N 
ATOM      4  C   UNL     1       7.701  11.369   5.828  0.00  0.00    +0.166 C 
ATOM      5  H   UNL     1       9.247  11.067   7.104  0.00  0.00    +0.163 HD
ATOM      6  H   UNL     1       7.480  13.230   4.981  0.00  0.00    +0.159 HD
ATOM      7  H   UNL     1       8.801  13.092   6.078  0.00  0.00    +0.159 HD
ATOM      8  H   UNL     1       6.351   9.904   5.302  0.00  0.00    +0.159 HD
ATOM      9  H   UNL     1       6.095  11.427   4.544  0.00  0.00    +0.159 HD
ENDROOT
BRANCH   1  10
ATOM     10  C   UNL     1       8.144   9.246   7.019  0.00  0.00    +0.151 C 
BRANCH  10  11
ATOM     11  C   UNL     1       8.874   8.892   8.286  0.00  0.00    -0.028 A 
ATOM     12  C   UNL     1      10.276   8.878   8.319  0.00  0.00    +0.005 A 
ATOM     13  C   UNL     1       8.169   8.575   9.457  0.00  0.00    +0.005 A 
ATOM     14  C   UNL     1      10.954   8.578   9.503  0.00  0.00    +0.000 A 
ATOM     15  C   UNL     1       8.850   8.275  10.637  0.00  0.00    +0.000 A 
ATOM     16  C   UNL     1      10.242   8.279  10.660  0.00  0.00    +0.000 A 
ENDBRANCH  10  11
ENDBRANCH   1  10
TORSDOF 2
ENDMDL
MODEL 6
REMARK VINA RESULT:    -5.220     15.135     15.797
REMARK INTER + INTRA:          -5.974
REMARK INTER:                  -5.822
REMARK INTRA:                  -0.153
REMARK UNBOUND:                -0.144
REMARK  Name = 1550473
REMARK  2 active torsions:
REMARK  status: ('A' for Active; 'I' for Inactive)
REMARK    1  A    between atoms: N_1  and  C_4
REMARK    2  A    between atoms: C_4  and  C_5
REMARK                            x       y       z     vdW  Elec       q    Type
REMARK                         _______ _______ _______ _____ _____    ______ ____
ROOT
ATOM      1  N   UNL     1       1.490   7.400  -3.558  0.00  0.00    -0.354 N 
ATOM      2  N   UNL     1      -0.235   7.097  -5.074  0.00  0.00    -0.372 N 
ATOM      3  N   UNL     1       1.896   6.500  -5.683  0.00  0.00    -0.372 N 
ATOM      4  C   UNL     1       1.064   7.000  -4.764  0.00  0.00    +0.166 C 
ATOM      5  H   UNL     1       0.814   7.798  -2.916  0.00  0.00    +0.163 HD
ATOM      6  H   UNL     1      -0.586   6.800  -5.975  0.00  0.00    +0.159 HD
ATOM      7  H   UNL     1      -0.915   7.452  -4.414  0.00  0.00    +0.159 HD
ATOM      8  H   UNL     1       2.888   6.406  -5.513  0.00  0.00    +0.159 HD
ATOM      9  H   UNL     1       1.565   6.208  -6.595  0.00  0.00    +0.159 HD
ENDROOT
BRANCH   1  10
ATOM     10  C   UNL     1       2.874   7.287  -3.101  0.00  0.00    +0.151 C 
BRANCH  10  11
ATOM     11  C   UNL     1       2.914   6.435  -1.862  0.00  0.00    -0.028 A 
ATOM     12  C   UNL     1       2.730   5.047  -1.947  0.00  0.00    +0.005 A 
ATOM     13  C   UNL     1       3.143   7.009  -0.602  0.00  0.00    +0.005 A 
ATOM     14  C   UNL     1       2.797   4.252  -0.800  0.00  0.00    +0.000 A 
ATOM     15  C   UNL     1       3.209   6.211   0.540  0.00  0.00    +0.000 A 
ATOM     16  C   UNL     1       3.038   4.833   0.440  0.00  0.00    +0.000 A 
ENDBRANCH  10  11
ENDBRANCH   1  10
TORSDOF 2
ENDMDL
MODEL 7
REMARK VINA RESULT:    -5.143      3.172      5.088
REMARK INTER + INTRA:          -5.888
REMARK INTER:                  -5.808
REMARK INTRA:                  -0.079
REMARK UNBOUND:                -0.144
REMARK  Name = 1550473
REMARK  2 active torsions:
REMARK  status: ('A' for Active; 'I' for Inactive)
REMARK    1  A    between atoms: N_1  and  C_4
REMARK    2  A    between atoms: C_4  and  C_5
REMARK                            x       y       z     vdW  Elec       q    Type
REMARK                         _______ _______ _______ _____ _____    ______ ____
ROOT
ATOM      1  N   UNL     1      -7.421  14.760   7.975  0.00  0.00    -0.354 N 
ATOM      2  N   UNL     1      -7.250  16.768   9.117  0.00  0.00    -0.372 N 
ATOM      3  N   UNL     1      -5.671  16.254   7.533  0.00  0.00    -0.372 N 
ATOM      4  C   UNL     1      -6.779  15.914   8.199  0.00  0.00    +0.166 C 
ATOM      5  H   UNL     1      -8.239  14.547   8.535  0.00  0.00    +0.163 HD
ATOM      6  H   UNL     1      -6.789  17.648   9.305  0.00  0.00    +0.159 HD
ATOM      7  H   UNL     1      -8.093  16.573   9.642  0.00  0.00    +0.159 HD
ATOM      8  H   UNL     1      -5.261  15.651   6.832  0.00  0.00    +0.159 HD
ATOM      9  H   UNL     1      -5.188  17.125   7.716  0.00  0.00    +0.159 HD
ENDROOT
BRANCH   1  10
ATOM     10  C   UNL     1      -7.022  13.786   6.960  0.00  0.00    +0.151 C 
BRANCH  10  11
ATOM     11  C   UNL     1      -8.062  13.754   5.874  0.00  0.00    -0.028 A 
ATOM     12  C   UNL     1      -8.921  14.845   5.679  0.00  0.00    +0.005 A 
ATOM     13  C   UNL     1      -8.189  12.637   5.034  0.00  0.00    +0.005 A 
ATOM     14  C   UNL     1      -9.867  14.828   4.651  0.00  0.00    +0.000 A 
ATOM     15  C   UNL     1      -9.135  12.624   4.009  0.00  0.00    +0.000 A 
ATOM     16  C   UNL     1      -9.972  13.720   3.817  0.00  0.00    +0.000 A 
ENDBRANCH  10  11
ENDBRANCH   1  10
TORSDOF 2
ENDMDL
MODEL 8
REMARK VINA RESULT:    -5.058      1.565      1.953
REMARK INTER + INTRA:          -5.793
REMARK INTER:                  -5.669
REMARK INTRA:                  -0.124
REMARK UNBOUND:                -0.144
REMARK  Name = 1550473
REMARK  2 active torsions:
REMARK  status: ('A' for Active; 'I' for Inactive)
REMARK    1  A    between atoms: N_1  and  C_4
REMARK    2  A    between atoms: C_4  and  C_5
REMARK                            x       y       z     vdW  Elec       q    Type
REMARK                         _______ _______ _______ _____ _____    ______ ____
ROOT
ATOM      1  N   UNL     1      -9.873  12.087   3.103  0.00  0.00    -0.354 N 
ATOM      2  N   UNL     1     -10.070  10.418   1.510  0.00  0.00    -0.372 N 
ATOM      3  N   UNL     1     -10.777  12.537   0.988  0.00  0.00    -0.372 N 
ATOM      4  C   UNL     1     -10.240  11.694   1.876  0.00  0.00    +0.166 C 
ATOM      5  H   UNL     1      -9.500  11.393   3.740  0.00  0.00    +0.163 HD
ATOM      6  H   UNL     1     -10.334  10.092   0.590  0.00  0.00    +0.159 HD
ATOM      7  H   UNL     1      -9.655   9.736   2.133  0.00  0.00    +0.159 HD
ATOM      8  H   UNL     1     -10.937  13.512   1.204  0.00  0.00    +0.159 HD
ATOM      9  H   UNL     1     -11.058  12.228   0.066  0.00  0.00    +0.159 HD
ENDROOT
BRANCH   1  10
ATOM     10  C   UNL     1      -9.966  13.465   3.581  0.00  0.00    +0.151 C 
BRANCH  10  11
ATOM     11  C   UNL     1      -9.083  13.627   4.788  0.00  0.00    -0.028 A 
ATOM     12  C   UNL     1      -7.980  12.782   4.981  0.00  0.00    +0.005 A 
ATOM     13  C   UNL     1      -9.341  14.627   5.738  0.00  0.00    +0.005 A 
ATOM     14  C   UNL     1      -7.142  12.951   6.086  0.00  0.00    +0.000 A 
ATOM     15  C   UNL     1      -8.502  14.792   6.841  0.00  0.00    +0.000 A 
ATOM     16  C   UNL     1      -7.402  13.956   7.013  0.00  0.00    +0.000 A 
ENDBRANCH  10  11
ENDBRANCH   1  10
TORSDOF 2
ENDMDL
MODEL 9
REMARK VINA RESULT:    -4.947     18.717     19.931
REMARK INTER + INTRA:          -5.669
REMARK INTER:                  -5.555
REMARK INTRA:                  -0.114
REMARK UNBOUND:                -0.144
REMARK  Name = 1550473
REMARK  2 active torsions:
REMARK  status: ('A' for Active; 'I' for Inactive)
REMARK    1  A    between atoms: N_1  and  C_4
REMARK    2  A    between atoms: C_4  and  C_5
REMARK                            x       y       z     vdW  Elec       q    Type
REMARK                         _______ _______ _______ _____ _____    ______ ____
ROOT
ATOM      1  N   UNL     1      -0.720  -3.199   1.946  0.00  0.00    -0.354 N 
ATOM      2  N   UNL     1       0.305  -1.901   3.568  0.00  0.00    -0.372 N 
ATOM      3  N   UNL     1       1.456  -3.674   2.675  0.00  0.00    -0.372 N 
ATOM      4  C   UNL     1       0.342  -2.935   2.719  0.00  0.00    +0.166 C 
ATOM      5  H   UNL     1      -1.545  -2.620   2.049  0.00  0.00    +0.163 HD
ATOM      6  H   UNL     1       1.093  -1.676   4.161  0.00  0.00    +0.159 HD
ATOM      7  H   UNL     1      -0.504  -1.296   3.635  0.00  0.00    +0.159 HD
ATOM      8  H   UNL     1       1.546  -4.471   2.060  0.00  0.00    +0.159 HD
ATOM      9  H   UNL     1       2.251  -3.471   3.269  0.00  0.00    +0.159 HD
ENDROOT
BRANCH   1  10
ATOM     10  C   UNL     1      -0.761  -4.268   0.951  0.00  0.00    +0.151 C 
BRANCH  10  11
ATOM     11  C   UNL     1      -2.048  -4.171   0.178  0.00  0.00    -0.028 A 
ATOM     12  C   UNL     1      -2.727  -5.330  -0.224  0.00  0.00    +0.005 A 
ATOM     13  C   UNL     1      -2.596  -2.921  -0.150  0.00  0.00    +0.005 A 
ATOM     14  C   UNL     1      -3.937  -5.240  -0.915  0.00  0.00    +0.000 A 
ATOM     15  C   UNL     1      -3.805  -2.835  -0.841  0.00  0.00    +0.000 A 
ATOM     16  C   UNL     1      -4.476  -3.994  -1.221  0.00  0.00    +0.000 A 
ENDBRANCH  10  11
ENDBRANCH   1  10
TORSDOF 2
ENDMDL
