MODEL 1
REMARK VINA RESULT:    -6.096      0.000      0.000
REMARK INTER + INTRA:          -6.952
REMARK INTER:                  -6.809
REMARK INTRA:                  -0.143
REMARK UNBOUND:                -0.143
REMARK  Name = 1550473
REMARK  2 active torsions:
REMARK  status: ('A' for Active; 'I' for Inactive)
REMARK    1  A    between atoms: N_1  and  C_4
REMARK    2  A    between atoms: C_4  and  C_5
REMARK                            x       y       z     vdW  Elec       q    Type
REMARK                         _______ _______ _______ _____ _____    ______ ____
ROOT
ATOM      1  N   UNL     1       1.082   6.947  12.421  0.00  0.00    -0.354 N 
ATOM      2  N   UNL     1       2.054   5.190  13.576  0.00  0.00    -0.372 N 
ATOM      3  N   UNL     1       2.765   7.328  14.007  0.00  0.00    -0.372 N 
ATOM      4  C   UNL     1       1.962   6.502  13.328  0.00  0.00    +0.166 C 
ATOM      5  H   UNL     1       0.524   6.267  11.919  0.00  0.00    +0.163 HD
ATOM      6  H   UNL     1       2.706   4.825  14.257  0.00  0.00    +0.159 HD
ATOM      7  H   UNL     1       1.462   4.516  13.105  0.00  0.00    +0.159 HD
ATOM      8  H   UNL     1       2.749   8.329  13.863  0.00  0.00    +0.159 HD
ATOM      9  H   UNL     1       3.432   6.981  14.684  0.00  0.00    +0.159 HD
ENDROOT
BRANCH   1  10
ATOM     10  C   UNL     1       0.866   8.360  12.116  0.00  0.00    +0.151 C 
BRANCH  10  11
ATOM     11  C   UNL     1       0.993   8.568  10.632  0.00  0.00    -0.028 A 
ATOM     12  C   UNL     1       1.211   9.850  10.109  0.00  0.00    +0.005 A 
ATOM     13  C   UNL     1       0.902   7.484   9.745  0.00  0.00    +0.005 A 
ATOM     14  C   UNL     1       1.358  10.039   8.732  0.00  0.00    +0.000 A 
ATOM     15  C   UNL     1       1.049   7.677   8.371  0.00  0.00    +0.000 A 
ATOM     16  C   UNL     1       1.279   8.954   7.866  0.00  0.00    +0.000 A 
ENDBRANCH  10  11
ENDBRANCH   1  10
TORSDOF 2
ENDMDL
MODEL 2
REMARK VINA RESULT:    -5.945      4.287      5.620
REMARK INTER + INTRA:          -6.783
REMARK INTER:                  -6.662
REMARK INTRA:                  -0.120
REMARK UNBOUND:                -0.143
REMARK  Name = 1550473
REMARK  2 active torsions:
REMARK  status: ('A' for Active; 'I' for Inactive)
REMARK    1  A    between atoms: N_1  and  C_4
REMARK    2  A    between atoms: C_4  and  C_5
REMARK                            x       y       z     vdW  Elec       q    Type
REMARK                         _______ _______ _______ _____ _____    ______ ____
ROOT
ATOM      1  N   UNL     1       0.309   5.386   6.385  0.00  0.00    -0.354 N 
ATOM      2  N   UNL     1      -0.137   4.648   4.235  0.00  0.00    -0.372 N 
ATOM      3  N   UNL     1       0.979   3.254   5.677  0.00  0.00    -0.372 N 
ATOM      4  C   UNL     1       0.388   4.432   5.447  0.00  0.00    +0.166 C 
ATOM      5  H   UNL     1      -0.125   6.268   6.138  0.00  0.00    +0.163 HD
ATOM      6  H   UNL     1      -0.096   3.945   3.509  0.00  0.00    +0.159 HD
ATOM      7  H   UNL     1      -0.611   5.513   4.006  0.00  0.00    +0.159 HD
ATOM      8  H   UNL     1       1.400   3.032   6.569  0.00  0.00    +0.159 HD
ATOM      9  H   UNL     1       1.041   2.543   4.959  0.00  0.00    +0.159 HD
ENDROOT
BRANCH   1  10
ATOM     10  C   UNL     1       0.801   5.231   7.752  0.00  0.00    +0.151 C 
BRANCH  10  11
ATOM     11  C   UNL     1       0.930   6.589   8.385  0.00  0.00    -0.028 A 
ATOM     12  C   UNL     1       1.310   7.699   7.617  0.00  0.00    +0.005 A 
ATOM     13  C   UNL     1       0.667   6.773   9.751  0.00  0.00    +0.005 A 
ATOM     14  C   UNL     1       1.400   8.967   8.197  0.00  0.00    +0.000 A 
ATOM     15  C   UNL     1       0.759   8.040  10.327  0.00  0.00    +0.000 A 
ATOM     16  C   UNL     1       1.123   9.137   9.550  0.00  0.00    +0.000 A 
ENDBRANCH  10  11
ENDBRANCH   1  10
TORSDOF 2
ENDMDL
MODEL 3
REMARK VINA RESULT:    -5.791      1.752      2.698
REMARK INTER + INTRA:          -6.611
REMARK INTER:                  -6.517
REMARK INTRA:                  -0.095
REMARK UNBOUND:                -0.143
REMARK  Name = 1550473
REMARK  2 active torsions:
REMARK  status: ('A' for Active; 'I' for Inactive)
REMARK    1  A    between atoms: N_1  and  C_4
REMARK    2  A    between atoms: C_4  and  C_5
REMARK                            x       y       z     vdW  Elec       q    Type
REMARK                         _______ _______ _______ _____ _____    ______ ____
ROOT
ATOM      1  N   UNL     1       1.643   4.363  11.552  0.00  0.00    -0.354 N 
ATOM      2  N   UNL     1       1.282   3.203  13.523  0.00  0.00    -0.372 N 
ATOM      3  N   UNL     1       3.309   4.226  13.194  0.00  0.00    -0.372 N 
ATOM      4  C   UNL     1       2.083   3.939  12.744  0.00  0.00    +0.166 C 
ATOM      5  H   UNL     1       0.715   4.086  11.255  0.00  0.00    +0.163 HD
ATOM      6  H   UNL     1       1.585   2.871  14.429  0.00  0.00    +0.159 HD
ATOM      7  H   UNL     1       0.337   2.966  13.244  0.00  0.00    +0.159 HD
ATOM      8  H   UNL     1       3.964   4.772  12.652  0.00  0.00    +0.159 HD
ATOM      9  H   UNL     1       3.634   3.893  14.094  0.00  0.00    +0.159 HD
ENDROOT
BRANCH   1  10
ATOM     10  C   UNL     1       2.417   5.215  10.651  0.00  0.00    +0.151 C 
BRANCH  10  11
ATOM     11  C   UNL     1       1.800   6.586  10.620  0.00  0.00    -0.028 A 
ATOM     12  C   UNL     1       1.528   7.271  11.813  0.00  0.00    +0.005 A 
ATOM     13  C   UNL     1       1.491   7.208   9.401  0.00  0.00    +0.005 A 
ATOM     14  C   UNL     1       0.983   8.557  11.785  0.00  0.00    +0.000 A 
ATOM     15  C   UNL     1       0.946   8.492   9.377  0.00  0.00    +0.000 A 
ATOM     16  C   UNL     1       0.694   9.167  10.569  0.00  0.00    +0.000 A 
ENDBRANCH  10  11
ENDBRANCH   1  10
TORSDOF 2
ENDMDL
MODEL 4
REMARK VINA RESULT:    -5.764      3.407      3.820
REMARK INTER + INTRA:          -6.582
REMARK INTER:                  -6.473
REMARK INTRA:                  -0.109
REMARK UNBOUND:                -0.143
REMARK  Name = 1550473
REMARK  2 active torsions:
REMARK  status: ('A' for Active; 'I' for Inactive)
REMARK    1  A    between atoms: N_1  and  C_4
REMARK    2  A    between atoms: C_4  and  C_5
REMARK                            x       y       z     vdW  Elec       q    Type
REMARK                         _______ _______ _______ _____ _____    ______ ____
ROOT
ATOM      1  N   UNL     1       1.609   4.498  11.620  0.00  0.00    -0.354 N 
ATOM      2  N   UNL     1       1.336   3.197  13.517  0.00  0.00    -0.372 N 
ATOM      3  N   UNL     1       3.442   3.920  12.963  0.00  0.00    -0.372 N 
ATOM      4  C   UNL     1       2.134   3.880  12.688  0.00  0.00    +0.166 C 
ATOM      5  H   UNL     1       0.615   4.404  11.451  0.00  0.00    +0.163 HD
ATOM      6  H   UNL     1       1.702   2.724  14.332  0.00  0.00    +0.159 HD
ATOM      7  H   UNL     1       0.335   3.144  13.371  0.00  0.00    +0.159 HD
ATOM      8  H   UNL     1       4.098   4.414  12.373  0.00  0.00    +0.159 HD
ATOM      9  H   UNL     1       3.829   3.443  13.767  0.00  0.00    +0.159 HD
ENDROOT
BRANCH   1  10
ATOM     10  C   UNL     1       2.383   5.312  10.685  0.00  0.00    +0.151 C 
BRANCH  10  11
ATOM     11  C   UNL     1       1.912   5.033   9.284  0.00  0.00    -0.028 A 
ATOM     12  C   UNL     1       0.604   5.357   8.895  0.00  0.00    +0.005 A 
ATOM     13  C   UNL     1       2.771   4.449   8.340  0.00  0.00    +0.005 A 
ATOM     14  C   UNL     1       0.176   5.125   7.586  0.00  0.00    +0.000 A 
ATOM     15  C   UNL     1       2.339   4.219   7.034  0.00  0.00    +0.000 A 
ATOM     16  C   UNL     1       1.042   4.559   6.657  0.00  0.00    +0.000 A 
ENDBRANCH  10  11
ENDBRANCH   1  10
TORSDOF 2
ENDMDL
MODEL 5
REMARK VINA RESULT:    -5.736      3.670      4.839
REMARK INTER + INTRA:          -6.550
REMARK INTER:                  -6.432
REMARK INTRA:                  -0.118
REMARK UNBOUND:                -0.143
REMARK  Name = 1550473
REMARK  2 active torsions:
REMARK  status: ('A' for Active; 'I' for Inactive)
REMARK    1  A    between atoms: N_1  and  C_4
REMARK    2  A    between atoms: C_4  and  C_5
REMARK                            x       y       z     vdW  Elec       q    Type
REMARK                         _______ _______ _______ _____ _____    ______ ____
ROOT
ATOM      1  N   UNL     1       1.247   5.089   9.336  0.00  0.00    -0.354 N 
ATOM      2  N   UNL     1       2.732   5.659  11.019  0.00  0.00    -0.372 N 
ATOM      3  N   UNL     1       0.725   6.764  10.890  0.00  0.00    -0.372 N 
ATOM      4  C   UNL     1       1.556   5.836  10.404  0.00  0.00    +0.166 C 
ATOM      5  H   UNL     1       1.932   4.423   8.999  0.00  0.00    +0.163 HD
ATOM      6  H   UNL     1       2.992   6.206  11.829  0.00  0.00    +0.159 HD
ATOM      7  H   UNL     1       3.396   4.961  10.708  0.00  0.00    +0.159 HD
ATOM      8  H   UNL     1      -0.175   6.950  10.468  0.00  0.00    +0.159 HD
ATOM      9  H   UNL     1       0.972   7.329  11.693  0.00  0.00    +0.159 HD
ENDROOT
BRANCH   1  10
ATOM     10  C   UNL     1      -0.030   5.165   8.627  0.00  0.00    +0.151 C 
BRANCH  10  11
ATOM     11  C   UNL     1       0.185   4.790   7.187  0.00  0.00    -0.028 A 
ATOM     12  C   UNL     1      -0.562   5.405   6.172  0.00  0.00    +0.005 A 
ATOM     13  C   UNL     1       1.138   3.823   6.831  0.00  0.00    +0.005 A 
ATOM     14  C   UNL     1      -0.342   5.078   4.832  0.00  0.00    +0.000 A 
ATOM     15  C   UNL     1       1.355   3.499   5.491  0.00  0.00    +0.000 A 
ATOM     16  C   UNL     1       0.616   4.129   4.492  0.00  0.00    +0.000 A 
ENDBRANCH  10  11
ENDBRANCH   1  10
TORSDOF 2
ENDMDL
MODEL 6
REMARK VINA RESULT:    -5.725      1.947      2.769
REMARK INTER + INTRA:          -6.537
REMARK INTER:                  -6.368
REMARK INTRA:                  -0.169
REMARK UNBOUND:                -0.143
REMARK  Name = 1550473
REMARK  2 active torsions:
REMARK  status: ('A' for Active; 'I' for Inactive)
REMARK    1  A    between atoms: N_1  and  C_4
REMARK    2  A    between atoms: C_4  and  C_5
REMARK                            x       y       z     vdW  Elec       q    Type
REMARK                         _______ _______ _______ _____ _____    ______ ____
ROOT
ATOM      1  N   UNL     1       1.531   5.472  10.869  0.00  0.00    -0.354 N 
ATOM      2  N   UNL     1       3.383   4.448  11.812  0.00  0.00    -0.372 N 
ATOM      3  N   UNL     1       3.105   4.359   9.536  0.00  0.00    -0.372 N 
ATOM      4  C   UNL     1       2.661   4.766  10.730  0.00  0.00    +0.166 C 
ATOM      5  H   UNL     1       1.233   5.724  11.804  0.00  0.00    +0.163 HD
ATOM      6  H   UNL     1       4.241   3.919  11.738  0.00  0.00    +0.159 HD
ATOM      7  H   UNL     1       3.106   4.741  12.741  0.00  0.00    +0.159 HD
ATOM      8  H   UNL     1       2.604   4.561   8.681  0.00  0.00    +0.159 HD
ATOM      9  H   UNL     1       3.956   3.819   9.443  0.00  0.00    +0.159 HD
ENDROOT
BRANCH   1  10
ATOM     10  C   UNL     1       0.701   5.915   9.750  0.00  0.00    +0.151 C 
BRANCH  10  11
ATOM     11  C   UNL     1       0.936   7.382   9.515  0.00  0.00    -0.028 A 
ATOM     12  C   UNL     1       1.271   7.853   8.238  0.00  0.00    +0.005 A 
ATOM     13  C   UNL     1       0.819   8.306  10.565  0.00  0.00    +0.005 A 
ATOM     14  C   UNL     1       1.460   9.219   8.013  0.00  0.00    +0.000 A 
ATOM     15  C   UNL     1       1.009   9.668  10.336  0.00  0.00    +0.000 A 
ATOM     16  C   UNL     1       1.327  10.125   9.060  0.00  0.00    +0.000 A 
ENDBRANCH  10  11
ENDBRANCH   1  10
TORSDOF 2
ENDMDL
MODEL 7
REMARK VINA RESULT:    -5.629      4.040      5.537
REMARK INTER + INTRA:          -6.431
REMARK INTER:                  -6.269
REMARK INTRA:                  -0.161
REMARK UNBOUND:                -0.143
REMARK  Name = 1550473
REMARK  2 active torsions:
REMARK  status: ('A' for Active; 'I' for Inactive)
REMARK    1  A    between atoms: N_1  and  C_4
REMARK    2  A    between atoms: C_4  and  C_5
REMARK                            x       y       z     vdW  Elec       q    Type
REMARK                         _______ _______ _______ _____ _____    ______ ____
ROOT
ATOM      1  N   UNL     1       0.946   7.689   8.080  0.00  0.00    -0.354 N 
ATOM      2  N   UNL     1       1.797   9.773   7.537  0.00  0.00    -0.372 N 
ATOM      3  N   UNL     1       3.257   8.075   8.036  0.00  0.00    -0.372 N 
ATOM      4  C   UNL     1       1.997   8.497   7.889  0.00  0.00    +0.166 C 
ATOM      5  H   UNL     1       0.016   8.078   7.982  0.00  0.00    +0.163 HD
ATOM      6  H   UNL     1       2.571  10.406   7.382  0.00  0.00    +0.159 HD
ATOM      7  H   UNL     1       0.867  10.147   7.394  0.00  0.00    +0.159 HD
ATOM      8  H   UNL     1       3.476   7.125   8.306  0.00  0.00    +0.159 HD
ATOM      9  H   UNL     1       4.044   8.696   7.897  0.00  0.00    +0.159 HD
ENDROOT
BRANCH   1  10
ATOM     10  C   UNL     1       1.057   6.269   8.412  0.00  0.00    +0.151 C 
BRANCH  10  11
ATOM     11  C   UNL     1       0.812   5.454   7.173  0.00  0.00    -0.028 A 
ATOM     12  C   UNL     1      -0.081   5.904   6.189  0.00  0.00    +0.005 A 
ATOM     13  C   UNL     1       1.474   4.233   6.973  0.00  0.00    +0.005 A 
ATOM     14  C   UNL     1      -0.286   5.162   5.024  0.00  0.00    +0.000 A 
ATOM     15  C   UNL     1       1.266   3.494   5.808  0.00  0.00    +0.000 A 
ATOM     16  C   UNL     1       0.388   3.960   4.833  0.00  0.00    +0.000 A 
ENDBRANCH  10  11
ENDBRANCH   1  10
TORSDOF 2
ENDMDL
MODEL 8
REMARK VINA RESULT:    -5.579      4.651      5.890
REMARK INTER + INTRA:          -6.374
REMARK INTER:                  -6.204
REMARK INTRA:                  -0.170
REMARK UNBOUND:                -0.143
REMARK  Name = 1550473
REMARK  2 active torsions:
REMARK  status: ('A' for Active; 'I' for Inactive)
REMARK    1  A    between atoms: N_1  and  C_4
REMARK    2  A    between atoms: C_4  and  C_5
REMARK                            x       y       z     vdW  Elec       q    Type
REMARK                         _______ _______ _______ _____ _____    ______ ____
ROOT
ATOM      1  N   UNL     1       3.150   6.537   8.141  0.00  0.00    -0.354 N 
ATOM      2  N   UNL     1       4.813   7.985   7.432  0.00  0.00    -0.372 N 
ATOM      3  N   UNL     1       5.058   5.738   7.039  0.00  0.00    -0.372 N 
ATOM      4  C   UNL     1       4.331   6.741   7.541  0.00  0.00    +0.166 C 
ATOM      5  H   UNL     1       2.662   7.337   8.528  0.00  0.00    +0.163 HD
ATOM      6  H   UNL     1       5.699   8.170   6.981  0.00  0.00    +0.159 HD
ATOM      7  H   UNL     1       4.301   8.787   7.778  0.00  0.00    +0.159 HD
ATOM      8  H   UNL     1       4.753   4.775   7.095  0.00  0.00    +0.159 HD
ATOM      9  H   UNL     1       5.953   5.902   6.595  0.00  0.00    +0.159 HD
ENDROOT
BRANCH   1  10
ATOM     10  C   UNL     1       2.512   5.228   8.265  0.00  0.00    +0.151 C 
BRANCH  10  11
ATOM     11  C   UNL     1       1.596   5.016   7.091  0.00  0.00    -0.028 A 
ATOM     12  C   UNL     1       1.735   3.884   6.274  0.00  0.00    +0.005 A 
ATOM     13  C   UNL     1       0.582   5.940   6.794  0.00  0.00    +0.005 A 
ATOM     14  C   UNL     1       0.865   3.671   5.202  0.00  0.00    +0.000 A 
ATOM     15  C   UNL     1      -0.284   5.724   5.722  0.00  0.00    +0.000 A 
ATOM     16  C   UNL     1      -0.143   4.589   4.928  0.00  0.00    +0.000 A 
ENDBRANCH  10  11
ENDBRANCH   1  10
TORSDOF 2
ENDMDL
MODEL 9
REMARK VINA RESULT:    -5.414     23.948     25.444
REMARK INTER + INTRA:          -6.190
REMARK INTER:                  -6.060
REMARK INTRA:                  -0.130
REMARK UNBOUND:                -0.143
REMARK  Name = 1550473
REMARK  2 active torsions:
REMARK  status: ('A' for Active; 'I' for Inactive)
REMARK    1  A    between atoms: N_1  and  C_4
REMARK    2  A    between atoms: C_4  and  C_5
REMARK                            x       y       z     vdW  Elec       q    Type
REMARK                         _______ _______ _______ _____ _____    ______ ____
ROOT
ATOM      1  N   UNL     1      -6.546  -5.328  -8.143  0.00  0.00    -0.354 N 
ATOM      2  N   UNL     1      -5.739  -5.005  -5.996  0.00  0.00    -0.372 N 
ATOM      3  N   UNL     1      -4.357  -4.576  -7.776  0.00  0.00    -0.372 N 
ATOM      4  C   UNL     1      -5.550  -4.971  -7.320  0.00  0.00    +0.166 C 
ATOM      5  H   UNL     1      -7.416  -5.647  -7.734  0.00  0.00    +0.163 HD
ATOM      6  H   UNL     1      -5.007  -4.739  -5.351  0.00  0.00    +0.159 HD
ATOM      7  H   UNL     1      -6.625  -5.281  -5.591  0.00  0.00    +0.159 HD
ATOM      8  H   UNL     1      -4.148  -4.534  -8.765  0.00  0.00    +0.159 HD
ATOM      9  H   UNL     1      -3.608  -4.316  -7.146  0.00  0.00    +0.159 HD
ENDROOT
BRANCH   1  10
ATOM     10  C   UNL     1      -6.460  -5.275  -9.601  0.00  0.00    +0.151 C 
BRANCH  10  11
ATOM     11  C   UNL     1      -7.686  -4.592 -10.140  0.00  0.00    -0.028 A 
ATOM     12  C   UNL     1      -7.842  -3.204 -10.012  0.00  0.00    +0.005 A 
ATOM     13  C   UNL     1      -8.693  -5.325 -10.786  0.00  0.00    +0.005 A 
ATOM     14  C   UNL     1      -8.967  -2.564 -10.539  0.00  0.00    +0.000 A 
ATOM     15  C   UNL     1      -9.815  -4.683 -11.310  0.00  0.00    +0.000 A 
ATOM     16  C   UNL     1      -9.950  -3.302 -11.189  0.00  0.00    +0.000 A 
ENDBRANCH  10  11
ENDBRANCH   1  10
TORSDOF 2
ENDMDL
