MODEL 1
REMARK VINA RESULT:    -4.921      0.000      0.000
REMARK INTER + INTRA:          -5.648
REMARK INTER:                  -5.497
REMARK INTRA:                  -0.151
REMARK UNBOUND:                -0.151
REMARK  Name = 1550473
REMARK  2 active torsions:
REMARK  status: ('A' for Active; 'I' for Inactive)
REMARK    1  A    between atoms: N_1  and  C_4
REMARK    2  A    between atoms: C_4  and  C_5
REMARK                            x       y       z     vdW  Elec       q    Type
REMARK                         _______ _______ _______ _____ _____    ______ ____
ROOT
ATOM      1  N   UNL     1      -3.137  -0.374   2.946  0.00  0.00    -0.354 N 
ATOM      2  N   UNL     1      -2.960   1.263   1.318  0.00  0.00    -0.372 N 
ATOM      3  N   UNL     1      -3.917   1.802   3.332  0.00  0.00    -0.372 N 
ATOM      4  C   UNL     1      -3.340   0.887   2.545  0.00  0.00    +0.166 C 
ATOM      5  H   UNL     1      -2.723  -1.027   2.291  0.00  0.00    +0.163 HD
ATOM      6  H   UNL     1      -3.097   2.209   0.988  0.00  0.00    +0.159 HD
ATOM      7  H   UNL     1      -2.504   0.620   0.681  0.00  0.00    +0.159 HD
ATOM      8  H   UNL     1      -4.232   1.581   4.268  0.00  0.00    +0.159 HD
ATOM      9  H   UNL     1      -4.073   2.751   3.016  0.00  0.00    +0.159 HD
ENDROOT
BRANCH   1  10
ATOM     10  C   UNL     1      -3.465  -0.871   4.282  0.00  0.00    +0.151 C 
BRANCH  10  11
ATOM     11  C   UNL     1      -4.872  -1.402   4.276  0.00  0.00    -0.028 A 
ATOM     12  C   UNL     1      -5.263  -2.371   3.340  0.00  0.00    +0.005 A 
ATOM     13  C   UNL     1      -5.817  -0.945   5.207  0.00  0.00    +0.005 A 
ATOM     14  C   UNL     1      -6.561  -2.887   3.353  0.00  0.00    +0.000 A 
ATOM     15  C   UNL     1      -7.112  -1.462   5.217  0.00  0.00    +0.000 A 
ATOM     16  C   UNL     1      -7.484  -2.434   4.291  0.00  0.00    +0.000 A 
ENDBRANCH  10  11
ENDBRANCH   1  10
TORSDOF 2
ENDMDL
MODEL 2
REMARK VINA RESULT:    -4.880      0.621      1.773
REMARK INTER + INTRA:          -5.602
REMARK INTER:                  -5.430
REMARK INTRA:                  -0.172
REMARK UNBOUND:                -0.151
REMARK  Name = 1550473
REMARK  2 active torsions:
REMARK  status: ('A' for Active; 'I' for Inactive)
REMARK    1  A    between atoms: N_1  and  C_4
REMARK    2  A    between atoms: C_4  and  C_5
REMARK                            x       y       z     vdW  Elec       q    Type
REMARK                         _______ _______ _______ _____ _____    ______ ____
ROOT
ATOM      1  N   UNL     1      -3.235   0.280   4.104  0.00  0.00    -0.354 N 
ATOM      2  N   UNL     1      -3.132   2.346   3.062  0.00  0.00    -0.372 N 
ATOM      3  N   UNL     1      -3.127   0.450   1.769  0.00  0.00    -0.372 N 
ATOM      4  C   UNL     1      -3.165   1.010   2.983  0.00  0.00    +0.166 C 
ATOM      5  H   UNL     1      -3.230   0.764   4.995  0.00  0.00    +0.163 HD
ATOM      6  H   UNL     1      -3.082   2.923   2.233  0.00  0.00    +0.159 HD
ATOM      7  H   UNL     1      -3.173   2.828   3.951  0.00  0.00    +0.159 HD
ATOM      8  H   UNL     1      -3.142  -0.553   1.642  0.00  0.00    +0.159 HD
ATOM      9  H   UNL     1      -3.065   1.011   0.928  0.00  0.00    +0.159 HD
ENDROOT
BRANCH   1  10
ATOM     10  C   UNL     1      -3.330  -1.178   4.125  0.00  0.00    +0.151 C 
BRANCH  10  11
ATOM     11  C   UNL     1      -4.777  -1.575   4.218  0.00  0.00    -0.028 A 
ATOM     12  C   UNL     1      -5.623  -0.967   5.157  0.00  0.00    +0.005 A 
ATOM     13  C   UNL     1      -5.310  -2.554   3.366  0.00  0.00    +0.005 A 
ATOM     14  C   UNL     1      -6.975  -1.313   5.224  0.00  0.00    +0.000 A 
ATOM     15  C   UNL     1      -6.660  -2.898   3.436  0.00  0.00    +0.000 A 
ATOM     16  C   UNL     1      -7.493  -2.276   4.363  0.00  0.00    +0.000 A 
ENDBRANCH  10  11
ENDBRANCH   1  10
TORSDOF 2
ENDMDL
MODEL 3
REMARK VINA RESULT:    -4.704     19.329     20.020
REMARK INTER + INTRA:          -5.405
REMARK INTER:                  -5.289
REMARK INTRA:                  -0.116
REMARK UNBOUND:                -0.151
REMARK  Name = 1550473
REMARK  2 active torsions:
REMARK  status: ('A' for Active; 'I' for Inactive)
REMARK    1  A    between atoms: N_1  and  C_4
REMARK    2  A    between atoms: C_4  and  C_5
REMARK                            x       y       z     vdW  Elec       q    Type
REMARK                         _______ _______ _______ _____ _____    ______ ____
ROOT
ATOM      1  N   UNL     1      -3.465  10.347  19.529  0.00  0.00    -0.354 N 
ATOM      2  N   UNL     1      -1.620  10.284  18.131  0.00  0.00    -0.372 N 
ATOM      3  N   UNL     1      -1.302  10.668  20.371  0.00  0.00    -0.372 N 
ATOM      4  C   UNL     1      -2.140  10.434  19.355  0.00  0.00    +0.166 C 
ATOM      5  H   UNL     1      -4.049  10.198  18.713  0.00  0.00    +0.163 HD
ATOM      6  H   UNL     1      -0.623  10.341  17.970  0.00  0.00    +0.159 HD
ATOM      7  H   UNL     1      -2.201  10.089  17.325  0.00  0.00    +0.159 HD
ATOM      8  H   UNL     1      -1.632  10.796  21.318  0.00  0.00    +0.159 HD
ATOM      9  H   UNL     1      -0.303  10.740  20.228  0.00  0.00    +0.159 HD
ENDROOT
BRANCH   1  10
ATOM     10  C   UNL     1      -4.128  10.442  20.828  0.00  0.00    +0.151 C 
BRANCH  10  11
ATOM     11  C   UNL     1      -5.616  10.484  20.619  0.00  0.00    -0.028 A 
ATOM     12  C   UNL     1      -6.161  11.150  19.511  0.00  0.00    +0.005 A 
ATOM     13  C   UNL     1      -6.487   9.855  21.522  0.00  0.00    +0.005 A 
ATOM     14  C   UNL     1      -7.542  11.164  19.300  0.00  0.00    +0.000 A 
ATOM     15  C   UNL     1      -7.866   9.872  21.308  0.00  0.00    +0.000 A 
ATOM     16  C   UNL     1      -8.392  10.525  20.196  0.00  0.00    +0.000 A 
ENDBRANCH  10  11
ENDBRANCH   1  10
TORSDOF 2
ENDMDL
MODEL 4
REMARK VINA RESULT:    -4.693     16.094     17.197
REMARK INTER + INTRA:          -5.393
REMARK INTER:                  -5.247
REMARK INTRA:                  -0.146
REMARK UNBOUND:                -0.151
REMARK  Name = 1550473
REMARK  2 active torsions:
REMARK  status: ('A' for Active; 'I' for Inactive)
REMARK    1  A    between atoms: N_1  and  C_4
REMARK    2  A    between atoms: C_4  and  C_5
REMARK                            x       y       z     vdW  Elec       q    Type
REMARK                         _______ _______ _______ _____ _____    ______ ____
ROOT
ATOM      1  N   UNL     1      -6.009  14.056  -6.263  0.00  0.00    -0.354 N 
ATOM      2  N   UNL     1      -5.705  14.894  -4.126  0.00  0.00    -0.372 N 
ATOM      3  N   UNL     1      -6.807  12.899  -4.388  0.00  0.00    -0.372 N 
ATOM      4  C   UNL     1      -6.178  13.942  -4.939  0.00  0.00    +0.166 C 
ATOM      5  H   UNL     1      -5.549  14.885  -6.620  0.00  0.00    +0.163 HD
ATOM      6  H   UNL     1      -5.815  14.834  -3.122  0.00  0.00    +0.159 HD
ATOM      7  H   UNL     1      -5.206  15.700  -4.482  0.00  0.00    +0.159 HD
ATOM      8  H   UNL     1      -7.192  12.149  -4.947  0.00  0.00    +0.159 HD
ATOM      9  H   UNL     1      -6.937  12.826  -3.387  0.00  0.00    +0.159 HD
ENDROOT
BRANCH   1  10
ATOM     10  C   UNL     1      -6.438  13.048  -7.232  0.00  0.00    +0.151 C 
BRANCH  10  11
ATOM     11  C   UNL     1      -5.288  12.122  -7.518  0.00  0.00    -0.028 A 
ATOM     12  C   UNL     1      -3.972  12.607  -7.546  0.00  0.00    +0.005 A 
ATOM     13  C   UNL     1      -5.507  10.756  -7.756  0.00  0.00    +0.005 A 
ATOM     14  C   UNL     1      -2.902  11.741  -7.783  0.00  0.00    +0.000 A 
ATOM     15  C   UNL     1      -4.436   9.895  -7.993  0.00  0.00    +0.000 A 
ATOM     16  C   UNL     1      -3.133  10.388  -8.003  0.00  0.00    +0.000 A 
ENDBRANCH  10  11
ENDBRANCH   1  10
TORSDOF 2
ENDMDL
MODEL 5
REMARK VINA RESULT:    -4.591     13.372     14.447
REMARK INTER + INTRA:          -5.279
REMARK INTER:                  -5.164
REMARK INTRA:                  -0.114
REMARK UNBOUND:                -0.151
REMARK  Name = 1550473
REMARK  2 active torsions:
REMARK  status: ('A' for Active; 'I' for Inactive)
REMARK    1  A    between atoms: N_1  and  C_4
REMARK    2  A    between atoms: C_4  and  C_5
REMARK                            x       y       z     vdW  Elec       q    Type
REMARK                         _______ _______ _______ _____ _____    ______ ____
ROOT
ATOM      1  N   UNL     1       0.079  -8.380  -5.244  0.00  0.00    -0.354 N 
ATOM      2  N   UNL     1      -1.173  -6.516  -4.679  0.00  0.00    -0.372 N 
ATOM      3  N   UNL     1       1.114  -6.397  -4.545  0.00  0.00    -0.372 N 
ATOM      4  C   UNL     1       0.018  -7.109  -4.826  0.00  0.00    +0.166 C 
ATOM      5  H   UNL     1      -0.790  -8.875  -5.410  0.00  0.00    +0.163 HD
ATOM      6  H   UNL     1      -1.251  -5.557  -4.369  0.00  0.00    +0.159 HD
ATOM      7  H   UNL     1      -2.038  -6.998  -4.891  0.00  0.00    +0.159 HD
ATOM      8  H   UNL     1       2.043  -6.789  -4.630  0.00  0.00    +0.159 HD
ATOM      9  H   UNL     1       1.057  -5.440  -4.222  0.00  0.00    +0.159 HD
ENDROOT
BRANCH   1  10
ATOM     10  C   UNL     1       1.327  -9.101  -5.487  0.00  0.00    +0.151 C 
BRANCH  10  11
ATOM     11  C   UNL     1       1.007 -10.482  -5.989  0.00  0.00    -0.028 A 
ATOM     12  C   UNL     1      -0.127 -11.164  -5.524  0.00  0.00    +0.005 A 
ATOM     13  C   UNL     1       1.831 -11.112  -6.935  0.00  0.00    +0.005 A 
ATOM     14  C   UNL     1      -0.442 -12.434  -6.013  0.00  0.00    +0.000 A 
ATOM     15  C   UNL     1       1.514 -12.381  -7.420  0.00  0.00    +0.000 A 
ATOM     16  C   UNL     1       0.376 -13.041  -6.961  0.00  0.00    +0.000 A 
ENDBRANCH  10  11
ENDBRANCH   1  10
TORSDOF 2
ENDMDL
MODEL 6
REMARK VINA RESULT:    -4.559     21.516     22.529
REMARK INTER + INTRA:          -5.244
REMARK INTER:                  -5.119
REMARK INTRA:                  -0.124
REMARK UNBOUND:                -0.151
REMARK  Name = 1550473
REMARK  2 active torsions:
REMARK  status: ('A' for Active; 'I' for Inactive)
REMARK    1  A    between atoms: N_1  and  C_4
REMARK    2  A    between atoms: C_4  and  C_5
REMARK                            x       y       z     vdW  Elec       q    Type
REMARK                         _______ _______ _______ _____ _____    ______ ____
ROOT
ATOM      1  N   UNL     1       5.969  12.281 -10.683  0.00  0.00    -0.354 N 
ATOM      2  N   UNL     1       6.310  14.481 -10.045  0.00  0.00    -0.372 N 
ATOM      3  N   UNL     1       6.738  12.809  -8.533  0.00  0.00    -0.372 N 
ATOM      4  C   UNL     1       6.337  13.175  -9.756  0.00  0.00    +0.166 C 
ATOM      5  H   UNL     1       5.646  12.624 -11.581  0.00  0.00    +0.163 HD
ATOM      6  H   UNL     1       6.585  15.179  -9.367  0.00  0.00    +0.159 HD
ATOM      7  H   UNL     1       6.031  14.819 -10.958  0.00  0.00    +0.159 HD
ATOM      8  H   UNL     1       6.775  11.839  -8.250  0.00  0.00    +0.159 HD
ATOM      9  H   UNL     1       7.006  13.493  -7.837  0.00  0.00    +0.159 HD
ENDROOT
BRANCH   1  10
ATOM     10  C   UNL     1       6.013  10.833 -10.487  0.00  0.00    +0.151 C 
BRANCH  10  11
ATOM     11  C   UNL     1       6.121  10.159 -11.827  0.00  0.00    -0.028 A 
ATOM     12  C   UNL     1       5.787  10.850 -13.001  0.00  0.00    +0.005 A 
ATOM     13  C   UNL     1       6.562   8.831 -11.930  0.00  0.00    +0.005 A 
ATOM     14  C   UNL     1       5.916  10.234 -14.248  0.00  0.00    +0.000 A 
ATOM     15  C   UNL     1       6.689   8.219 -13.177  0.00  0.00    +0.000 A 
ATOM     16  C   UNL     1       6.368   8.922 -14.336  0.00  0.00    +0.000 A 
ENDBRANCH  10  11
ENDBRANCH   1  10
TORSDOF 2
ENDMDL
MODEL 7
REMARK VINA RESULT:    -4.549      8.411      9.835
REMARK INTER + INTRA:          -5.232
REMARK INTER:                  -5.116
REMARK INTRA:                  -0.116
REMARK UNBOUND:                -0.151
REMARK  Name = 1550473
REMARK  2 active torsions:
REMARK  status: ('A' for Active; 'I' for Inactive)
REMARK    1  A    between atoms: N_1  and  C_4
REMARK    2  A    between atoms: C_4  and  C_5
REMARK                            x       y       z     vdW  Elec       q    Type
REMARK                         _______ _______ _______ _____ _____    ______ ____
ROOT
ATOM      1  N   UNL     1      -4.697   7.789  -1.498  0.00  0.00    -0.354 N 
ATOM      2  N   UNL     1      -5.955   9.131  -2.905  0.00  0.00    -0.372 N 
ATOM      3  N   UNL     1      -6.653   6.982  -2.505  0.00  0.00    -0.372 N 
ATOM      4  C   UNL     1      -5.762   7.956  -2.294  0.00  0.00    +0.166 C 
ATOM      5  H   UNL     1      -4.042   8.557  -1.404  0.00  0.00    +0.163 HD
ATOM      6  H   UNL     1      -6.752   9.288  -3.509  0.00  0.00    +0.159 HD
ATOM      7  H   UNL     1      -5.324   9.911  -2.772  0.00  0.00    +0.159 HD
ATOM      8  H   UNL     1      -6.561   6.070  -2.078  0.00  0.00    +0.159 HD
ATOM      9  H   UNL     1      -7.450   7.116  -3.115  0.00  0.00    +0.159 HD
ENDROOT
BRANCH   1  10
ATOM     10  C   UNL     1      -4.423   6.567  -0.744  0.00  0.00    +0.151 C 
BRANCH  10  11
ATOM     11  C   UNL     1      -3.446   6.877   0.356  0.00  0.00    -0.028 A 
ATOM     12  C   UNL     1      -3.463   6.144   1.551  0.00  0.00    +0.005 A 
ATOM     13  C   UNL     1      -2.495   7.899   0.206  0.00  0.00    +0.005 A 
ATOM     14  C   UNL     1      -2.535   6.412   2.561  0.00  0.00    +0.000 A 
ATOM     15  C   UNL     1      -1.572   8.164   1.217  0.00  0.00    +0.000 A 
ATOM     16  C   UNL     1      -1.590   7.419   2.393  0.00  0.00    +0.000 A 
ENDBRANCH  10  11
ENDBRANCH   1  10
TORSDOF 2
ENDMDL
MODEL 8
REMARK VINA RESULT:    -4.346     20.901     22.294
REMARK INTER + INTRA:          -5.005
REMARK INTER:                  -4.869
REMARK INTRA:                  -0.136
REMARK UNBOUND:                -0.151
REMARK  Name = 1550473
REMARK  2 active torsions:
REMARK  status: ('A' for Active; 'I' for Inactive)
REMARK    1  A    between atoms: N_1  and  C_4
REMARK    2  A    between atoms: C_4  and  C_5
REMARK                            x       y       z     vdW  Elec       q    Type
REMARK                         _______ _______ _______ _____ _____    ______ ____
ROOT
ATOM      1  N   UNL     1       5.958   9.044 -12.853  0.00  0.00    -0.354 N 
ATOM      2  N   UNL     1       6.353   6.832 -13.411  0.00  0.00    -0.372 N 
ATOM      3  N   UNL     1       7.524   8.476 -14.501  0.00  0.00    -0.372 N 
ATOM      4  C   UNL     1       6.611   8.133 -13.587  0.00  0.00    +0.166 C 
ATOM      5  H   UNL     1       5.256   8.721 -12.198  0.00  0.00    +0.163 HD
ATOM      6  H   UNL     1       6.833   6.121 -13.948  0.00  0.00    +0.159 HD
ATOM      7  H   UNL     1       5.684   6.509 -12.723  0.00  0.00    +0.159 HD
ATOM      8  H   UNL     1       7.760   9.442 -14.686  0.00  0.00    +0.159 HD
ATOM      9  H   UNL     1       8.006   7.780 -15.056  0.00  0.00    +0.159 HD
ENDROOT
BRANCH   1  10
ATOM     10  C   UNL     1       6.204  10.483 -12.929  0.00  0.00    +0.151 C 
BRANCH  10  11
ATOM     11  C   UNL     1       6.118  11.069 -11.546  0.00  0.00    -0.028 A 
ATOM     12  C   UNL     1       6.222  12.455 -11.353  0.00  0.00    +0.005 A 
ATOM     13  C   UNL     1       5.929  10.245 -10.427  0.00  0.00    +0.005 A 
ATOM     14  C   UNL     1       6.113  13.002 -10.072  0.00  0.00    +0.000 A 
ATOM     15  C   UNL     1       5.821  10.796  -9.149  0.00  0.00    +0.000 A 
ATOM     16  C   UNL     1       5.911  12.174  -8.973  0.00  0.00    +0.000 A 
ENDBRANCH  10  11
ENDBRANCH   1  10
TORSDOF 2
ENDMDL
MODEL 9
REMARK VINA RESULT:    -4.339      8.823      9.801
REMARK INTER + INTRA:          -4.998
REMARK INTER:                  -4.857
REMARK INTRA:                  -0.140
REMARK UNBOUND:                -0.151
REMARK  Name = 1550473
REMARK  2 active torsions:
REMARK  status: ('A' for Active; 'I' for Inactive)
REMARK    1  A    between atoms: N_1  and  C_4
REMARK    2  A    between atoms: C_4  and  C_5
REMARK                            x       y       z     vdW  Elec       q    Type
REMARK                         _______ _______ _______ _____ _____    ______ ____
ROOT
ATOM      1  N   UNL     1       0.642   2.608   8.451  0.00  0.00    -0.354 N 
ATOM      2  N   UNL     1       1.916   0.726   8.000  0.00  0.00    -0.372 N 
ATOM      3  N   UNL     1       2.955   2.769   8.108  0.00  0.00    -0.372 N 
ATOM      4  C   UNL     1       1.831   2.049   8.189  0.00  0.00    +0.166 C 
ATOM      5  H   UNL     1      -0.177   2.011   8.469  0.00  0.00    +0.163 HD
ATOM      6  H   UNL     1       2.800   0.276   7.804  0.00  0.00    +0.159 HD
ATOM      7  H   UNL     1       1.103   0.126   8.064  0.00  0.00    +0.159 HD
ATOM      8  H   UNL     1       2.958   3.773   8.235  0.00  0.00    +0.159 HD
ATOM      9  H   UNL     1       3.847   2.338   7.902  0.00  0.00    +0.159 HD
ENDROOT
BRANCH   1  10
ATOM     10  C   UNL     1       0.450   4.031   8.725  0.00  0.00    +0.151 C 
BRANCH  10  11
ATOM     11  C   UNL     1      -0.130   4.191  10.103  0.00  0.00    -0.028 A 
ATOM     12  C   UNL     1      -0.353   5.469  10.637  0.00  0.00    +0.005 A 
ATOM     13  C   UNL     1      -0.463   3.070  10.878  0.00  0.00    +0.005 A 
ATOM     14  C   UNL     1      -0.919   5.619  11.905  0.00  0.00    +0.000 A 
ATOM     15  C   UNL     1      -1.027   3.224  12.144  0.00  0.00    +0.000 A 
ATOM     16  C   UNL     1      -1.258   4.498  12.656  0.00  0.00    +0.000 A 
ENDBRANCH  10  11
ENDBRANCH   1  10
TORSDOF 2
ENDMDL
