MODEL 1
REMARK VINA RESULT:    -5.395      0.000      0.000
REMARK INTER + INTRA:          -6.152
REMARK INTER:                  -6.026
REMARK INTRA:                  -0.126
REMARK UNBOUND:                -0.126
REMARK  Name = 1550473
REMARK  2 active torsions:
REMARK  status: ('A' for Active; 'I' for Inactive)
REMARK    1  A    between atoms: N_1  and  C_4
REMARK    2  A    between atoms: C_4  and  C_5
REMARK                            x       y       z     vdW  Elec       q    Type
REMARK                         _______ _______ _______ _____ _____    ______ ____
ROOT
ATOM      1  N   UNL     1       0.772   9.305  18.413  0.00  0.00    -0.354 N 
ATOM      2  N   UNL     1       1.430   8.245  20.364  0.00  0.00    -0.372 N 
ATOM      3  N   UNL     1       0.329   7.030  18.759  0.00  0.00    -0.372 N 
ATOM      4  C   UNL     1       0.838   8.199  19.164  0.00  0.00    +0.166 C 
ATOM      5  H   UNL     1       1.150  10.167  18.790  0.00  0.00    +0.163 HD
ATOM      6  H   UNL     1       1.498   7.426  20.952  0.00  0.00    +0.159 HD
ATOM      7  H   UNL     1       1.848   9.097  20.719  0.00  0.00    +0.159 HD
ATOM      8  H   UNL     1      -0.136   6.930  17.867  0.00  0.00    +0.159 HD
ATOM      9  H   UNL     1       0.377   6.202  19.338  0.00  0.00    +0.159 HD
ENDROOT
BRANCH   1  10
ATOM     10  C   UNL     1       0.196   9.349  17.070  0.00  0.00    +0.151 C 
BRANCH  10  11
ATOM     11  C   UNL     1      -0.054  10.782  16.688  0.00  0.00    -0.028 A 
ATOM     12  C   UNL     1       0.246  11.819  17.583  0.00  0.00    +0.005 A 
ATOM     13  C   UNL     1      -0.584  11.109  15.431  0.00  0.00    +0.005 A 
ATOM     14  C   UNL     1       0.042  13.152  17.218  0.00  0.00    +0.000 A 
ATOM     15  C   UNL     1      -0.787  12.441  15.070  0.00  0.00    +0.000 A 
ATOM     16  C   UNL     1      -0.471  13.462  15.963  0.00  0.00    +0.000 A 
ENDBRANCH  10  11
ENDBRANCH   1  10
TORSDOF 2
ENDMDL
MODEL 2
REMARK VINA RESULT:    -5.194      4.115      5.519
REMARK INTER + INTRA:          -5.927
REMARK INTER:                  -5.754
REMARK INTRA:                  -0.173
REMARK UNBOUND:                -0.126
REMARK  Name = 1550473
REMARK  2 active torsions:
REMARK  status: ('A' for Active; 'I' for Inactive)
REMARK    1  A    between atoms: N_1  and  C_4
REMARK    2  A    between atoms: C_4  and  C_5
REMARK                            x       y       z     vdW  Elec       q    Type
REMARK                         _______ _______ _______ _____ _____    ______ ____
ROOT
ATOM      1  N   UNL     1       1.938  14.134  14.866  0.00  0.00    -0.354 N 
ATOM      2  N   UNL     1       3.970  14.581  13.848  0.00  0.00    -0.372 N 
ATOM      3  N   UNL     1       2.285  13.649  12.600  0.00  0.00    -0.372 N 
ATOM      4  C   UNL     1       2.716  14.117  13.776  0.00  0.00    +0.166 C 
ATOM      5  H   UNL     1       2.334  14.474  15.735  0.00  0.00    +0.163 HD
ATOM      6  H   UNL     1       4.579  14.585  13.042  0.00  0.00    +0.159 HD
ATOM      7  H   UNL     1       4.348  14.963  14.707  0.00  0.00    +0.159 HD
ATOM      8  H   UNL     1       1.352  13.279  12.480  0.00  0.00    +0.159 HD
ATOM      9  H   UNL     1       2.884  13.633  11.784  0.00  0.00    +0.159 HD
ENDROOT
BRANCH   1  10
ATOM     10  C   UNL     1       0.541  13.702  14.880  0.00  0.00    +0.151 C 
BRANCH  10  11
ATOM     11  C   UNL     1       0.432  12.419  15.658  0.00  0.00    -0.028 A 
ATOM     12  C   UNL     1       0.147  12.441  17.031  0.00  0.00    +0.005 A 
ATOM     13  C   UNL     1       0.607  11.178  15.026  0.00  0.00    +0.005 A 
ATOM     14  C   UNL     1       0.016  11.249  17.748  0.00  0.00    +0.000 A 
ATOM     15  C   UNL     1       0.476   9.990  15.745  0.00  0.00    +0.000 A 
ATOM     16  C   UNL     1       0.178  10.026  17.105  0.00  0.00    +0.000 A 
ENDBRANCH  10  11
ENDBRANCH   1  10
TORSDOF 2
ENDMDL
MODEL 3
REMARK VINA RESULT:    -5.052      2.615      3.447
REMARK INTER + INTRA:          -5.768
REMARK INTER:                  -5.592
REMARK INTRA:                  -0.176
REMARK UNBOUND:                -0.126
REMARK  Name = 1550473
REMARK  2 active torsions:
REMARK  status: ('A' for Active; 'I' for Inactive)
REMARK    1  A    between atoms: N_1  and  C_4
REMARK    2  A    between atoms: C_4  and  C_5
REMARK                            x       y       z     vdW  Elec       q    Type
REMARK                         _______ _______ _______ _____ _____    ______ ____
ROOT
ATOM      1  N   UNL     1       2.947  11.104  17.347  0.00  0.00    -0.354 N 
ATOM      2  N   UNL     1       5.083  11.993  17.235  0.00  0.00    -0.372 N 
ATOM      3  N   UNL     1       3.550  12.963  18.641  0.00  0.00    -0.372 N 
ATOM      4  C   UNL     1       3.845  12.016  17.744  0.00  0.00    +0.166 C 
ATOM      5  H   UNL     1       3.224  10.432  16.641  0.00  0.00    +0.163 HD
ATOM      6  H   UNL     1       5.782  12.666  17.517  0.00  0.00    +0.159 HD
ATOM      7  H   UNL     1       5.370  11.292  16.564  0.00  0.00    +0.159 HD
ATOM      8  H   UNL     1       2.632  13.038  19.058  0.00  0.00    +0.159 HD
ATOM      9  H   UNL     1       4.233  13.652  18.928  0.00  0.00    +0.159 HD
ENDROOT
BRANCH   1  10
ATOM     10  C   UNL     1       1.589  11.009  17.879  0.00  0.00    +0.151 C 
BRANCH  10  11
ATOM     11  C   UNL     1       0.634  11.644  16.906  0.00  0.00    -0.028 A 
ATOM     12  C   UNL     1       0.244  12.982  17.062  0.00  0.00    +0.005 A 
ATOM     13  C   UNL     1       0.121  10.915  15.823  0.00  0.00    +0.005 A 
ATOM     14  C   UNL     1      -0.619  13.582  16.142  0.00  0.00    +0.000 A 
ATOM     15  C   UNL     1      -0.741  11.517  14.906  0.00  0.00    +0.000 A 
ATOM     16  C   UNL     1      -1.109  12.851  15.065  0.00  0.00    +0.000 A 
ENDBRANCH  10  11
ENDBRANCH   1  10
TORSDOF 2
ENDMDL
MODEL 4
REMARK VINA RESULT:    -4.619      5.909      7.457
REMARK INTER + INTRA:          -5.284
REMARK INTER:                  -5.105
REMARK INTRA:                  -0.179
REMARK UNBOUND:                -0.126
REMARK  Name = 1550473
REMARK  2 active torsions:
REMARK  status: ('A' for Active; 'I' for Inactive)
REMARK    1  A    between atoms: N_1  and  C_4
REMARK    2  A    between atoms: C_4  and  C_5
REMARK                            x       y       z     vdW  Elec       q    Type
REMARK                         _______ _______ _______ _____ _____    ______ ____
ROOT
ATOM      1  N   UNL     1       4.012   3.881  20.198  0.00  0.00    -0.354 N 
ATOM      2  N   UNL     1       3.165   1.771  19.758  0.00  0.00    -0.372 N 
ATOM      3  N   UNL     1       3.830   2.275  21.895  0.00  0.00    -0.372 N 
ATOM      4  C   UNL     1       3.675   2.656  20.623  0.00  0.00    +0.166 C 
ATOM      5  H   UNL     1       3.899   4.098  19.215  0.00  0.00    +0.163 HD
ATOM      6  H   UNL     1       2.898   0.840  20.050  0.00  0.00    +0.159 HD
ATOM      7  H   UNL     1       3.009   2.006  18.785  0.00  0.00    +0.159 HD
ATOM      8  H   UNL     1       4.215   2.894  22.596  0.00  0.00    +0.159 HD
ATOM      9  H   UNL     1       3.580   1.344  22.204  0.00  0.00    +0.159 HD
ENDROOT
BRANCH   1  10
ATOM     10  C   UNL     1       4.526   4.936  21.070  0.00  0.00    +0.151 C 
BRANCH  10  11
ATOM     11  C   UNL     1       3.428   5.926  21.342  0.00  0.00    -0.028 A 
ATOM     12  C   UNL     1       2.816   5.983  22.604  0.00  0.00    +0.005 A 
ATOM     13  C   UNL     1       2.998   6.815  20.345  0.00  0.00    +0.005 A 
ATOM     14  C   UNL     1       1.817   6.923  22.866  0.00  0.00    +0.000 A 
ATOM     15  C   UNL     1       1.999   7.752  20.611  0.00  0.00    +0.000 A 
ATOM     16  C   UNL     1       1.411   7.807  21.872  0.00  0.00    +0.000 A 
ENDBRANCH  10  11
ENDBRANCH   1  10
TORSDOF 2
ENDMDL
MODEL 5
REMARK VINA RESULT:    -4.588     39.258     40.532
REMARK INTER + INTRA:          -5.250
REMARK INTER:                  -5.148
REMARK INTRA:                  -0.102
REMARK UNBOUND:                -0.126
REMARK  Name = 1550473
REMARK  2 active torsions:
REMARK  status: ('A' for Active; 'I' for Inactive)
REMARK    1  A    between atoms: N_1  and  C_4
REMARK    2  A    between atoms: C_4  and  C_5
REMARK                            x       y       z     vdW  Elec       q    Type
REMARK                         _______ _______ _______ _____ _____    ______ ____
ROOT
ATOM      1  N   UNL     1     -16.499  -6.954 -14.042  0.00  0.00    -0.354 N 
ATOM      2  N   UNL     1     -16.736  -6.771 -11.745  0.00  0.00    -0.372 N 
ATOM      3  N   UNL     1     -17.441  -8.692 -12.783  0.00  0.00    -0.372 N 
ATOM      4  C   UNL     1     -16.891  -7.476 -12.872  0.00  0.00    +0.166 C 
ATOM      5  H   UNL     1     -16.117  -6.015 -14.046  0.00  0.00    +0.163 HD
ATOM      6  H   UNL     1     -17.019  -7.139 -10.848  0.00  0.00    +0.159 HD
ATOM      7  H   UNL     1     -16.312  -5.851 -11.747  0.00  0.00    +0.159 HD
ATOM      8  H   UNL     1     -17.591  -9.273 -13.597  0.00  0.00    +0.159 HD
ATOM      9  H   UNL     1     -17.742  -9.074 -11.895  0.00  0.00    +0.159 HD
ENDROOT
BRANCH   1  10
ATOM     10  C   UNL     1     -16.575  -7.661 -15.319  0.00  0.00    +0.151 C 
BRANCH  10  11
ATOM     11  C   UNL     1     -15.700  -6.960 -16.322  0.00  0.00    -0.028 A 
ATOM     12  C   UNL     1     -16.267  -6.303 -17.424  0.00  0.00    +0.005 A 
ATOM     13  C   UNL     1     -14.305  -6.944 -16.172  0.00  0.00    +0.005 A 
ATOM     14  C   UNL     1     -15.457  -5.626 -18.339  0.00  0.00    +0.000 A 
ATOM     15  C   UNL     1     -13.500  -6.267 -17.088  0.00  0.00    +0.000 A 
ATOM     16  C   UNL     1     -14.077  -5.606 -18.170  0.00  0.00    +0.000 A 
ENDBRANCH  10  11
ENDBRANCH   1  10
TORSDOF 2
ENDMDL
MODEL 6
REMARK VINA RESULT:    -4.576     21.649     22.994
REMARK INTER + INTRA:          -5.237
REMARK INTER:                  -5.112
REMARK INTRA:                  -0.125
REMARK UNBOUND:                -0.126
REMARK  Name = 1550473
REMARK  2 active torsions:
REMARK  status: ('A' for Active; 'I' for Inactive)
REMARK    1  A    between atoms: N_1  and  C_4
REMARK    2  A    between atoms: C_4  and  C_5
REMARK                            x       y       z     vdW  Elec       q    Type
REMARK                         _______ _______ _______ _____ _____    ______ ____
ROOT
ATOM      1  N   UNL     1      -9.550   4.241  -3.796  0.00  0.00    -0.354 N 
ATOM      2  N   UNL     1     -10.411   2.911  -5.486  0.00  0.00    -0.372 N 
ATOM      3  N   UNL     1     -11.469   4.883  -4.978  0.00  0.00    -0.372 N 
ATOM      4  C   UNL     1     -10.473   4.022  -4.742  0.00  0.00    +0.166 C 
ATOM      5  H   UNL     1      -8.838   3.535  -3.647  0.00  0.00    +0.163 HD
ATOM      6  H   UNL     1     -11.092   2.721  -6.209  0.00  0.00    +0.159 HD
ATOM      7  H   UNL     1      -9.672   2.229  -5.365  0.00  0.00    +0.159 HD
ATOM      8  H   UNL     1     -11.575   5.738  -4.448  0.00  0.00    +0.159 HD
ATOM      9  H   UNL     1     -12.166   4.705  -5.690  0.00  0.00    +0.159 HD
ENDROOT
BRANCH   1  10
ATOM     10  C   UNL     1      -9.496   5.445  -2.969  0.00  0.00    +0.151 C 
BRANCH  10  11
ATOM     11  C   UNL     1      -8.533   5.220  -1.836  0.00  0.00    -0.028 A 
ATOM     12  C   UNL     1      -7.846   4.003  -1.717  0.00  0.00    +0.005 A 
ATOM     13  C   UNL     1      -8.299   6.221  -0.881  0.00  0.00    +0.005 A 
ATOM     14  C   UNL     1      -6.929   3.804  -0.682  0.00  0.00    +0.000 A 
ATOM     15  C   UNL     1      -7.384   6.019   0.151  0.00  0.00    +0.000 A 
ATOM     16  C   UNL     1      -6.697   4.811   0.249  0.00  0.00    +0.000 A 
ENDBRANCH  10  11
ENDBRANCH   1  10
TORSDOF 2
ENDMDL
MODEL 7
REMARK VINA RESULT:    -4.507     38.139     39.261
REMARK INTER + INTRA:          -5.160
REMARK INTER:                  -5.000
REMARK INTRA:                  -0.160
REMARK UNBOUND:                -0.126
REMARK  Name = 1550473
REMARK  2 active torsions:
REMARK  status: ('A' for Active; 'I' for Inactive)
REMARK    1  A    between atoms: N_1  and  C_4
REMARK    2  A    between atoms: C_4  and  C_5
REMARK                            x       y       z     vdW  Elec       q    Type
REMARK                         _______ _______ _______ _____ _____    ______ ____
ROOT
ATOM      1  N   UNL     1     -17.179  -6.084 -12.517  0.00  0.00    -0.354 N 
ATOM      2  N   UNL     1     -16.780  -7.303 -10.588  0.00  0.00    -0.372 N 
ATOM      3  N   UNL     1     -17.400  -8.417 -12.495  0.00  0.00    -0.372 N 
ATOM      4  C   UNL     1     -17.124  -7.262 -11.881  0.00  0.00    +0.166 C 
ATOM      5  H   UNL     1     -16.987  -5.242 -11.987  0.00  0.00    +0.163 HD
ATOM      6  H   UNL     1     -16.726  -8.177 -10.082  0.00  0.00    +0.159 HD
ATOM      7  H   UNL     1     -16.544  -6.463 -10.073  0.00  0.00    +0.159 HD
ATOM      8  H   UNL     1     -17.672  -8.455 -13.469  0.00  0.00    +0.159 HD
ATOM      9  H   UNL     1     -17.363  -9.301 -12.003  0.00  0.00    +0.159 HD
ENDROOT
BRANCH   1  10
ATOM     10  C   UNL     1     -17.490  -5.936 -13.937  0.00  0.00    +0.151 C 
BRANCH  10  11
ATOM     11  C   UNL     1     -16.210  -5.963 -14.726  0.00  0.00    -0.028 A 
ATOM     12  C   UNL     1     -15.330  -4.871 -14.691  0.00  0.00    +0.005 A 
ATOM     13  C   UNL     1     -15.868  -7.079 -15.504  0.00  0.00    +0.005 A 
ATOM     14  C   UNL     1     -14.126  -4.907 -15.399  0.00  0.00    +0.000 A 
ATOM     15  C   UNL     1     -14.666  -7.111 -16.211  0.00  0.00    +0.000 A 
ATOM     16  C   UNL     1     -13.794  -6.026 -16.156  0.00  0.00    +0.000 A 
ENDBRANCH  10  11
ENDBRANCH   1  10
TORSDOF 2
ENDMDL
MODEL 8
REMARK VINA RESULT:    -4.467     36.022     37.284
REMARK INTER + INTRA:          -5.115
REMARK INTER:                  -4.945
REMARK INTRA:                  -0.170
REMARK UNBOUND:                -0.126
REMARK  Name = 1550473
REMARK  2 active torsions:
REMARK  status: ('A' for Active; 'I' for Inactive)
REMARK    1  A    between atoms: N_1  and  C_4
REMARK    2  A    between atoms: C_4  and  C_5
REMARK                            x       y       z     vdW  Elec       q    Type
REMARK                         _______ _______ _______ _____ _____    ______ ____
ROOT
ATOM      1  N   UNL     1     -12.451 -10.199  -8.280  0.00  0.00    -0.354 N 
ATOM      2  N   UNL     1     -12.032  -7.923  -8.369  0.00  0.00    -0.372 N 
ATOM      3  N   UNL     1     -14.016  -8.719  -9.202  0.00  0.00    -0.372 N 
ATOM      4  C   UNL     1     -12.838  -8.962  -8.618  0.00  0.00    +0.166 C 
ATOM      5  H   UNL     1     -11.533 -10.320  -7.867  0.00  0.00    +0.163 HD
ATOM      6  H   UNL     1     -12.299  -6.978  -8.609  0.00  0.00    +0.159 HD
ATOM      7  H   UNL     1     -11.135  -8.042  -7.914  0.00  0.00    +0.159 HD
ATOM      8  H   UNL     1     -14.668  -9.460  -9.423  0.00  0.00    +0.159 HD
ATOM      9  H   UNL     1     -14.296  -7.781  -9.461  0.00  0.00    +0.159 HD
ENDROOT
BRANCH   1  10
ATOM     10  C   UNL     1     -13.277 -11.392  -8.459  0.00  0.00    +0.151 C 
BRANCH  10  11
ATOM     11  C   UNL     1     -12.672 -12.251  -9.535  0.00  0.00    -0.028 A 
ATOM     12  C   UNL     1     -11.657 -13.168  -9.228  0.00  0.00    +0.005 A 
ATOM     13  C   UNL     1     -13.115 -12.156 -10.864  0.00  0.00    +0.005 A 
ATOM     14  C   UNL     1     -11.116 -13.988 -10.221  0.00  0.00    +0.000 A 
ATOM     15  C   UNL     1     -12.571 -12.975 -11.853  0.00  0.00    +0.000 A 
ATOM     16  C   UNL     1     -11.574 -13.893 -11.531  0.00  0.00    +0.000 A 
ENDBRANCH  10  11
ENDBRANCH   1  10
TORSDOF 2
ENDMDL
MODEL 9
REMARK VINA RESULT:    -4.371     19.924     21.205
REMARK INTER + INTRA:          -5.008
REMARK INTER:                  -4.896
REMARK INTRA:                  -0.112
REMARK UNBOUND:                -0.126
REMARK  Name = 1550473
REMARK  2 active torsions:
REMARK  status: ('A' for Active; 'I' for Inactive)
REMARK    1  A    between atoms: N_1  and  C_4
REMARK    2  A    between atoms: C_4  and  C_5
REMARK                            x       y       z     vdW  Elec       q    Type
REMARK                         _______ _______ _______ _____ _____    ______ ____
ROOT
ATOM      1  N   UNL     1      -8.674   8.866  -1.485  0.00  0.00    -0.354 N 
ATOM      2  N   UNL     1     -10.046  10.589  -2.200  0.00  0.00    -0.372 N 
ATOM      3  N   UNL     1      -8.237  11.088  -0.879  0.00  0.00    -0.372 N 
ATOM      4  C   UNL     1      -8.975  10.171  -1.515  0.00  0.00    +0.166 C 
ATOM      5  H   UNL     1      -9.290   8.219  -1.962  0.00  0.00    +0.163 HD
ATOM      6  H   UNL     1     -10.296  11.568  -2.244  0.00  0.00    +0.159 HD
ATOM      7  H   UNL     1     -10.634   9.945  -2.715  0.00  0.00    +0.159 HD
ATOM      8  H   UNL     1      -7.420  10.837  -0.339  0.00  0.00    +0.159 HD
ATOM      9  H   UNL     1      -8.478  12.071  -0.901  0.00  0.00    +0.159 HD
ENDROOT
BRANCH   1  10
ATOM     10  C   UNL     1      -7.499   8.313  -0.812  0.00  0.00    +0.151 C 
BRANCH  10  11
ATOM     11  C   UNL     1      -7.505   6.817  -0.963  0.00  0.00    -0.028 A 
ATOM     12  C   UNL     1      -7.101   5.993   0.097  0.00  0.00    +0.005 A 
ATOM     13  C   UNL     1      -7.920   6.218  -2.162  0.00  0.00    +0.005 A 
ATOM     14  C   UNL     1      -7.135   4.602  -0.033  0.00  0.00    +0.000 A 
ATOM     15  C   UNL     1      -7.951   4.829  -2.288  0.00  0.00    +0.000 A 
ATOM     16  C   UNL     1      -7.561   4.022  -1.222  0.00  0.00    +0.000 A 
ENDBRANCH  10  11
ENDBRANCH   1  10
TORSDOF 2
ENDMDL
