MODEL 1
REMARK VINA RESULT:    -5.283      0.000      0.000
REMARK INTER + INTRA:          -6.079
REMARK INTER:                  -5.900
REMARK INTRA:                  -0.179
REMARK UNBOUND:                -0.179
REMARK  Name = 1550473
REMARK  2 active torsions:
REMARK  status: ('A' for Active; 'I' for Inactive)
REMARK    1  A    between atoms: N_1  and  C_4
REMARK    2  A    between atoms: C_4  and  C_5
REMARK                            x       y       z     vdW  Elec       q    Type
REMARK                         _______ _______ _______ _____ _____    ______ ____
ROOT
ATOM      1  N   UNL     1       3.020   7.587   0.540  0.00  0.00    -0.354 N 
ATOM      2  N   UNL     1       4.149   5.857   1.587  0.00  0.00    -0.372 N 
ATOM      3  N   UNL     1       5.099   6.849  -0.250  0.00  0.00    -0.372 N 
ATOM      4  C   UNL     1       4.084   6.776   0.617  0.00  0.00    +0.166 C 
ATOM      5  H   UNL     1       2.270   7.461   1.209  0.00  0.00    +0.163 HD
ATOM      6  H   UNL     1       4.941   5.234   1.672  0.00  0.00    +0.159 HD
ATOM      7  H   UNL     1       3.419   5.764   2.283  0.00  0.00    +0.159 HD
ATOM      8  H   UNL     1       5.108   7.517  -1.010  0.00  0.00    +0.159 HD
ATOM      9  H   UNL     1       5.895   6.226  -0.189  0.00  0.00    +0.159 HD
ENDROOT
BRANCH   1  10
ATOM     10  C   UNL     1       2.877   8.657  -0.446  0.00  0.00    +0.151 C 
BRANCH  10  11
ATOM     11  C   UNL     1       1.884   8.230  -1.492  0.00  0.00    -0.028 A 
ATOM     12  C   UNL     1       2.320   7.682  -2.707  0.00  0.00    +0.005 A 
ATOM     13  C   UNL     1       0.504   8.367  -1.271  0.00  0.00    +0.005 A 
ATOM     14  C   UNL     1       1.397   7.259  -3.666  0.00  0.00    +0.000 A 
ATOM     15  C   UNL     1      -0.414   7.944  -2.232  0.00  0.00    +0.000 A 
ATOM     16  C   UNL     1       0.033   7.387  -3.428  0.00  0.00    +0.000 A 
ENDBRANCH  10  11
ENDBRANCH   1  10
TORSDOF 2
ENDMDL
MODEL 2
REMARK VINA RESULT:    -5.129     13.846     15.215
REMARK INTER + INTRA:          -5.907
REMARK INTER:                  -5.751
REMARK INTRA:                  -0.156
REMARK UNBOUND:                -0.179
REMARK  Name = 1550473
REMARK  2 active torsions:
REMARK  status: ('A' for Active; 'I' for Inactive)
REMARK    1  A    between atoms: N_1  and  C_4
REMARK    2  A    between atoms: C_4  and  C_5
REMARK                            x       y       z     vdW  Elec       q    Type
REMARK                         _______ _______ _______ _____ _____    ______ ____
ROOT
ATOM      1  N   UNL     1      -5.433  -2.848  -7.708  0.00  0.00    -0.354 N 
ATOM      2  N   UNL     1      -5.040  -1.315  -6.018  0.00  0.00    -0.372 N 
ATOM      3  N   UNL     1      -3.254  -2.390  -6.978  0.00  0.00    -0.372 N 
ATOM      4  C   UNL     1      -4.575  -2.195  -6.913  0.00  0.00    +0.166 C 
ATOM      5  H   UNL     1      -6.425  -2.678  -7.589  0.00  0.00    +0.163 HD
ATOM      6  H   UNL     1      -4.416  -0.804  -5.407  0.00  0.00    +0.159 HD
ATOM      7  H   UNL     1      -6.028  -1.113  -5.932  0.00  0.00    +0.159 HD
ATOM      8  H   UNL     1      -2.840  -3.045  -7.627  0.00  0.00    +0.159 HD
ATOM      9  H   UNL     1      -2.615  -1.897  -6.366  0.00  0.00    +0.159 HD
ENDROOT
BRANCH   1  10
ATOM     10  C   UNL     1      -5.026  -3.788  -8.752  0.00  0.00    +0.151 C 
BRANCH  10  11
ATOM     11  C   UNL     1      -5.309  -3.179 -10.098  0.00  0.00    -0.028 A 
ATOM     12  C   UNL     1      -6.349  -2.251 -10.256  0.00  0.00    +0.005 A 
ATOM     13  C   UNL     1      -4.536  -3.521 -11.218  0.00  0.00    +0.005 A 
ATOM     14  C   UNL     1      -6.592  -1.663 -11.499  0.00  0.00    +0.000 A 
ATOM     15  C   UNL     1      -4.782  -2.932 -12.458  0.00  0.00    +0.000 A 
ATOM     16  C   UNL     1      -5.809  -2.001 -12.598  0.00  0.00    +0.000 A 
ENDBRANCH  10  11
ENDBRANCH   1  10
TORSDOF 2
ENDMDL
MODEL 3
REMARK VINA RESULT:    -5.063     14.553     16.332
REMARK INTER + INTRA:          -5.834
REMARK INTER:                  -5.689
REMARK INTRA:                  -0.145
REMARK UNBOUND:                -0.179
REMARK  Name = 1550473
REMARK  2 active torsions:
REMARK  status: ('A' for Active; 'I' for Inactive)
REMARK    1  A    between atoms: N_1  and  C_4
REMARK    2  A    between atoms: C_4  and  C_5
REMARK                            x       y       z     vdW  Elec       q    Type
REMARK                         _______ _______ _______ _____ _____    ______ ____
ROOT
ATOM      1  N   UNL     1      -8.693   3.447  -9.992  0.00  0.00    -0.354 N 
ATOM      2  N   UNL     1      -9.264   5.625  -9.452  0.00  0.00    -0.372 N 
ATOM      3  N   UNL     1      -9.493   3.991  -7.858  0.00  0.00    -0.372 N 
ATOM      4  C   UNL     1      -9.147   4.339  -9.102  0.00  0.00    +0.166 C 
ATOM      5  H   UNL     1      -8.476   3.768 -10.928  0.00  0.00    +0.163 HD
ATOM      6  H   UNL     1      -9.601   6.322  -8.801  0.00  0.00    +0.159 HD
ATOM      7  H   UNL     1      -9.003   5.952 -10.375  0.00  0.00    +0.159 HD
ATOM      8  H   UNL     1      -9.434   3.036  -7.532  0.00  0.00    +0.159 HD
ATOM      9  H   UNL     1      -9.844   4.672  -7.195  0.00  0.00    +0.159 HD
ENDROOT
BRANCH   1  10
ATOM     10  C   UNL     1      -8.477   2.032  -9.694  0.00  0.00    +0.151 C 
BRANCH  10  11
ATOM     11  C   UNL     1      -9.226   1.199 -10.698  0.00  0.00    -0.028 A 
ATOM     12  C   UNL     1      -9.236  -0.200 -10.596  0.00  0.00    +0.005 A 
ATOM     13  C   UNL     1      -9.931   1.803 -11.750  0.00  0.00    +0.005 A 
ATOM     14  C   UNL     1      -9.956  -0.972 -11.511  0.00  0.00    +0.000 A 
ATOM     15  C   UNL     1     -10.647   1.028 -12.662  0.00  0.00    +0.000 A 
ATOM     16  C   UNL     1     -10.662  -0.359 -12.541  0.00  0.00    +0.000 A 
ENDBRANCH  10  11
ENDBRANCH   1  10
TORSDOF 2
ENDMDL
MODEL 4
REMARK VINA RESULT:    -4.796     10.023     11.588
REMARK INTER + INTRA:          -5.535
REMARK INTER:                  -5.430
REMARK INTRA:                  -0.105
REMARK UNBOUND:                -0.179
REMARK  Name = 1550473
REMARK  2 active torsions:
REMARK  status: ('A' for Active; 'I' for Inactive)
REMARK    1  A    between atoms: N_1  and  C_4
REMARK    2  A    between atoms: C_4  and  C_5
REMARK                            x       y       z     vdW  Elec       q    Type
REMARK                         _______ _______ _______ _____ _____    ______ ____
ROOT
ATOM      1  N   UNL     1      -5.175   2.528  -5.992  0.00  0.00    -0.354 N 
ATOM      2  N   UNL     1      -4.612   4.756  -5.707  0.00  0.00    -0.372 N 
ATOM      3  N   UNL     1      -5.154   3.505  -3.862  0.00  0.00    -0.372 N 
ATOM      4  C   UNL     1      -4.985   3.581  -5.186  0.00  0.00    +0.166 C 
ATOM      5  H   UNL     1      -5.060   2.659  -6.990  0.00  0.00    +0.163 HD
ATOM      6  H   UNL     1      -4.458   5.568  -5.124  0.00  0.00    +0.159 HD
ATOM      7  H   UNL     1      -4.453   4.872  -6.700  0.00  0.00    +0.159 HD
ATOM      8  H   UNL     1      -5.440   2.648  -3.407  0.00  0.00    +0.159 HD
ATOM      9  H   UNL     1      -5.016   4.309  -3.262  0.00  0.00    +0.159 HD
ENDROOT
BRANCH   1  10
ATOM     10  C   UNL     1      -5.529   1.191  -5.520  0.00  0.00    +0.151 C 
BRANCH  10  11
ATOM     11  C   UNL     1      -5.086   0.177  -6.538  0.00  0.00    -0.028 A 
ATOM     12  C   UNL     1      -4.347  -0.949  -6.147  0.00  0.00    +0.005 A 
ATOM     13  C   UNL     1      -5.408   0.333  -7.895  0.00  0.00    +0.005 A 
ATOM     14  C   UNL     1      -3.961  -1.907  -7.089  0.00  0.00    +0.000 A 
ATOM     15  C   UNL     1      -5.020  -0.624  -8.832  0.00  0.00    +0.000 A 
ATOM     16  C   UNL     1      -4.299  -1.745  -8.428  0.00  0.00    +0.000 A 
ENDBRANCH  10  11
ENDBRANCH   1  10
TORSDOF 2
ENDMDL
MODEL 5
REMARK VINA RESULT:    -4.689     10.696     12.219
REMARK INTER + INTRA:          -5.416
REMARK INTER:                  -5.305
REMARK INTRA:                  -0.111
REMARK UNBOUND:                -0.179
REMARK  Name = 1550473
REMARK  2 active torsions:
REMARK  status: ('A' for Active; 'I' for Inactive)
REMARK    1  A    between atoms: N_1  and  C_4
REMARK    2  A    between atoms: C_4  and  C_5
REMARK                            x       y       z     vdW  Elec       q    Type
REMARK                         _______ _______ _______ _____ _____    ______ ____
ROOT
ATOM      1  N   UNL     1      -5.603   1.338  -6.323  0.00  0.00    -0.354 N 
ATOM      2  N   UNL     1      -5.978   3.620  -6.207  0.00  0.00    -0.372 N 
ATOM      3  N   UNL     1      -5.576   2.463  -4.267  0.00  0.00    -0.372 N 
ATOM      4  C   UNL     1      -5.716   2.458  -5.597  0.00  0.00    +0.166 C 
ATOM      5  H   UNL     1      -5.750   1.396  -7.324  0.00  0.00    +0.163 HD
ATOM      6  H   UNL     1      -6.066   4.483  -5.686  0.00  0.00    +0.159 HD
ATOM      7  H   UNL     1      -6.079   3.684  -7.213  0.00  0.00    +0.159 HD
ATOM      8  H   UNL     1      -5.383   1.618  -3.746  0.00  0.00    +0.159 HD
ATOM      9  H   UNL     1      -5.672   3.313  -3.727  0.00  0.00    +0.159 HD
ENDROOT
BRANCH   1  10
ATOM     10  C   UNL     1      -5.266   0.031  -5.762  0.00  0.00    +0.151 C 
BRANCH  10  11
ATOM     11  C   UNL     1      -4.499  -0.760  -6.785  0.00  0.00    -0.028 A 
ATOM     12  C   UNL     1      -4.934  -0.813  -8.117  0.00  0.00    +0.005 A 
ATOM     13  C   UNL     1      -3.332  -1.454  -6.430  0.00  0.00    +0.005 A 
ATOM     14  C   UNL     1      -4.205  -1.523  -9.074  0.00  0.00    +0.000 A 
ATOM     15  C   UNL     1      -2.607  -2.162  -7.388  0.00  0.00    +0.000 A 
ATOM     16  C   UNL     1      -3.043  -2.194  -8.711  0.00  0.00    +0.000 A 
ENDBRANCH  10  11
ENDBRANCH   1  10
TORSDOF 2
ENDMDL
MODEL 6
REMARK VINA RESULT:    -4.688     16.570     17.334
REMARK INTER + INTRA:          -5.415
REMARK INTER:                  -5.323
REMARK INTRA:                  -0.093
REMARK UNBOUND:                -0.179
REMARK  Name = 1550473
REMARK  2 active torsions:
REMARK  status: ('A' for Active; 'I' for Inactive)
REMARK    1  A    between atoms: N_1  and  C_4
REMARK    2  A    between atoms: C_4  and  C_5
REMARK                            x       y       z     vdW  Elec       q    Type
REMARK                         _______ _______ _______ _____ _____    ______ ____
ROOT
ATOM      1  N   UNL     1      -3.638  -4.622 -12.995  0.00  0.00    -0.354 N 
ATOM      2  N   UNL     1      -3.503  -5.871 -14.940  0.00  0.00    -0.372 N 
ATOM      3  N   UNL     1      -2.496  -3.811 -14.873  0.00  0.00    -0.372 N 
ATOM      4  C   UNL     1      -3.212  -4.758 -14.258  0.00  0.00    +0.166 C 
ATOM      5  H   UNL     1      -4.202  -5.363 -12.595  0.00  0.00    +0.163 HD
ATOM      6  H   UNL     1      -3.192  -6.003 -15.893  0.00  0.00    +0.159 HD
ATOM      7  H   UNL     1      -4.028  -6.630 -14.523  0.00  0.00    +0.159 HD
ATOM      8  H   UNL     1      -2.247  -2.944 -14.415  0.00  0.00    +0.159 HD
ATOM      9  H   UNL     1      -2.186  -3.920 -15.831  0.00  0.00    +0.159 HD
ENDROOT
BRANCH   1  10
ATOM     10  C   UNL     1      -3.329  -3.472 -12.147  0.00  0.00    +0.151 C 
BRANCH  10  11
ATOM     11  C   UNL     1      -4.219  -3.502 -10.935  0.00  0.00    -0.028 A 
ATOM     12  C   UNL     1      -5.374  -2.708 -10.880  0.00  0.00    +0.005 A 
ATOM     13  C   UNL     1      -3.917  -4.328  -9.841  0.00  0.00    +0.005 A 
ATOM     14  C   UNL     1      -6.217  -2.758  -9.767  0.00  0.00    +0.000 A 
ATOM     15  C   UNL     1      -4.761  -4.374  -8.732  0.00  0.00    +0.000 A 
ATOM     16  C   UNL     1      -5.912  -3.591  -8.696  0.00  0.00    +0.000 A 
ENDBRANCH  10  11
ENDBRANCH   1  10
TORSDOF 2
ENDMDL
MODEL 7
REMARK VINA RESULT:    -4.593     29.179     30.697
REMARK INTER + INTRA:          -5.309
REMARK INTER:                  -5.158
REMARK INTRA:                  -0.152
REMARK UNBOUND:                -0.179
REMARK  Name = 1550473
REMARK  2 active torsions:
REMARK  status: ('A' for Active; 'I' for Inactive)
REMARK    1  A    between atoms: N_1  and  C_4
REMARK    2  A    between atoms: C_4  and  C_5
REMARK                            x       y       z     vdW  Elec       q    Type
REMARK                         _______ _______ _______ _____ _____    ______ ____
ROOT
ATOM      1  N   UNL     1     -13.953  -9.800 -18.990  0.00  0.00    -0.354 N 
ATOM      2  N   UNL     1     -13.230  -8.244 -17.433  0.00  0.00    -0.372 N 
ATOM      3  N   UNL     1     -12.534 -10.421 -17.231  0.00  0.00    -0.372 N 
ATOM      4  C   UNL     1     -13.243  -9.501 -17.893  0.00  0.00    +0.166 C 
ATOM      5  H   UNL     1     -14.493  -9.063 -19.429  0.00  0.00    +0.163 HD
ATOM      6  H   UNL     1     -12.701  -7.988 -16.610  0.00  0.00    +0.159 HD
ATOM      7  H   UNL     1     -13.734  -7.501 -17.900  0.00  0.00    +0.159 HD
ATOM      8  H   UNL     1     -12.507 -11.389 -17.523  0.00  0.00    +0.159 HD
ATOM      9  H   UNL     1     -12.008 -10.187 -16.398  0.00  0.00    +0.159 HD
ENDROOT
BRANCH   1  10
ATOM     10  C   UNL     1     -13.990 -11.126 -19.604  0.00  0.00    +0.151 C 
BRANCH  10  11
ATOM     11  C   UNL     1     -13.518 -11.020 -21.028  0.00  0.00    -0.028 A 
ATOM     12  C   UNL     1     -14.414 -11.212 -22.090  0.00  0.00    +0.005 A 
ATOM     13  C   UNL     1     -12.178 -10.724 -21.322  0.00  0.00    +0.005 A 
ATOM     14  C   UNL     1     -13.983 -11.085 -23.413  0.00  0.00    +0.000 A 
ATOM     15  C   UNL     1     -11.752 -10.598 -22.644  0.00  0.00    +0.000 A 
ATOM     16  C   UNL     1     -12.655 -10.777 -23.689  0.00  0.00    +0.000 A 
ENDBRANCH  10  11
ENDBRANCH   1  10
TORSDOF 2
ENDMDL
MODEL 8
REMARK VINA RESULT:    -4.522     13.326     14.563
REMARK INTER + INTRA:          -5.230
REMARK INTER:                  -5.204
REMARK INTRA:                  -0.025
REMARK UNBOUND:                -0.179
REMARK  Name = 1550473
REMARK  2 active torsions:
REMARK  status: ('A' for Active; 'I' for Inactive)
REMARK    1  A    between atoms: N_1  and  C_4
REMARK    2  A    between atoms: C_4  and  C_5
REMARK                            x       y       z     vdW  Elec       q    Type
REMARK                         _______ _______ _______ _____ _____    ______ ____
ROOT
ATOM      1  N   UNL     1      -4.253  -3.037 -10.053  0.00  0.00    -0.354 N 
ATOM      2  N   UNL     1      -4.086  -4.429 -11.896  0.00  0.00    -0.372 N 
ATOM      3  N   UNL     1      -3.810  -5.325  -9.802  0.00  0.00    -0.372 N 
ATOM      4  C   UNL     1      -4.050  -4.256 -10.569  0.00  0.00    +0.166 C 
ATOM      5  H   UNL     1      -4.399  -2.263 -10.690  0.00  0.00    +0.163 HD
ATOM      6  H   UNL     1      -3.941  -5.338 -12.315  0.00  0.00    +0.159 HD
ATOM      7  H   UNL     1      -4.279  -3.662 -12.528  0.00  0.00    +0.159 HD
ATOM      8  H   UNL     1      -3.764  -5.260  -8.793  0.00  0.00    +0.159 HD
ATOM      9  H   UNL     1      -3.650  -6.240 -10.203  0.00  0.00    +0.159 HD
ENDROOT
BRANCH   1  10
ATOM     10  C   UNL     1      -4.287  -2.752  -8.619  0.00  0.00    +0.151 C 
BRANCH  10  11
ATOM     11  C   UNL     1      -2.919  -2.316  -8.172  0.00  0.00    -0.028 A 
ATOM     12  C   UNL     1      -2.623  -2.193  -6.807  0.00  0.00    +0.005 A 
ATOM     13  C   UNL     1      -1.914  -2.030  -9.108  0.00  0.00    +0.005 A 
ATOM     14  C   UNL     1      -1.343  -1.817  -6.390  0.00  0.00    +0.000 A 
ATOM     15  C   UNL     1      -0.638  -1.655  -8.688  0.00  0.00    +0.000 A 
ATOM     16  C   UNL     1      -0.353  -1.550  -7.329  0.00  0.00    +0.000 A 
ENDBRANCH  10  11
ENDBRANCH   1  10
TORSDOF 2
ENDMDL
MODEL 9
REMARK VINA RESULT:    -4.411      2.443      3.579
REMARK INTER + INTRA:          -5.105
REMARK INTER:                  -4.927
REMARK INTRA:                  -0.179
REMARK UNBOUND:                -0.179
REMARK  Name = 1550473
REMARK  2 active torsions:
REMARK  status: ('A' for Active; 'I' for Inactive)
REMARK    1  A    between atoms: N_1  and  C_4
REMARK    2  A    between atoms: C_4  and  C_5
REMARK                            x       y       z     vdW  Elec       q    Type
REMARK                         _______ _______ _______ _____ _____    ______ ____
ROOT
ATOM      1  N   UNL     1       3.090  10.096   0.283  0.00  0.00    -0.354 N 
ATOM      2  N   UNL     1       3.823  12.291   0.202  0.00  0.00    -0.372 N 
ATOM      3  N   UNL     1       1.590  11.856  -0.095  0.00  0.00    -0.372 N 
ATOM      4  C   UNL     1       2.827  11.401   0.130  0.00  0.00    +0.166 C 
ATOM      5  H   UNL     1       4.053   9.812   0.421  0.00  0.00    +0.163 HD
ATOM      6  H   UNL     1       3.655  13.283   0.094  0.00  0.00    +0.159 HD
ATOM      7  H   UNL     1       4.778  12.009   0.386  0.00  0.00    +0.159 HD
ATOM      8  H   UNL     1       0.795  11.235  -0.167  0.00  0.00    +0.159 HD
ATOM      9  H   UNL     1       1.403  12.843  -0.218  0.00  0.00    +0.159 HD
ENDROOT
BRANCH   1  10
ATOM     10  C   UNL     1       2.070   9.049   0.276  0.00  0.00    +0.151 C 
BRANCH  10  11
ATOM     11  C   UNL     1       2.094   8.349  -1.055  0.00  0.00    -0.028 A 
ATOM     12  C   UNL     1       1.254   8.769  -2.096  0.00  0.00    +0.005 A 
ATOM     13  C   UNL     1       2.960   7.268  -1.282  0.00  0.00    +0.005 A 
ATOM     14  C   UNL     1       1.298   8.138  -3.342  0.00  0.00    +0.000 A 
ATOM     15  C   UNL     1       3.000   6.640  -2.527  0.00  0.00    +0.000 A 
ATOM     16  C   UNL     1       2.171   7.077  -3.557  0.00  0.00    +0.000 A 
ENDBRANCH  10  11
ENDBRANCH   1  10
TORSDOF 2
ENDMDL
