MODEL 1
REMARK VINA RESULT:    -6.591      0.000      0.000
REMARK INTER + INTRA:          -7.466
REMARK INTER:                  -7.361
REMARK INTRA:                  -0.105
REMARK UNBOUND:                -0.105
REMARK  Name = 1550473
REMARK  2 active torsions:
REMARK  status: ('A' for Active; 'I' for Inactive)
REMARK    1  A    between atoms: N_1  and  C_4
REMARK    2  A    between atoms: C_4  and  C_5
REMARK                            x       y       z     vdW  Elec       q    Type
REMARK                         _______ _______ _______ _____ _____    ______ ____
ROOT
ATOM      1  N   UNL     1      -3.879  -0.574   1.056  0.00  0.00    -0.354 N 
ATOM      2  N   UNL     1      -1.928  -1.718   0.554  0.00  0.00    -0.372 N 
ATOM      3  N   UNL     1      -2.176  -0.813   2.649  0.00  0.00    -0.372 N 
ATOM      4  C   UNL     1      -2.673  -1.027   1.426  0.00  0.00    +0.166 C 
ATOM      5  H   UNL     1      -4.185  -0.743   0.105  0.00  0.00    +0.163 HD
ATOM      6  H   UNL     1      -1.016  -2.075   0.806  0.00  0.00    +0.159 HD
ATOM      7  H   UNL     1      -2.257  -1.925  -0.381  0.00  0.00    +0.159 HD
ATOM      8  H   UNL     1      -2.686  -0.294   3.351  0.00  0.00    +0.159 HD
ATOM      9  H   UNL     1      -1.261  -1.152   2.915  0.00  0.00    +0.159 HD
ENDROOT
BRANCH   1  10
ATOM     10  C   UNL     1      -4.791   0.142   1.945  0.00  0.00    +0.151 C 
BRANCH  10  11
ATOM     11  C   UNL     1      -5.977   0.619   1.153  0.00  0.00    -0.028 A 
ATOM     12  C   UNL     1      -6.671  -0.262   0.311  0.00  0.00    +0.005 A 
ATOM     13  C   UNL     1      -6.415   1.949   1.243  0.00  0.00    +0.005 A 
ATOM     14  C   UNL     1      -7.791   0.172  -0.403  0.00  0.00    +0.000 A 
ATOM     15  C   UNL     1      -7.533   2.379   0.529  0.00  0.00    +0.000 A 
ATOM     16  C   UNL     1      -8.222   1.490  -0.292  0.00  0.00    +0.000 A 
ENDBRANCH  10  11
ENDBRANCH   1  10
TORSDOF 2
ENDMDL
MODEL 2
REMARK VINA RESULT:    -6.356      2.316      3.395
REMARK INTER + INTRA:          -7.204
REMARK INTER:                  -7.088
REMARK INTRA:                  -0.116
REMARK UNBOUND:                -0.105
REMARK  Name = 1550473
REMARK  2 active torsions:
REMARK  status: ('A' for Active; 'I' for Inactive)
REMARK    1  A    between atoms: N_1  and  C_4
REMARK    2  A    between atoms: C_4  and  C_5
REMARK                            x       y       z     vdW  Elec       q    Type
REMARK                         _______ _______ _______ _____ _____    ______ ____
ROOT
ATOM      1  N   UNL     1      -5.264   0.656   1.973  0.00  0.00    -0.354 N 
ATOM      2  N   UNL     1      -3.335  -0.591   2.273  0.00  0.00    -0.372 N 
ATOM      3  N   UNL     1      -5.272  -1.282   3.290  0.00  0.00    -0.372 N 
ATOM      4  C   UNL     1      -4.638  -0.399   2.512  0.00  0.00    +0.166 C 
ATOM      5  H   UNL     1      -4.720   1.306   1.417  0.00  0.00    +0.163 HD
ATOM      6  H   UNL     1      -2.837  -1.380   2.663  0.00  0.00    +0.159 HD
ATOM      7  H   UNL     1      -2.805   0.035   1.679  0.00  0.00    +0.159 HD
ATOM      8  H   UNL     1      -6.254  -1.191   3.514  0.00  0.00    +0.159 HD
ATOM      9  H   UNL     1      -4.788  -2.072   3.699  0.00  0.00    +0.159 HD
ENDROOT
BRANCH   1  10
ATOM     10  C   UNL     1      -6.692   0.926   2.128  0.00  0.00    +0.151 C 
BRANCH  10  11
ATOM     11  C   UNL     1      -6.889   2.393   2.395  0.00  0.00    -0.028 A 
ATOM     12  C   UNL     1      -6.910   2.880   3.710  0.00  0.00    +0.005 A 
ATOM     13  C   UNL     1      -7.048   3.301   1.338  0.00  0.00    +0.005 A 
ATOM     14  C   UNL     1      -7.062   4.246   3.958  0.00  0.00    +0.000 A 
ATOM     15  C   UNL     1      -7.201   4.665   1.590  0.00  0.00    +0.000 A 
ATOM     16  C   UNL     1      -7.205   5.137   2.900  0.00  0.00    +0.000 A 
ENDBRANCH  10  11
ENDBRANCH   1  10
TORSDOF 2
ENDMDL
MODEL 3
REMARK VINA RESULT:    -6.317      3.954      5.300
REMARK INTER + INTRA:          -7.161
REMARK INTER:                  -7.011
REMARK INTRA:                  -0.150
REMARK UNBOUND:                -0.105
REMARK  Name = 1550473
REMARK  2 active torsions:
REMARK  status: ('A' for Active; 'I' for Inactive)
REMARK    1  A    between atoms: N_1  and  C_4
REMARK    2  A    between atoms: C_4  and  C_5
REMARK                            x       y       z     vdW  Elec       q    Type
REMARK                         _______ _______ _______ _____ _____    ______ ____
ROOT
ATOM      1  N   UNL     1      -6.098   3.195   2.413  0.00  0.00    -0.354 N 
ATOM      2  N   UNL     1      -6.474   1.016   3.103  0.00  0.00    -0.372 N 
ATOM      3  N   UNL     1      -7.103   2.739   4.481  0.00  0.00    -0.372 N 
ATOM      4  C   UNL     1      -6.557   2.332   3.330  0.00  0.00    +0.166 C 
ATOM      5  H   UNL     1      -5.668   2.822   1.575  0.00  0.00    +0.163 HD
ATOM      6  H   UNL     1      -6.815   0.341   3.774  0.00  0.00    +0.159 HD
ATOM      7  H   UNL     1      -6.085   0.647   2.243  0.00  0.00    +0.159 HD
ATOM      8  H   UNL     1      -7.190   3.719   4.715  0.00  0.00    +0.159 HD
ATOM      9  H   UNL     1      -7.439   2.079   5.171  0.00  0.00    +0.159 HD
ENDROOT
BRANCH   1  10
ATOM     10  C   UNL     1      -6.190   4.648   2.540  0.00  0.00    +0.151 C 
BRANCH  10  11
ATOM     11  C   UNL     1      -7.391   5.133   1.776  0.00  0.00    -0.028 A 
ATOM     12  C   UNL     1      -8.091   6.273   2.198  0.00  0.00    +0.005 A 
ATOM     13  C   UNL     1      -7.832   4.460   0.627  0.00  0.00    +0.005 A 
ATOM     14  C   UNL     1      -9.188   6.742   1.472  0.00  0.00    +0.000 A 
ATOM     15  C   UNL     1      -8.929   4.930  -0.095  0.00  0.00    +0.000 A 
ATOM     16  C   UNL     1      -9.605   6.072   0.326  0.00  0.00    +0.000 A 
ENDBRANCH  10  11
ENDBRANCH   1  10
TORSDOF 2
ENDMDL
MODEL 4
REMARK VINA RESULT:    -6.250      2.823      4.057
REMARK INTER + INTRA:          -7.086
REMARK INTER:                  -6.936
REMARK INTRA:                  -0.150
REMARK UNBOUND:                -0.105
REMARK  Name = 1550473
REMARK  2 active torsions:
REMARK  status: ('A' for Active; 'I' for Inactive)
REMARK    1  A    between atoms: N_1  and  C_4
REMARK    2  A    between atoms: C_4  and  C_5
REMARK                            x       y       z     vdW  Elec       q    Type
REMARK                         _______ _______ _______ _____ _____    ______ ____
ROOT
ATOM      1  N   UNL     1      -6.872   1.004   2.946  0.00  0.00    -0.354 N 
ATOM      2  N   UNL     1      -7.751  -1.092   2.501  0.00  0.00    -0.372 N 
ATOM      3  N   UNL     1      -5.999  -0.331   1.230  0.00  0.00    -0.372 N 
ATOM      4  C   UNL     1      -6.866  -0.126   2.226  0.00  0.00    +0.166 C 
ATOM      5  H   UNL     1      -7.575   1.111   3.669  0.00  0.00    +0.163 HD
ATOM      6  H   UNL     1      -7.768  -1.957   1.978  0.00  0.00    +0.159 HD
ATOM      7  H   UNL     1      -8.422  -1.002   3.254  0.00  0.00    +0.159 HD
ATOM      8  H   UNL     1      -5.310   0.361   0.968  0.00  0.00    +0.159 HD
ATOM      9  H   UNL     1      -6.008  -1.185   0.686  0.00  0.00    +0.159 HD
ENDROOT
BRANCH   1  10
ATOM     10  C   UNL     1      -5.917   2.095   2.763  0.00  0.00    +0.151 C 
BRANCH  10  11
ATOM     11  C   UNL     1      -6.652   3.317   2.285  0.00  0.00    -0.028 A 
ATOM     12  C   UNL     1      -7.326   3.307   1.055  0.00  0.00    +0.005 A 
ATOM     13  C   UNL     1      -6.683   4.486   3.061  0.00  0.00    +0.005 A 
ATOM     14  C   UNL     1      -8.034   4.431   0.625  0.00  0.00    +0.000 A 
ATOM     15  C   UNL     1      -7.391   5.607   2.628  0.00  0.00    +0.000 A 
ATOM     16  C   UNL     1      -8.068   5.579   1.411  0.00  0.00    +0.000 A 
ENDBRANCH  10  11
ENDBRANCH   1  10
TORSDOF 2
ENDMDL
MODEL 5
REMARK VINA RESULT:    -6.102      3.535      4.820
REMARK INTER + INTRA:          -6.920
REMARK INTER:                  -6.815
REMARK INTRA:                  -0.105
REMARK UNBOUND:                -0.105
REMARK  Name = 1550473
REMARK  2 active torsions:
REMARK  status: ('A' for Active; 'I' for Inactive)
REMARK    1  A    between atoms: N_1  and  C_4
REMARK    2  A    between atoms: C_4  and  C_5
REMARK                            x       y       z     vdW  Elec       q    Type
REMARK                         _______ _______ _______ _____ _____    ______ ____
ROOT
ATOM      1  N   UNL     1      -6.823   3.105   2.821  0.00  0.00    -0.354 N 
ATOM      2  N   UNL     1      -7.071   3.781   5.022  0.00  0.00    -0.372 N 
ATOM      3  N   UNL     1      -7.381   5.319   3.348  0.00  0.00    -0.372 N 
ATOM      4  C   UNL     1      -7.090   4.066   3.715  0.00  0.00    +0.166 C 
ATOM      5  H   UNL     1      -6.581   2.182   3.165  0.00  0.00    +0.163 HD
ATOM      6  H   UNL     1      -7.272   4.486   5.720  0.00  0.00    +0.159 HD
ATOM      7  H   UNL     1      -6.874   2.848   5.361  0.00  0.00    +0.159 HD
ATOM      8  H   UNL     1      -7.406   5.600   2.377  0.00  0.00    +0.159 HD
ATOM      9  H   UNL     1      -7.573   6.041   4.031  0.00  0.00    +0.159 HD
ENDROOT
BRANCH   1  10
ATOM     10  C   UNL     1      -6.871   3.298   1.373  0.00  0.00    +0.151 C 
BRANCH  10  11
ATOM     11  C   UNL     1      -7.129   1.974   0.709  0.00  0.00    -0.028 A 
ATOM     12  C   UNL     1      -6.338   0.857   1.015  0.00  0.00    +0.005 A 
ATOM     13  C   UNL     1      -8.168   1.827  -0.223  0.00  0.00    +0.005 A 
ATOM     14  C   UNL     1      -6.596  -0.381   0.421  0.00  0.00    +0.000 A 
ATOM     15  C   UNL     1      -8.423   0.590  -0.815  0.00  0.00    +0.000 A 
ATOM     16  C   UNL     1      -7.638  -0.514  -0.490  0.00  0.00    +0.000 A 
ENDBRANCH  10  11
ENDBRANCH   1  10
TORSDOF 2
ENDMDL
MODEL 6
REMARK VINA RESULT:    -6.036      4.323      6.010
REMARK INTER + INTRA:          -6.846
REMARK INTER:                  -6.724
REMARK INTRA:                  -0.122
REMARK UNBOUND:                -0.105
REMARK  Name = 1550473
REMARK  2 active torsions:
REMARK  status: ('A' for Active; 'I' for Inactive)
REMARK    1  A    between atoms: N_1  and  C_4
REMARK    2  A    between atoms: C_4  and  C_5
REMARK                            x       y       z     vdW  Elec       q    Type
REMARK                         _______ _______ _______ _____ _____    ______ ____
ROOT
ATOM      1  N   UNL     1      -8.360   4.229   0.663  0.00  0.00    -0.354 N 
ATOM      2  N   UNL     1      -8.718   6.408   1.362  0.00  0.00    -0.372 N 
ATOM      3  N   UNL     1      -9.504   5.759  -0.694  0.00  0.00    -0.372 N 
ATOM      4  C   UNL     1      -8.860   5.451   0.437  0.00  0.00    +0.166 C 
ATOM      5  H   UNL     1      -7.856   4.067   1.527  0.00  0.00    +0.163 HD
ATOM      6  H   UNL     1      -9.087   7.338   1.221  0.00  0.00    +0.159 HD
ATOM      7  H   UNL     1      -8.253   6.231   2.244  0.00  0.00    +0.159 HD
ATOM      8  H   UNL     1      -9.640   5.084  -1.434  0.00  0.00    +0.159 HD
ATOM      9  H   UNL     1      -9.871   6.689  -0.858  0.00  0.00    +0.159 HD
ENDROOT
BRANCH   1  10
ATOM     10  C   UNL     1      -8.508   3.102  -0.257  0.00  0.00    +0.151 C 
BRANCH  10  11
ATOM     11  C   UNL     1      -7.604   1.985   0.186  0.00  0.00    -0.028 A 
ATOM     12  C   UNL     1      -7.806   0.678  -0.281  0.00  0.00    +0.005 A 
ATOM     13  C   UNL     1      -6.541   2.227   1.069  0.00  0.00    +0.005 A 
ATOM     14  C   UNL     1      -6.949  -0.355   0.107  0.00  0.00    +0.000 A 
ATOM     15  C   UNL     1      -5.688   1.193   1.455  0.00  0.00    +0.000 A 
ATOM     16  C   UNL     1      -5.891  -0.097   0.972  0.00  0.00    +0.000 A 
ENDBRANCH  10  11
ENDBRANCH   1  10
TORSDOF 2
ENDMDL
MODEL 7
REMARK VINA RESULT:    -5.513     18.990     19.798
REMARK INTER + INTRA:          -6.262
REMARK INTER:                  -6.168
REMARK INTRA:                  -0.094
REMARK UNBOUND:                -0.105
REMARK  Name = 1550473
REMARK  2 active torsions:
REMARK  status: ('A' for Active; 'I' for Inactive)
REMARK    1  A    between atoms: N_1  and  C_4
REMARK    2  A    between atoms: C_4  and  C_5
REMARK                            x       y       z     vdW  Elec       q    Type
REMARK                         _______ _______ _______ _____ _____    ______ ____
ROOT
ATOM      1  N   UNL     1       1.069  16.914  -8.846  0.00  0.00    -0.354 N 
ATOM      2  N   UNL     1      -0.073  18.689  -9.799  0.00  0.00    -0.372 N 
ATOM      3  N   UNL     1       1.607  17.682 -10.994  0.00  0.00    -0.372 N 
ATOM      4  C   UNL     1       0.877  17.749  -9.875  0.00  0.00    +0.166 C 
ATOM      5  H   UNL     1       0.502  17.036  -8.014  0.00  0.00    +0.163 HD
ATOM      6  H   UNL     1      -0.244  19.332 -10.561  0.00  0.00    +0.159 HD
ATOM      7  H   UNL     1      -0.669  18.780  -8.984  0.00  0.00    +0.159 HD
ATOM      8  H   UNL     1       2.343  16.999 -11.112  0.00  0.00    +0.159 HD
ATOM      9  H   UNL     1       1.459  18.324 -11.762  0.00  0.00    +0.159 HD
ENDROOT
BRANCH   1  10
ATOM     10  C   UNL     1       2.040  15.822  -8.850  0.00  0.00    +0.151 C 
BRANCH  10  11
ATOM     11  C   UNL     1       2.116  15.227  -7.471  0.00  0.00    -0.028 A 
ATOM     12  C   UNL     1       1.516  13.990  -7.195  0.00  0.00    +0.005 A 
ATOM     13  C   UNL     1       2.793  15.893  -6.437  0.00  0.00    +0.005 A 
ATOM     14  C   UNL     1       1.611  13.423  -5.921  0.00  0.00    +0.000 A 
ATOM     15  C   UNL     1       2.886  15.324  -5.167  0.00  0.00    +0.000 A 
ATOM     16  C   UNL     1       2.297  14.088  -4.910  0.00  0.00    +0.000 A 
ENDBRANCH  10  11
ENDBRANCH   1  10
TORSDOF 2
ENDMDL
MODEL 8
REMARK VINA RESULT:    -5.496     10.001     11.472
REMARK INTER + INTRA:          -6.243
REMARK INTER:                  -6.117
REMARK INTRA:                  -0.126
REMARK UNBOUND:                -0.105
REMARK  Name = 1550473
REMARK  2 active torsions:
REMARK  status: ('A' for Active; 'I' for Inactive)
REMARK    1  A    between atoms: N_1  and  C_4
REMARK    2  A    between atoms: C_4  and  C_5
REMARK                            x       y       z     vdW  Elec       q    Type
REMARK                         _______ _______ _______ _____ _____    ______ ____
ROOT
ATOM      1  N   UNL     1     -13.353   0.807  -5.431  0.00  0.00    -0.354 N 
ATOM      2  N   UNL     1     -12.512  -0.851  -4.049  0.00  0.00    -0.372 N 
ATOM      3  N   UNL     1     -14.521  -1.198  -5.103  0.00  0.00    -0.372 N 
ATOM      4  C   UNL     1     -13.470  -0.404  -4.870  0.00  0.00    +0.166 C 
ATOM      5  H   UNL     1     -12.547   1.373  -5.190  0.00  0.00    +0.163 HD
ATOM      6  H   UNL     1     -12.572  -1.762  -3.614  0.00  0.00    +0.159 HD
ATOM      7  H   UNL     1     -11.685  -0.302  -3.846  0.00  0.00    +0.159 HD
ATOM      8  H   UNL     1     -15.280  -0.917  -5.709  0.00  0.00    +0.159 HD
ATOM      9  H   UNL     1     -14.604  -2.108  -4.668  0.00  0.00    +0.159 HD
ENDROOT
BRANCH   1  10
ATOM     10  C   UNL     1     -14.313   1.364  -6.382  0.00  0.00    +0.151 C 
BRANCH  10  11
ATOM     11  C   UNL     1     -14.191   2.863  -6.381  0.00  0.00    -0.028 A 
ATOM     12  C   UNL     1     -15.106   3.652  -7.094  0.00  0.00    +0.005 A 
ATOM     13  C   UNL     1     -13.167   3.501  -5.665  0.00  0.00    +0.005 A 
ATOM     14  C   UNL     1     -15.011   5.046  -7.069  0.00  0.00    +0.000 A 
ATOM     15  C   UNL     1     -13.075   4.893  -5.643  0.00  0.00    +0.000 A 
ATOM     16  C   UNL     1     -13.999   5.665  -6.343  0.00  0.00    +0.000 A 
ENDBRANCH  10  11
ENDBRANCH   1  10
TORSDOF 2
ENDMDL
MODEL 9
REMARK VINA RESULT:    -5.124     18.985     19.750
REMARK INTER + INTRA:          -5.828
REMARK INTER:                  -5.678
REMARK INTRA:                  -0.149
REMARK UNBOUND:                -0.105
REMARK  Name = 1550473
REMARK  2 active torsions:
REMARK  status: ('A' for Active; 'I' for Inactive)
REMARK    1  A    between atoms: N_1  and  C_4
REMARK    2  A    between atoms: C_4  and  C_5
REMARK                            x       y       z     vdW  Elec       q    Type
REMARK                         _______ _______ _______ _____ _____    ______ ____
ROOT
ATOM      1  N   UNL     1       2.999  15.198  -5.416  0.00  0.00    -0.354 N 
ATOM      2  N   UNL     1       1.857  13.203  -5.131  0.00  0.00    -0.372 N 
ATOM      3  N   UNL     1       1.551  14.389  -7.072  0.00  0.00    -0.372 N 
ATOM      4  C   UNL     1       2.142  14.277  -5.877  0.00  0.00    +0.166 C 
ATOM      5  H   UNL     1       3.391  15.070  -4.490  0.00  0.00    +0.163 HD
ATOM      6  H   UNL     1       1.216  12.491  -5.454  0.00  0.00    +0.159 HD
ATOM      7  H   UNL     1       2.284  13.055  -4.225  0.00  0.00    +0.159 HD
ATOM      8  H   UNL     1       1.720  15.179  -7.681  0.00  0.00    +0.159 HD
ATOM      9  H   UNL     1       0.898  13.692  -7.408  0.00  0.00    +0.159 HD
ENDROOT
BRANCH   1  10
ATOM     10  C   UNL     1       3.419  16.376  -6.172  0.00  0.00    +0.151 C 
BRANCH  10  11
ATOM     11  C   UNL     1       3.047  17.613  -5.401  0.00  0.00    -0.028 A 
ATOM     12  C   UNL     1       3.014  18.864  -6.034  0.00  0.00    +0.005 A 
ATOM     13  C   UNL     1       2.721  17.539  -4.038  0.00  0.00    +0.005 A 
ATOM     14  C   UNL     1       2.640  20.008  -5.326  0.00  0.00    +0.000 A 
ATOM     15  C   UNL     1       2.349  18.684  -3.334  0.00  0.00    +0.000 A 
ATOM     16  C   UNL     1       2.306  19.918  -3.978  0.00  0.00    +0.000 A 
ENDBRANCH  10  11
ENDBRANCH   1  10
TORSDOF 2
ENDMDL
