MODEL 1
REMARK VINA RESULT:    -5.245      0.000      0.000
REMARK INTER + INTRA:          -5.983
REMARK INTER:                  -5.859
REMARK INTRA:                  -0.124
REMARK UNBOUND:                -0.124
REMARK  Name = 1550473
REMARK  2 active torsions:
REMARK  status: ('A' for Active; 'I' for Inactive)
REMARK    1  A    between atoms: N_1  and  C_4
REMARK    2  A    between atoms: C_4  and  C_5
REMARK                            x       y       z     vdW  Elec       q    Type
REMARK                         _______ _______ _______ _____ _____    ______ ____
ROOT
ATOM      1  N   UNL     1     -10.766  -4.928  -7.544  0.00  0.00    -0.354 N 
ATOM      2  N   UNL     1     -11.186  -3.019  -6.302  0.00  0.00    -0.372 N 
ATOM      3  N   UNL     1      -9.019  -3.736  -6.535  0.00  0.00    -0.372 N 
ATOM      4  C   UNL     1     -10.318  -3.907  -6.801  0.00  0.00    +0.166 C 
ATOM      5  H   UNL     1     -11.766  -5.019  -7.684  0.00  0.00    +0.163 HD
ATOM      6  H   UNL     1     -10.877  -2.236  -5.741  0.00  0.00    +0.159 HD
ATOM      7  H   UNL     1     -12.180  -3.086  -6.482  0.00  0.00    +0.159 HD
ATOM      8  H   UNL     1      -8.313  -4.374  -6.878  0.00  0.00    +0.159 HD
ATOM      9  H   UNL     1      -8.691  -2.966  -5.966  0.00  0.00    +0.159 HD
ENDROOT
BRANCH   1  10
ATOM     10  C   UNL     1      -9.899  -5.919  -8.179  0.00  0.00    +0.151 C 
BRANCH  10  11
ATOM     11  C   UNL     1     -10.153  -5.916  -9.662  0.00  0.00    -0.028 A 
ATOM     12  C   UNL     1     -10.580  -4.747 -10.308  0.00  0.00    +0.005 A 
ATOM     13  C   UNL     1      -9.963  -7.077 -10.426  0.00  0.00    +0.005 A 
ATOM     14  C   UNL     1     -10.787  -4.735 -11.690  0.00  0.00    +0.000 A 
ATOM     15  C   UNL     1     -10.172  -7.062 -11.805  0.00  0.00    +0.000 A 
ATOM     16  C   UNL     1     -10.581  -5.890 -12.437  0.00  0.00    +0.000 A 
ENDBRANCH  10  11
ENDBRANCH   1  10
TORSDOF 2
ENDMDL
MODEL 2
REMARK VINA RESULT:    -5.049     13.548     14.602
REMARK INTER + INTRA:          -5.764
REMARK INTER:                  -5.624
REMARK INTRA:                  -0.140
REMARK UNBOUND:                -0.124
REMARK  Name = 1550473
REMARK  2 active torsions:
REMARK  status: ('A' for Active; 'I' for Inactive)
REMARK    1  A    between atoms: N_1  and  C_4
REMARK    2  A    between atoms: C_4  and  C_5
REMARK                            x       y       z     vdW  Elec       q    Type
REMARK                         _______ _______ _______ _____ _____    ______ ____
ROOT
ATOM      1  N   UNL     1       2.487  -8.467 -14.165  0.00  0.00    -0.354 N 
ATOM      2  N   UNL     1       3.752  -8.458 -16.106  0.00  0.00    -0.372 N 
ATOM      3  N   UNL     1       1.950  -9.872 -15.963  0.00  0.00    -0.372 N 
ATOM      4  C   UNL     1       2.720  -8.934 -15.399  0.00  0.00    +0.166 C 
ATOM      5  H   UNL     1       3.126  -7.778 -13.784  0.00  0.00    +0.163 HD
ATOM      6  H   UNL     1       3.950  -8.789 -17.041  0.00  0.00    +0.159 HD
ATOM      7  H   UNL     1       4.361  -7.737 -15.740  0.00  0.00    +0.159 HD
ATOM      8  H   UNL     1       1.159 -10.276 -15.480  0.00  0.00    +0.159 HD
ATOM      9  H   UNL     1       2.139 -10.224 -16.893  0.00  0.00    +0.159 HD
ENDROOT
BRANCH   1  10
ATOM     10  C   UNL     1       1.359  -8.880 -13.333  0.00  0.00    +0.151 C 
BRANCH  10  11
ATOM     11  C   UNL     1       1.869  -9.280 -11.977  0.00  0.00    -0.028 A 
ATOM     12  C   UNL     1       0.995  -9.367 -10.884  0.00  0.00    +0.005 A 
ATOM     13  C   UNL     1       3.226  -9.580 -11.779  0.00  0.00    +0.005 A 
ATOM     14  C   UNL     1       1.463  -9.768  -9.630  0.00  0.00    +0.000 A 
ATOM     15  C   UNL     1       3.690  -9.979 -10.525  0.00  0.00    +0.000 A 
ATOM     16  C   UNL     1       2.807 -10.075  -9.452  0.00  0.00    +0.000 A 
ENDBRANCH  10  11
ENDBRANCH   1  10
TORSDOF 2
ENDMDL
MODEL 3
REMARK VINA RESULT:    -5.029     12.037     12.874
REMARK INTER + INTRA:          -5.741
REMARK INTER:                  -5.563
REMARK INTRA:                  -0.179
REMARK UNBOUND:                -0.124
REMARK  Name = 1550473
REMARK  2 active torsions:
REMARK  status: ('A' for Active; 'I' for Inactive)
REMARK    1  A    between atoms: N_1  and  C_4
REMARK    2  A    between atoms: C_4  and  C_5
REMARK                            x       y       z     vdW  Elec       q    Type
REMARK                         _______ _______ _______ _____ _____    ______ ____
ROOT
ATOM      1  N   UNL     1       0.463  -4.030 -15.356  0.00  0.00    -0.354 N 
ATOM      2  N   UNL     1       0.027  -2.116 -14.128  0.00  0.00    -0.372 N 
ATOM      3  N   UNL     1       2.178  -2.908 -14.219  0.00  0.00    -0.372 N 
ATOM      4  C   UNL     1       0.895  -3.031 -14.575  0.00  0.00    +0.166 C 
ATOM      5  H   UNL     1      -0.527  -4.084 -15.566  0.00  0.00    +0.163 HD
ATOM      6  H   UNL     1       0.324  -1.349 -13.539  0.00  0.00    +0.159 HD
ATOM      7  H   UNL     1      -0.955  -2.146 -14.376  0.00  0.00    +0.159 HD
ATOM      8  H   UNL     1       2.882  -3.569 -14.518  0.00  0.00    +0.159 HD
ATOM      9  H   UNL     1       2.493  -2.154 -13.621  0.00  0.00    +0.159 HD
ENDROOT
BRANCH   1  10
ATOM     10  C   UNL     1       1.336  -5.047 -15.940  0.00  0.00    +0.151 C 
BRANCH  10  11
ATOM     11  C   UNL     1       1.150  -6.340 -15.195  0.00  0.00    -0.028 A 
ATOM     12  C   UNL     1       2.115  -6.777 -14.275  0.00  0.00    +0.005 A 
ATOM     13  C   UNL     1       0.009  -7.130 -15.401  0.00  0.00    +0.005 A 
ATOM     14  C   UNL     1       1.928  -7.963 -13.561  0.00  0.00    +0.000 A 
ATOM     15  C   UNL     1      -0.174  -8.314 -14.686  0.00  0.00    +0.000 A 
ATOM     16  C   UNL     1       0.785  -8.728 -13.765  0.00  0.00    +0.000 A 
ENDBRANCH  10  11
ENDBRANCH   1  10
TORSDOF 2
ENDMDL
MODEL 4
REMARK VINA RESULT:    -4.917     22.520     23.688
REMARK INTER + INTRA:          -5.616
REMARK INTER:                  -5.478
REMARK INTRA:                  -0.137
REMARK UNBOUND:                -0.124
REMARK  Name = 1550473
REMARK  2 active torsions:
REMARK  status: ('A' for Active; 'I' for Inactive)
REMARK    1  A    between atoms: N_1  and  C_4
REMARK    2  A    between atoms: C_4  and  C_5
REMARK                            x       y       z     vdW  Elec       q    Type
REMARK                         _______ _______ _______ _____ _____    ______ ____
ROOT
ATOM      1  N   UNL     1      -4.072  -5.539  14.286  0.00  0.00    -0.354 N 
ATOM      2  N   UNL     1      -3.812  -4.677  16.420  0.00  0.00    -0.372 N 
ATOM      3  N   UNL     1      -5.621  -6.017  15.979  0.00  0.00    -0.372 N 
ATOM      4  C   UNL     1      -4.506  -5.418  15.548  0.00  0.00    +0.166 C 
ATOM      5  H   UNL     1      -3.236  -5.036  14.014  0.00  0.00    +0.163 HD
ATOM      6  H   UNL     1      -4.112  -4.569  17.379  0.00  0.00    +0.159 HD
ATOM      7  H   UNL     1      -2.951  -4.211  16.157  0.00  0.00    +0.159 HD
ATOM      8  H   UNL     1      -6.193  -6.586  15.369  0.00  0.00    +0.159 HD
ATOM      9  H   UNL     1      -5.945  -5.912  16.932  0.00  0.00    +0.159 HD
ENDROOT
BRANCH   1  10
ATOM     10  C   UNL     1      -4.725  -6.366  13.273  0.00  0.00    +0.151 C 
BRANCH  10  11
ATOM     11  C   UNL     1      -3.677  -7.133  12.514  0.00  0.00    -0.028 A 
ATOM     12  C   UNL     1      -2.319  -6.815  12.659  0.00  0.00    +0.005 A 
ATOM     13  C   UNL     1      -4.035  -8.182  11.654  0.00  0.00    +0.005 A 
ATOM     14  C   UNL     1      -1.343  -7.546  11.977  0.00  0.00    +0.000 A 
ATOM     15  C   UNL     1      -3.058  -8.909  10.975  0.00  0.00    +0.000 A 
ATOM     16  C   UNL     1      -1.712  -8.592  11.138  0.00  0.00    +0.000 A 
ENDBRANCH  10  11
ENDBRANCH   1  10
TORSDOF 2
ENDMDL
MODEL 5
REMARK VINA RESULT:    -4.886     12.518     13.524
REMARK INTER + INTRA:          -5.582
REMARK INTER:                  -5.465
REMARK INTRA:                  -0.117
REMARK UNBOUND:                -0.124
REMARK  Name = 1550473
REMARK  2 active torsions:
REMARK  status: ('A' for Active; 'I' for Inactive)
REMARK    1  A    between atoms: N_1  and  C_4
REMARK    2  A    between atoms: C_4  and  C_5
REMARK                            x       y       z     vdW  Elec       q    Type
REMARK                         _______ _______ _______ _____ _____    ______ ____
ROOT
ATOM      1  N   UNL     1       1.846  -7.157 -14.319  0.00  0.00    -0.354 N 
ATOM      2  N   UNL     1       2.153  -5.024 -15.166  0.00  0.00    -0.372 N 
ATOM      3  N   UNL     1       0.066  -5.970 -15.275  0.00  0.00    -0.372 N 
ATOM      4  C   UNL     1       1.350  -6.065 -14.915  0.00  0.00    +0.166 C 
ATOM      5  H   UNL     1       2.835  -7.179 -14.099  0.00  0.00    +0.163 HD
ATOM      6  H   UNL     1       1.807  -4.185 -15.611  0.00  0.00    +0.159 HD
ATOM      7  H   UNL     1       3.131  -5.030 -14.903  0.00  0.00    +0.159 HD
ATOM      8  H   UNL     1      -0.591  -6.723 -15.119  0.00  0.00    +0.159 HD
ATOM      9  H   UNL     1      -0.297  -5.143 -15.732  0.00  0.00    +0.159 HD
ENDROOT
BRANCH   1  10
ATOM     10  C   UNL     1       1.045  -8.324 -13.953  0.00  0.00    +0.151 C 
BRANCH  10  11
ATOM     11  C   UNL     1       1.495  -8.827 -12.609  0.00  0.00    -0.028 A 
ATOM     12  C   UNL     1       2.861  -8.961 -12.320  0.00  0.00    +0.005 A 
ATOM     13  C   UNL     1       0.560  -9.166 -11.619  0.00  0.00    +0.005 A 
ATOM     14  C   UNL     1       3.280  -9.399 -11.062  0.00  0.00    +0.000 A 
ATOM     15  C   UNL     1       0.983  -9.604 -10.364  0.00  0.00    +0.000 A 
ATOM     16  C   UNL     1       2.343  -9.719 -10.085  0.00  0.00    +0.000 A 
ENDBRANCH  10  11
ENDBRANCH   1  10
TORSDOF 2
ENDMDL
MODEL 6
REMARK VINA RESULT:    -4.724     12.003     12.627
REMARK INTER + INTRA:          -5.401
REMARK INTER:                  -5.258
REMARK INTRA:                  -0.143
REMARK UNBOUND:                -0.124
REMARK  Name = 1550473
REMARK  2 active torsions:
REMARK  status: ('A' for Active; 'I' for Inactive)
REMARK    1  A    between atoms: N_1  and  C_4
REMARK    2  A    between atoms: C_4  and  C_5
REMARK                            x       y       z     vdW  Elec       q    Type
REMARK                         _______ _______ _______ _____ _____    ______ ____
ROOT
ATOM      1  N   UNL     1      -0.058  -1.606 -13.098  0.00  0.00    -0.354 N 
ATOM      2  N   UNL     1       0.477  -1.216 -10.879  0.00  0.00    -0.372 N 
ATOM      3  N   UNL     1       0.922   0.415 -12.430  0.00  0.00    -0.372 N 
ATOM      4  C   UNL     1       0.445  -0.802 -12.152  0.00  0.00    +0.166 C 
ATOM      5  H   UNL     1      -0.376  -2.529 -12.827  0.00  0.00    +0.163 HD
ATOM      6  H   UNL     1       0.848  -0.631 -10.142  0.00  0.00    +0.159 HD
ATOM      7  H   UNL     1       0.117  -2.122 -10.604  0.00  0.00    +0.159 HD
ATOM      8  H   UNL     1       0.931   0.784 -13.371  0.00  0.00    +0.159 HD
ATOM      9  H   UNL     1       1.307   1.012 -11.708  0.00  0.00    +0.159 HD
ENDROOT
BRANCH   1  10
ATOM     10  C   UNL     1      -0.189  -1.230 -14.505  0.00  0.00    +0.151 C 
BRANCH  10  11
ATOM     11  C   UNL     1       0.362  -2.335 -15.362  0.00  0.00    -0.028 A 
ATOM     12  C   UNL     1       0.815  -3.529 -14.781  0.00  0.00    +0.005 A 
ATOM     13  C   UNL     1       0.429  -2.198 -16.758  0.00  0.00    +0.005 A 
ATOM     14  C   UNL     1       1.299  -4.568 -15.580  0.00  0.00    +0.000 A 
ATOM     15  C   UNL     1       0.914  -3.238 -17.551  0.00  0.00    +0.000 A 
ATOM     16  C   UNL     1       1.346  -4.423 -16.962  0.00  0.00    +0.000 A 
ENDBRANCH  10  11
ENDBRANCH   1  10
TORSDOF 2
ENDMDL
MODEL 7
REMARK VINA RESULT:    -4.721     12.629     13.536
REMARK INTER + INTRA:          -5.397
REMARK INTER:                  -5.248
REMARK INTRA:                  -0.148
REMARK UNBOUND:                -0.124
REMARK  Name = 1550473
REMARK  2 active torsions:
REMARK  status: ('A' for Active; 'I' for Inactive)
REMARK    1  A    between atoms: N_1  and  C_4
REMARK    2  A    between atoms: C_4  and  C_5
REMARK                            x       y       z     vdW  Elec       q    Type
REMARK                         _______ _______ _______ _____ _____    ______ ____
ROOT
ATOM      1  N   UNL     1       0.889  -6.150 -14.813  0.00  0.00    -0.354 N 
ATOM      2  N   UNL     1       0.406  -3.891 -14.973  0.00  0.00    -0.372 N 
ATOM      3  N   UNL     1       2.539  -4.604 -15.426  0.00  0.00    -0.372 N 
ATOM      4  C   UNL     1       1.284  -4.896 -15.070  0.00  0.00    +0.166 C 
ATOM      5  H   UNL     1      -0.069  -6.302 -14.519  0.00  0.00    +0.163 HD
ATOM      6  H   UNL     1       0.674  -2.935 -15.164  0.00  0.00    +0.159 HD
ATOM      7  H   UNL     1      -0.562  -4.051 -14.723  0.00  0.00    +0.159 HD
ATOM      8  H   UNL     1       3.252  -5.316 -15.512  0.00  0.00    +0.159 HD
ATOM      9  H   UNL     1       2.830  -3.652 -15.610  0.00  0.00    +0.159 HD
ENDROOT
BRANCH   1  10
ATOM     10  C   UNL     1       1.753  -7.323 -14.943  0.00  0.00    +0.151 C 
BRANCH  10  11
ATOM     11  C   UNL     1       1.899  -7.976 -13.596  0.00  0.00    -0.028 A 
ATOM     12  C   UNL     1       0.861  -8.755 -13.066  0.00  0.00    +0.005 A 
ATOM     13  C   UNL     1       3.077  -7.823 -12.847  0.00  0.00    +0.005 A 
ATOM     14  C   UNL     1       1.008  -9.387 -11.828  0.00  0.00    +0.000 A 
ATOM     15  C   UNL     1       3.219  -8.455 -11.612  0.00  0.00    +0.000 A 
ATOM     16  C   UNL     1       2.186  -9.238 -11.104  0.00  0.00    +0.000 A 
ENDBRANCH  10  11
ENDBRANCH   1  10
TORSDOF 2
ENDMDL
MODEL 8
REMARK VINA RESULT:    -4.671     12.983     13.759
REMARK INTER + INTRA:          -5.341
REMARK INTER:                  -5.243
REMARK INTRA:                  -0.098
REMARK UNBOUND:                -0.124
REMARK  Name = 1550473
REMARK  2 active torsions:
REMARK  status: ('A' for Active; 'I' for Inactive)
REMARK    1  A    between atoms: N_1  and  C_4
REMARK    2  A    between atoms: C_4  and  C_5
REMARK                            x       y       z     vdW  Elec       q    Type
REMARK                         _______ _______ _______ _____ _____    ______ ____
ROOT
ATOM      1  N   UNL     1       2.631  -3.784 -14.054  0.00  0.00    -0.354 N 
ATOM      2  N   UNL     1       3.095  -1.882 -12.816  0.00  0.00    -0.372 N 
ATOM      3  N   UNL     1       4.765  -2.815 -14.084  0.00  0.00    -0.372 N 
ATOM      4  C   UNL     1       3.496  -2.840 -13.661  0.00  0.00    +0.166 C 
ATOM      5  H   UNL     1       1.692  -3.764 -13.674  0.00  0.00    +0.163 HD
ATOM      6  H   UNL     1       3.725  -1.155 -12.504  0.00  0.00    +0.159 HD
ATOM      7  H   UNL     1       2.143  -1.839 -12.473  0.00  0.00    +0.159 HD
ATOM      8  H   UNL     1       5.131  -3.513 -14.717  0.00  0.00    +0.159 HD
ATOM      9  H   UNL     1       5.413  -2.102 -13.774  0.00  0.00    +0.159 HD
ENDROOT
BRANCH   1  10
ATOM     10  C   UNL     1       2.952  -4.839 -15.013  0.00  0.00    +0.151 C 
BRANCH  10  11
ATOM     11  C   UNL     1       2.037  -6.010 -14.780  0.00  0.00    -0.028 A 
ATOM     12  C   UNL     1       2.401  -7.032 -13.891  0.00  0.00    +0.005 A 
ATOM     13  C   UNL     1       0.803  -6.100 -15.441  0.00  0.00    +0.005 A 
ATOM     14  C   UNL     1       1.538  -8.104 -13.652  0.00  0.00    +0.000 A 
ATOM     15  C   UNL     1      -0.056  -7.172 -15.200  0.00  0.00    +0.000 A 
ATOM     16  C   UNL     1       0.311  -8.173 -14.303  0.00  0.00    +0.000 A 
ENDBRANCH  10  11
ENDBRANCH   1  10
TORSDOF 2
ENDMDL
MODEL 9
REMARK VINA RESULT:    -4.567     14.548     15.518
REMARK INTER + INTRA:          -5.225
REMARK INTER:                  -5.075
REMARK INTRA:                  -0.149
REMARK UNBOUND:                -0.124
REMARK  Name = 1550473
REMARK  2 active torsions:
REMARK  status: ('A' for Active; 'I' for Inactive)
REMARK    1  A    between atoms: N_1  and  C_4
REMARK    2  A    between atoms: C_4  and  C_5
REMARK                            x       y       z     vdW  Elec       q    Type
REMARK                         _______ _______ _______ _____ _____    ______ ____
ROOT
ATOM      1  N   UNL     1       5.523  -9.552 -11.738  0.00  0.00    -0.354 N 
ATOM      2  N   UNL     1       7.141 -11.201 -11.903  0.00  0.00    -0.372 N 
ATOM      3  N   UNL     1       6.094 -10.479 -13.813  0.00  0.00    -0.372 N 
ATOM      4  C   UNL     1       6.241 -10.400 -12.486  0.00  0.00    +0.166 C 
ATOM      5  H   UNL     1       5.660  -9.562 -10.734  0.00  0.00    +0.163 HD
ATOM      6  H   UNL     1       7.700 -11.849 -12.442  0.00  0.00    +0.159 HD
ATOM      7  H   UNL     1       7.308 -11.176 -10.904  0.00  0.00    +0.159 HD
ATOM      8  H   UNL     1       5.428  -9.906 -14.313  0.00  0.00    +0.159 HD
ATOM      9  H   UNL     1       6.636 -11.129 -14.368  0.00  0.00    +0.159 HD
ENDROOT
BRANCH   1  10
ATOM     10  C   UNL     1       4.556  -8.600 -12.281  0.00  0.00    +0.151 C 
BRANCH  10  11
ATOM     11  C   UNL     1       3.187  -8.938 -11.760  0.00  0.00    -0.028 A 
ATOM     12  C   UNL     1       3.032  -9.537 -10.501  0.00  0.00    +0.005 A 
ATOM     13  C   UNL     1       2.039  -8.657 -12.517  0.00  0.00    +0.005 A 
ATOM     14  C   UNL     1       1.759  -9.824 -10.003  0.00  0.00    +0.000 A 
ATOM     15  C   UNL     1       0.770  -8.946 -12.017  0.00  0.00    +0.000 A 
ATOM     16  C   UNL     1       0.630  -9.527 -10.759  0.00  0.00    +0.000 A 
ENDBRANCH  10  11
ENDBRANCH   1  10
TORSDOF 2
ENDMDL
