MODEL 1
REMARK VINA RESULT:    -6.530      0.000      0.000
REMARK INTER + INTRA:          -7.462
REMARK INTER:                  -7.293
REMARK INTRA:                  -0.168
REMARK UNBOUND:                -0.168
REMARK  Name = 1550473
REMARK  2 active torsions:
REMARK  status: ('A' for Active; 'I' for Inactive)
REMARK    1  A    between atoms: N_1  and  C_4
REMARK    2  A    between atoms: C_4  and  C_5
REMARK                            x       y       z     vdW  Elec       q    Type
REMARK                         _______ _______ _______ _____ _____    ______ ____
ROOT
ATOM      1  N   UNL     1      19.471   1.895  -3.206  0.00  0.00    -0.354 N 
ATOM      2  N   UNL     1      21.161   2.723  -4.557  0.00  0.00    -0.372 N 
ATOM      3  N   UNL     1      21.682   2.016  -2.437  0.00  0.00    -0.372 N 
ATOM      4  C   UNL     1      20.762   2.206  -3.388  0.00  0.00    +0.166 C 
ATOM      5  H   UNL     1      18.818   2.091  -3.955  0.00  0.00    +0.163 HD
ATOM      6  H   UNL     1      22.128   2.963  -4.725  0.00  0.00    +0.159 HD
ATOM      7  H   UNL     1      20.514   2.875  -5.321  0.00  0.00    +0.159 HD
ATOM      8  H   UNL     1      21.444   1.635  -1.531  0.00  0.00    +0.159 HD
ATOM      9  H   UNL     1      22.653   2.262  -2.582  0.00  0.00    +0.159 HD
ENDROOT
BRANCH   1  10
ATOM     10  C   UNL     1      18.943   1.278  -1.990  0.00  0.00    +0.151 C 
BRANCH  10  11
ATOM     11  C   UNL     1      18.512  -0.129  -2.302  0.00  0.00    -0.028 A 
ATOM     12  C   UNL     1      17.196  -0.398  -2.704  0.00  0.00    +0.005 A 
ATOM     13  C   UNL     1      19.417  -1.197  -2.202  0.00  0.00    +0.005 A 
ATOM     14  C   UNL     1      16.803  -1.700  -3.022  0.00  0.00    +0.000 A 
ATOM     15  C   UNL     1      19.021  -2.496  -2.520  0.00  0.00    +0.000 A 
ATOM     16  C   UNL     1      17.715  -2.747  -2.932  0.00  0.00    +0.000 A 
ENDBRANCH  10  11
ENDBRANCH   1  10
TORSDOF 2
ENDMDL
MODEL 2
REMARK VINA RESULT:    -6.380     26.520     27.998
REMARK INTER + INTRA:          -7.294
REMARK INTER:                  -7.142
REMARK INTRA:                  -0.152
REMARK UNBOUND:                -0.168
REMARK  Name = 1550473
REMARK  2 active torsions:
REMARK  status: ('A' for Active; 'I' for Inactive)
REMARK    1  A    between atoms: N_1  and  C_4
REMARK    2  A    between atoms: C_4  and  C_5
REMARK                            x       y       z     vdW  Elec       q    Type
REMARK                         _______ _______ _______ _____ _____    ______ ____
ROOT
ATOM      1  N   UNL     1      -6.951  -7.402  -8.475  0.00  0.00    -0.354 N 
ATOM      2  N   UNL     1      -8.682  -7.360  -6.936  0.00  0.00    -0.372 N 
ATOM      3  N   UNL     1      -8.844  -8.756  -8.750  0.00  0.00    -0.372 N 
ATOM      4  C   UNL     1      -8.148  -7.841  -8.066  0.00  0.00    +0.166 C 
ATOM      5  H   UNL     1      -6.488  -6.685  -7.927  0.00  0.00    +0.163 HD
ATOM      6  H   UNL     1      -9.582  -7.675  -6.601  0.00  0.00    +0.159 HD
ATOM      7  H   UNL     1      -8.197  -6.677  -6.367  0.00  0.00    +0.159 HD
ATOM      8  H   UNL     1      -8.499  -9.154  -9.614  0.00  0.00    +0.159 HD
ATOM      9  H   UNL     1      -9.752  -9.075  -8.437  0.00  0.00    +0.159 HD
ENDROOT
BRANCH   1  10
ATOM     10  C   UNL     1      -6.258  -7.901  -9.662  0.00  0.00    +0.151 C 
BRANCH  10  11
ATOM     11  C   UNL     1      -5.960  -6.746 -10.578  0.00  0.00    -0.028 A 
ATOM     12  C   UNL     1      -7.001  -5.976 -11.115  0.00  0.00    +0.005 A 
ATOM     13  C   UNL     1      -4.637  -6.414 -10.908  0.00  0.00    +0.005 A 
ATOM     14  C   UNL     1      -6.723  -4.885 -11.942  0.00  0.00    +0.000 A 
ATOM     15  C   UNL     1      -4.364  -5.325 -11.735  0.00  0.00    +0.000 A 
ATOM     16  C   UNL     1      -5.407  -4.559 -12.250  0.00  0.00    +0.000 A 
ENDBRANCH  10  11
ENDBRANCH   1  10
TORSDOF 2
ENDMDL
MODEL 3
REMARK VINA RESULT:    -6.211     24.106     25.966
REMARK INTER + INTRA:          -7.106
REMARK INTER:                  -7.008
REMARK INTRA:                  -0.098
REMARK UNBOUND:                -0.168
REMARK  Name = 1550473
REMARK  2 active torsions:
REMARK  status: ('A' for Active; 'I' for Inactive)
REMARK    1  A    between atoms: N_1  and  C_4
REMARK    2  A    between atoms: C_4  and  C_5
REMARK                            x       y       z     vdW  Elec       q    Type
REMARK                         _______ _______ _______ _____ _____    ______ ____
ROOT
ATOM      1  N   UNL     1      -3.375  -7.339  -9.085  0.00  0.00    -0.354 N 
ATOM      2  N   UNL     1      -1.814  -7.511  -7.383  0.00  0.00    -0.372 N 
ATOM      3  N   UNL     1      -2.657  -9.432  -8.312  0.00  0.00    -0.372 N 
ATOM      4  C   UNL     1      -2.626  -8.096  -8.272  0.00  0.00    +0.166 C 
ATOM      5  H   UNL     1      -3.328  -6.332  -8.984  0.00  0.00    +0.163 HD
ATOM      6  H   UNL     1      -1.235  -8.055  -6.758  0.00  0.00    +0.159 HD
ATOM      7  H   UNL     1      -1.736  -6.503  -7.315  0.00  0.00    +0.159 HD
ATOM      8  H   UNL     1      -3.253  -9.934  -8.957  0.00  0.00    +0.159 HD
ATOM      9  H   UNL     1      -2.093  -9.994  -7.687  0.00  0.00    +0.159 HD
ENDROOT
BRANCH   1  10
ATOM     10  C   UNL     1      -4.251  -7.877 -10.125  0.00  0.00    +0.151 C 
BRANCH  10  11
ATOM     11  C   UNL     1      -5.009  -6.745 -10.762  0.00  0.00    -0.028 A 
ATOM     12  C   UNL     1      -4.326  -5.721 -11.435  0.00  0.00    +0.005 A 
ATOM     13  C   UNL     1      -6.410  -6.693 -10.701  0.00  0.00    +0.005 A 
ATOM     14  C   UNL     1      -5.031  -4.685 -12.053  0.00  0.00    +0.000 A 
ATOM     15  C   UNL     1      -7.110  -5.657 -11.319  0.00  0.00    +0.000 A 
ATOM     16  C   UNL     1      -6.420  -4.655 -11.997  0.00  0.00    +0.000 A 
ENDBRANCH  10  11
ENDBRANCH   1  10
TORSDOF 2
ENDMDL
MODEL 4
REMARK VINA RESULT:    -5.843      1.189      2.060
REMARK INTER + INTRA:          -6.695
REMARK INTER:                  -6.556
REMARK INTRA:                  -0.139
REMARK UNBOUND:                -0.168
REMARK  Name = 1550473
REMARK  2 active torsions:
REMARK  status: ('A' for Active; 'I' for Inactive)
REMARK    1  A    between atoms: N_1  and  C_4
REMARK    2  A    between atoms: C_4  and  C_5
REMARK                            x       y       z     vdW  Elec       q    Type
REMARK                         _______ _______ _______ _____ _____    ______ ____
ROOT
ATOM      1  N   UNL     1      21.054   1.984  -2.966  0.00  0.00    -0.354 N 
ATOM      2  N   UNL     1      23.285   2.528  -2.665  0.00  0.00    -0.372 N 
ATOM      3  N   UNL     1      21.717   3.470  -1.279  0.00  0.00    -0.372 N 
ATOM      4  C   UNL     1      22.003   2.659  -2.303  0.00  0.00    +0.166 C 
ATOM      5  H   UNL     1      21.332   1.409  -3.752  0.00  0.00    +0.163 HD
ATOM      6  H   UNL     1      24.023   3.022  -2.181  0.00  0.00    +0.159 HD
ATOM      7  H   UNL     1      23.565   1.917  -3.422  0.00  0.00    +0.159 HD
ATOM      8  H   UNL     1      20.768   3.617  -0.961  0.00  0.00    +0.159 HD
ATOM      9  H   UNL     1      22.441   3.982  -0.791  0.00  0.00    +0.159 HD
ENDROOT
BRANCH   1  10
ATOM     10  C   UNL     1      19.634   2.016  -2.618  0.00  0.00    +0.151 C 
BRANCH  10  11
ATOM     11  C   UNL     1      19.091   0.614  -2.644  0.00  0.00    -0.028 A 
ATOM     12  C   UNL     1      19.956  -0.487  -2.549  0.00  0.00    +0.005 A 
ATOM     13  C   UNL     1      17.712   0.379  -2.757  0.00  0.00    +0.005 A 
ATOM     14  C   UNL     1      19.449  -1.789  -2.543  0.00  0.00    +0.000 A 
ATOM     15  C   UNL     1      17.211  -0.923  -2.751  0.00  0.00    +0.000 A 
ATOM     16  C   UNL     1      18.079  -2.006  -2.642  0.00  0.00    +0.000 A 
ENDBRANCH  10  11
ENDBRANCH   1  10
TORSDOF 2
ENDMDL
MODEL 5
REMARK VINA RESULT:    -5.509      1.650      2.418
REMARK INTER + INTRA:          -6.322
REMARK INTER:                  -6.202
REMARK INTRA:                  -0.120
REMARK UNBOUND:                -0.168
REMARK  Name = 1550473
REMARK  2 active torsions:
REMARK  status: ('A' for Active; 'I' for Inactive)
REMARK    1  A    between atoms: N_1  and  C_4
REMARK    2  A    between atoms: C_4  and  C_5
REMARK                            x       y       z     vdW  Elec       q    Type
REMARK                         _______ _______ _______ _____ _____    ______ ____
ROOT
ATOM      1  N   UNL     1      21.968   2.299  -3.923  0.00  0.00    -0.354 N 
ATOM      2  N   UNL     1      24.133   2.033  -4.702  0.00  0.00    -0.372 N 
ATOM      3  N   UNL     1      23.810   2.744  -2.544  0.00  0.00    -0.372 N 
ATOM      4  C   UNL     1      23.290   2.362  -3.715  0.00  0.00    +0.166 C 
ATOM      5  H   UNL     1      21.637   2.031  -4.843  0.00  0.00    +0.163 HD
ATOM      6  H   UNL     1      25.135   2.067  -4.573  0.00  0.00    +0.159 HD
ATOM      7  H   UNL     1      23.799   1.721  -5.606  0.00  0.00    +0.159 HD
ATOM      8  H   UNL     1      23.228   3.010  -1.761  0.00  0.00    +0.159 HD
ATOM      9  H   UNL     1      24.810   2.795  -2.400  0.00  0.00    +0.159 HD
ENDROOT
BRANCH   1  10
ATOM     10  C   UNL     1      20.965   2.584  -2.899  0.00  0.00    +0.151 C 
BRANCH  10  11
ATOM     11  C   UNL     1      20.132   1.353  -2.671  0.00  0.00    -0.028 A 
ATOM     12  C   UNL     1      18.889   1.443  -2.027  0.00  0.00    +0.005 A 
ATOM     13  C   UNL     1      20.577   0.094  -3.102  0.00  0.00    +0.005 A 
ATOM     14  C   UNL     1      18.101   0.304  -1.843  0.00  0.00    +0.000 A 
ATOM     15  C   UNL     1      19.788  -1.041  -2.914  0.00  0.00    +0.000 A 
ATOM     16  C   UNL     1      18.550  -0.935  -2.287  0.00  0.00    +0.000 A 
ENDBRANCH  10  11
ENDBRANCH   1  10
TORSDOF 2
ENDMDL
MODEL 6
REMARK VINA RESULT:    -5.465     26.675     28.302
REMARK INTER + INTRA:          -6.273
REMARK INTER:                  -6.244
REMARK INTRA:                  -0.029
REMARK UNBOUND:                -0.168
REMARK  Name = 1550473
REMARK  2 active torsions:
REMARK  status: ('A' for Active; 'I' for Inactive)
REMARK    1  A    between atoms: N_1  and  C_4
REMARK    2  A    between atoms: C_4  and  C_5
REMARK                            x       y       z     vdW  Elec       q    Type
REMARK                         _______ _______ _______ _____ _____    ______ ____
ROOT
ATOM      1  N   UNL     1      -8.813  -5.800 -11.639  0.00  0.00    -0.354 N 
ATOM      2  N   UNL     1      -9.866  -3.740 -11.748  0.00  0.00    -0.372 N 
ATOM      3  N   UNL     1      -9.354  -4.616  -9.690  0.00  0.00    -0.372 N 
ATOM      4  C   UNL     1      -9.337  -4.733 -11.022  0.00  0.00    +0.166 C 
ATOM      5  H   UNL     1      -8.859  -5.842 -12.651  0.00  0.00    +0.163 HD
ATOM      6  H   UNL     1     -10.265  -2.921 -11.311  0.00  0.00    +0.159 HD
ATOM      7  H   UNL     1      -9.868  -3.764 -12.761  0.00  0.00    +0.159 HD
ATOM      8  H   UNL     1      -8.976  -5.333  -9.086  0.00  0.00    +0.159 HD
ATOM      9  H   UNL     1      -9.760  -3.809  -9.234  0.00  0.00    +0.159 HD
ENDROOT
BRANCH   1  10
ATOM     10  C   UNL     1      -8.165  -6.910 -10.943  0.00  0.00    +0.151 C 
BRANCH  10  11
ATOM     11  C   UNL     1      -6.688  -6.640 -10.854  0.00  0.00    -0.028 A 
ATOM     12  C   UNL     1      -5.874  -7.406 -10.008  0.00  0.00    +0.005 A 
ATOM     13  C   UNL     1      -6.097  -5.622 -11.619  0.00  0.00    +0.005 A 
ATOM     14  C   UNL     1      -4.497  -7.174  -9.948  0.00  0.00    +0.000 A 
ATOM     15  C   UNL     1      -4.722  -5.394 -11.555  0.00  0.00    +0.000 A 
ATOM     16  C   UNL     1      -3.923  -6.172 -10.722  0.00  0.00    +0.000 A 
ENDBRANCH  10  11
ENDBRANCH   1  10
TORSDOF 2
ENDMDL
MODEL 7
REMARK VINA RESULT:    -5.128      2.929      5.965
REMARK INTER + INTRA:          -5.896
REMARK INTER:                  -5.723
REMARK INTRA:                  -0.173
REMARK UNBOUND:                -0.168
REMARK  Name = 1550473
REMARK  2 active torsions:
REMARK  status: ('A' for Active; 'I' for Inactive)
REMARK    1  A    between atoms: N_1  and  C_4
REMARK    2  A    between atoms: C_4  and  C_5
REMARK                            x       y       z     vdW  Elec       q    Type
REMARK                         _______ _______ _______ _____ _____    ______ ____
ROOT
ATOM      1  N   UNL     1      19.816   1.770  -3.632  0.00  0.00    -0.354 N 
ATOM      2  N   UNL     1      17.514   1.893  -3.856  0.00  0.00    -0.372 N 
ATOM      3  N   UNL     1      18.442   2.163  -1.775  0.00  0.00    -0.372 N 
ATOM      4  C   UNL     1      18.606   1.941  -3.083  0.00  0.00    +0.166 C 
ATOM      5  H   UNL     1      19.871   1.576  -4.625  0.00  0.00    +0.163 HD
ATOM      6  H   UNL     1      16.588   2.022  -3.471  0.00  0.00    +0.159 HD
ATOM      7  H   UNL     1      17.575   1.745  -4.856  0.00  0.00    +0.159 HD
ATOM      8  H   UNL     1      19.225   2.205  -1.136  0.00  0.00    +0.159 HD
ATOM      9  H   UNL     1      17.522   2.282  -1.369  0.00  0.00    +0.159 HD
ENDROOT
BRANCH   1  10
ATOM     10  C   UNL     1      21.071   1.858  -2.887  0.00  0.00    +0.151 C 
BRANCH  10  11
ATOM     11  C   UNL     1      21.695   3.204  -3.133  0.00  0.00    -0.028 A 
ATOM     12  C   UNL     1      22.160   3.979  -2.061  0.00  0.00    +0.005 A 
ATOM     13  C   UNL     1      21.830   3.707  -4.437  0.00  0.00    +0.005 A 
ATOM     14  C   UNL     1      22.767   5.216  -2.291  0.00  0.00    +0.000 A 
ATOM     15  C   UNL     1      22.436   4.942  -4.662  0.00  0.00    +0.000 A 
ATOM     16  C   UNL     1      22.907   5.696  -3.589  0.00  0.00    +0.000 A 
ENDBRANCH  10  11
ENDBRANCH   1  10
TORSDOF 2
ENDMDL
MODEL 8
REMARK VINA RESULT:    -4.881     26.915     28.039
REMARK INTER + INTRA:          -5.620
REMARK INTER:                  -5.471
REMARK INTRA:                  -0.149
REMARK UNBOUND:                -0.168
REMARK  Name = 1550473
REMARK  2 active torsions:
REMARK  status: ('A' for Active; 'I' for Inactive)
REMARK    1  A    between atoms: N_1  and  C_4
REMARK    2  A    between atoms: C_4  and  C_5
REMARK                            x       y       z     vdW  Elec       q    Type
REMARK                         _______ _______ _______ _____ _____    ______ ____
ROOT
ATOM      1  N   UNL     1       2.249  17.911  10.615  0.00  0.00    -0.354 N 
ATOM      2  N   UNL     1       3.312  18.382   8.611  0.00  0.00    -0.372 N 
ATOM      3  N   UNL     1       3.458  19.898  10.327  0.00  0.00    -0.372 N 
ATOM      4  C   UNL     1       3.000  18.730   9.865  0.00  0.00    +0.166 C 
ATOM      5  H   UNL     1       1.908  17.053  10.196  0.00  0.00    +0.163 HD
ATOM      6  H   UNL     1       3.879  18.977   8.023  0.00  0.00    +0.159 HD
ATOM      7  H   UNL     1       3.008  17.503   8.211  0.00  0.00    +0.159 HD
ATOM      8  H   UNL     1       3.253  20.222  11.263  0.00  0.00    +0.159 HD
ATOM      9  H   UNL     1       4.017  20.514   9.750  0.00  0.00    +0.159 HD
ENDROOT
BRANCH   1  10
ATOM     10  C   UNL     1       1.898  18.172  12.010  0.00  0.00    +0.151 C 
BRANCH  10  11
ATOM     11  C   UNL     1       2.460  17.074  12.871  0.00  0.00    -0.028 A 
ATOM     12  C   UNL     1       2.783  15.828  12.314  0.00  0.00    +0.005 A 
ATOM     13  C   UNL     1       2.676  17.276  14.242  0.00  0.00    +0.005 A 
ATOM     14  C   UNL     1       3.332  14.818  13.108  0.00  0.00    +0.000 A 
ATOM     15  C   UNL     1       3.224  16.264  15.031  0.00  0.00    +0.000 A 
ATOM     16  C   UNL     1       3.554  15.036  14.463  0.00  0.00    +0.000 A 
ENDBRANCH  10  11
ENDBRANCH   1  10
TORSDOF 2
ENDMDL
MODEL 9
REMARK VINA RESULT:    -4.738     35.546     36.234
REMARK INTER + INTRA:          -5.460
REMARK INTER:                  -5.365
REMARK INTRA:                  -0.095
REMARK UNBOUND:                -0.168
REMARK  Name = 1550473
REMARK  2 active torsions:
REMARK  status: ('A' for Active; 'I' for Inactive)
REMARK    1  A    between atoms: N_1  and  C_4
REMARK    2  A    between atoms: C_4  and  C_5
REMARK                            x       y       z     vdW  Elec       q    Type
REMARK                         _______ _______ _______ _____ _____    ______ ____
ROOT
ATOM      1  N   UNL     1       8.957 -12.560  28.356  0.00  0.00    -0.354 N 
ATOM      2  N   UNL     1       9.669 -10.600  27.349  0.00  0.00    -0.372 N 
ATOM      3  N   UNL     1      10.175 -10.959  29.558  0.00  0.00    -0.372 N 
ATOM      4  C   UNL     1       9.597 -11.385  28.430  0.00  0.00    +0.166 C 
ATOM      5  H   UNL     1       8.514 -12.812  27.480  0.00  0.00    +0.163 HD
ATOM      6  H   UNL     1      10.147  -9.709  27.374  0.00  0.00    +0.159 HD
ATOM      7  H   UNL     1       9.264 -10.875  26.463  0.00  0.00    +0.159 HD
ATOM      8  H   UNL     1      10.152 -11.502  30.411  0.00  0.00    +0.159 HD
ATOM      9  H   UNL     1      10.649 -10.066  29.606  0.00  0.00    +0.159 HD
ENDROOT
BRANCH   1  10
ATOM     10  C   UNL     1       8.868 -13.514  29.461  0.00  0.00    +0.151 C 
BRANCH  10  11
ATOM     11  C   UNL     1       7.917 -14.616  29.083  0.00  0.00    -0.028 A 
ATOM     12  C   UNL     1       6.684 -14.747  29.738  0.00  0.00    +0.005 A 
ATOM     13  C   UNL     1       8.240 -15.527  28.066  0.00  0.00    +0.005 A 
ATOM     14  C   UNL     1       5.787 -15.752  29.367  0.00  0.00    +0.000 A 
ATOM     15  C   UNL     1       7.342 -16.530  27.699  0.00  0.00    +0.000 A 
ATOM     16  C   UNL     1       6.115 -16.640  28.348  0.00  0.00    +0.000 A 
ENDBRANCH  10  11
ENDBRANCH   1  10
TORSDOF 2
ENDMDL
