MODEL 1
REMARK VINA RESULT:    -5.530      0.000      0.000
REMARK INTER + INTRA:          -6.330
REMARK INTER:                  -6.177
REMARK INTRA:                  -0.153
REMARK UNBOUND:                -0.153
REMARK  Name = 1550473
REMARK  2 active torsions:
REMARK  status: ('A' for Active; 'I' for Inactive)
REMARK    1  A    between atoms: N_1  and  C_4
REMARK    2  A    between atoms: C_4  and  C_5
REMARK                            x       y       z     vdW  Elec       q    Type
REMARK                         _______ _______ _______ _____ _____    ______ ____
ROOT
ATOM      1  N   UNL     1       6.598   3.601 -15.237  0.00  0.00    -0.354 N 
ATOM      2  N   UNL     1       4.372   3.231 -14.716  0.00  0.00    -0.372 N 
ATOM      3  N   UNL     1       4.886   4.369 -16.641  0.00  0.00    -0.372 N 
ATOM      4  C   UNL     1       5.299   3.738 -15.537  0.00  0.00    +0.166 C 
ATOM      5  H   UNL     1       6.845   3.139 -14.370  0.00  0.00    +0.163 HD
ATOM      6  H   UNL     1       3.385   3.316 -14.918  0.00  0.00    +0.159 HD
ATOM      7  H   UNL     1       4.623   2.729 -13.873  0.00  0.00    +0.159 HD
ATOM      8  H   UNL     1       5.535   4.779 -17.299  0.00  0.00    +0.159 HD
ATOM      9  H   UNL     1       3.902   4.475 -16.854  0.00  0.00    +0.159 HD
ENDROOT
BRANCH   1  10
ATOM     10  C   UNL     1       7.688   4.070 -16.091  0.00  0.00    +0.151 C 
BRANCH  10  11
ATOM     11  C   UNL     1       8.498   5.089 -15.339  0.00  0.00    -0.028 A 
ATOM     12  C   UNL     1       7.905   6.278 -14.888  0.00  0.00    +0.005 A 
ATOM     13  C   UNL     1       9.857   4.871 -15.069  0.00  0.00    +0.005 A 
ATOM     14  C   UNL     1       8.649   7.212 -14.164  0.00  0.00    +0.000 A 
ATOM     15  C   UNL     1      10.597   5.806 -14.346  0.00  0.00    +0.000 A 
ATOM     16  C   UNL     1       9.992   6.975 -13.891  0.00  0.00    +0.000 A 
ENDBRANCH  10  11
ENDBRANCH   1  10
TORSDOF 2
ENDMDL
MODEL 2
REMARK VINA RESULT:    -5.054     15.484     16.987
REMARK INTER + INTRA:          -5.799
REMARK INTER:                  -5.690
REMARK INTRA:                  -0.108
REMARK UNBOUND:                -0.153
REMARK  Name = 1550473
REMARK  2 active torsions:
REMARK  status: ('A' for Active; 'I' for Inactive)
REMARK    1  A    between atoms: N_1  and  C_4
REMARK    2  A    between atoms: C_4  and  C_5
REMARK                            x       y       z     vdW  Elec       q    Type
REMARK                         _______ _______ _______ _____ _____    ______ ____
ROOT
ATOM      1  N   UNL     1      11.417  13.708   0.064  0.00  0.00    -0.354 N 
ATOM      2  N   UNL     1      13.279  13.383   1.403  0.00  0.00    -0.372 N 
ATOM      3  N   UNL     1      11.353  12.232   1.882  0.00  0.00    -0.372 N 
ATOM      4  C   UNL     1      12.002  13.108   1.109  0.00  0.00    +0.166 C 
ATOM      5  H   UNL     1      11.955  14.385  -0.465  0.00  0.00    +0.163 HD
ATOM      6  H   UNL     1      13.748  12.943   2.183  0.00  0.00    +0.159 HD
ATOM      7  H   UNL     1      13.827  14.026   0.845  0.00  0.00    +0.159 HD
ATOM      8  H   UNL     1      10.386  11.985   1.717  0.00  0.00    +0.159 HD
ATOM      9  H   UNL     1      11.801  11.790   2.675  0.00  0.00    +0.159 HD
ENDROOT
BRANCH   1  10
ATOM     10  C   UNL     1      10.049  13.438  -0.374  0.00  0.00    +0.151 C 
BRANCH  10  11
ATOM     11  C   UNL     1       9.949  13.679  -1.855  0.00  0.00    -0.028 A 
ATOM     12  C   UNL     1      10.449  14.862  -2.418  0.00  0.00    +0.005 A 
ATOM     13  C   UNL     1       9.362  12.726  -2.700  0.00  0.00    +0.005 A 
ATOM     14  C   UNL     1      10.384  15.073  -3.798  0.00  0.00    +0.000 A 
ATOM     15  C   UNL     1       9.298  12.941  -4.077  0.00  0.00    +0.000 A 
ATOM     16  C   UNL     1       9.812  14.113  -4.626  0.00  0.00    +0.000 A 
ENDBRANCH  10  11
ENDBRANCH   1  10
TORSDOF 2
ENDMDL
MODEL 3
REMARK VINA RESULT:    -4.877      4.561      5.560
REMARK INTER + INTRA:          -5.600
REMARK INTER:                  -5.426
REMARK INTRA:                  -0.174
REMARK UNBOUND:                -0.153
REMARK  Name = 1550473
REMARK  2 active torsions:
REMARK  status: ('A' for Active; 'I' for Inactive)
REMARK    1  A    between atoms: N_1  and  C_4
REMARK    2  A    between atoms: C_4  and  C_5
REMARK                            x       y       z     vdW  Elec       q    Type
REMARK                         _______ _______ _______ _____ _____    ______ ____
ROOT
ATOM      1  N   UNL     1      10.922   5.067 -19.432  0.00  0.00    -0.354 N 
ATOM      2  N   UNL     1      12.538   3.767 -20.462  0.00  0.00    -0.372 N 
ATOM      3  N   UNL     1      13.119   5.845 -19.680  0.00  0.00    -0.372 N 
ATOM      4  C   UNL     1      12.184   4.904 -19.851  0.00  0.00    +0.166 C 
ATOM      5  H   UNL     1      10.253   4.329 -19.619  0.00  0.00    +0.163 HD
ATOM      6  H   UNL     1      13.484   3.614 -20.786  0.00  0.00    +0.159 HD
ATOM      7  H   UNL     1      11.879   3.012 -20.607  0.00  0.00    +0.159 HD
ATOM      8  H   UNL     1      12.915   6.727 -19.231  0.00  0.00    +0.159 HD
ATOM      9  H   UNL     1      14.068   5.714 -20.007  0.00  0.00    +0.159 HD
ENDROOT
BRANCH   1  10
ATOM     10  C   UNL     1      10.447   6.245 -18.707  0.00  0.00    +0.151 C 
BRANCH  10  11
ATOM     11  C   UNL     1      10.523   5.976 -17.230  0.00  0.00    -0.028 A 
ATOM     12  C   UNL     1       9.591   5.130 -16.611  0.00  0.00    +0.005 A 
ATOM     13  C   UNL     1      11.528   6.561 -16.443  0.00  0.00    +0.005 A 
ATOM     14  C   UNL     1       9.679   4.856 -15.244  0.00  0.00    +0.000 A 
ATOM     15  C   UNL     1      11.612   6.285 -15.078  0.00  0.00    +0.000 A 
ATOM     16  C   UNL     1      10.689   5.431 -14.480  0.00  0.00    +0.000 A 
ENDBRANCH  10  11
ENDBRANCH   1  10
TORSDOF 2
ENDMDL
MODEL 4
REMARK VINA RESULT:    -4.784      3.086      4.064
REMARK INTER + INTRA:          -5.497
REMARK INTER:                  -5.314
REMARK INTRA:                  -0.184
REMARK UNBOUND:                -0.153
REMARK  Name = 1550473
REMARK  2 active torsions:
REMARK  status: ('A' for Active; 'I' for Inactive)
REMARK    1  A    between atoms: N_1  and  C_4
REMARK    2  A    between atoms: C_4  and  C_5
REMARK                            x       y       z     vdW  Elec       q    Type
REMARK                         _______ _______ _______ _____ _____    ______ ____
ROOT
ATOM      1  N   UNL     1      10.701   5.804 -16.500  0.00  0.00    -0.354 N 
ATOM      2  N   UNL     1       9.404   4.322 -17.719  0.00  0.00    -0.372 N 
ATOM      3  N   UNL     1       9.651   3.984 -15.463  0.00  0.00    -0.372 N 
ATOM      4  C   UNL     1       9.927   4.712 -16.550  0.00  0.00    +0.166 C 
ATOM      5  H   UNL     1      10.897   6.295 -17.365  0.00  0.00    +0.163 HD
ATOM      6  H   UNL     1       8.814   3.504 -17.787  0.00  0.00    +0.159 HD
ATOM      7  H   UNL     1       9.564   4.841 -18.574  0.00  0.00    +0.159 HD
ATOM      8  H   UNL     1      10.019   4.221 -14.552  0.00  0.00    +0.159 HD
ATOM      9  H   UNL     1       9.071   3.155 -15.513  0.00  0.00    +0.159 HD
ENDROOT
BRANCH   1  10
ATOM     10  C   UNL     1      11.275   6.344 -15.269  0.00  0.00    +0.151 C 
BRANCH  10  11
ATOM     11  C   UNL     1      10.407   7.468 -14.774  0.00  0.00    -0.028 A 
ATOM     12  C   UNL     1      10.262   8.641 -15.529  0.00  0.00    +0.005 A 
ATOM     13  C   UNL     1       9.722   7.363 -13.554  0.00  0.00    +0.005 A 
ATOM     14  C   UNL     1       9.432   9.673 -15.084  0.00  0.00    +0.000 A 
ATOM     15  C   UNL     1       8.895   8.396 -13.112  0.00  0.00    +0.000 A 
ATOM     16  C   UNL     1       8.748   9.550 -13.879  0.00  0.00    +0.000 A 
ENDBRANCH  10  11
ENDBRANCH   1  10
TORSDOF 2
ENDMDL
MODEL 5
REMARK VINA RESULT:    -4.723     22.130     23.620
REMARK INTER + INTRA:          -5.429
REMARK INTER:                  -5.294
REMARK INTRA:                  -0.135
REMARK UNBOUND:                -0.153
REMARK  Name = 1550473
REMARK  2 active torsions:
REMARK  status: ('A' for Active; 'I' for Inactive)
REMARK    1  A    between atoms: N_1  and  C_4
REMARK    2  A    between atoms: C_4  and  C_5
REMARK                            x       y       z     vdW  Elec       q    Type
REMARK                         _______ _______ _______ _____ _____    ______ ____
ROOT
ATOM      1  N   UNL     1       0.046 -14.155  -6.499  0.00  0.00    -0.354 N 
ATOM      2  N   UNL     1      -1.681 -14.794  -7.904  0.00  0.00    -0.372 N 
ATOM      3  N   UNL     1      -2.098 -13.236  -6.272  0.00  0.00    -0.372 N 
ATOM      4  C   UNL     1      -1.234 -14.056  -6.881  0.00  0.00    +0.166 C 
ATOM      5  H   UNL     1       0.642 -14.818  -6.982  0.00  0.00    +0.163 HD
ATOM      6  H   UNL     1      -2.641 -14.738  -8.216  0.00  0.00    +0.159 HD
ATOM      7  H   UNL     1      -1.072 -15.422  -8.414  0.00  0.00    +0.159 HD
ATOM      8  H   UNL     1      -1.825 -12.656  -5.489  0.00  0.00    +0.159 HD
ATOM      9  H   UNL     1      -3.065 -13.174  -6.563  0.00  0.00    +0.159 HD
ENDROOT
BRANCH   1  10
ATOM     10  C   UNL     1       0.645 -13.356  -5.432  0.00  0.00    +0.151 C 
BRANCH  10  11
ATOM     11  C   UNL     1       0.516 -14.098  -4.130  0.00  0.00    -0.028 A 
ATOM     12  C   UNL     1       1.315 -15.221  -3.868  0.00  0.00    +0.005 A 
ATOM     13  C   UNL     1      -0.401 -13.681  -3.153  0.00  0.00    +0.005 A 
ATOM     14  C   UNL     1       1.216 -15.892  -2.647  0.00  0.00    +0.000 A 
ATOM     15  C   UNL     1      -0.497 -14.355  -1.935  0.00  0.00    +0.000 A 
ATOM     16  C   UNL     1       0.313 -15.459  -1.682  0.00  0.00    +0.000 A 
ENDBRANCH  10  11
ENDBRANCH   1  10
TORSDOF 2
ENDMDL
MODEL 6
REMARK VINA RESULT:    -4.642      1.761      2.180
REMARK INTER + INTRA:          -5.338
REMARK INTER:                  -5.232
REMARK INTRA:                  -0.106
REMARK UNBOUND:                -0.153
REMARK  Name = 1550473
REMARK  2 active torsions:
REMARK  status: ('A' for Active; 'I' for Inactive)
REMARK    1  A    between atoms: N_1  and  C_4
REMARK    2  A    between atoms: C_4  and  C_5
REMARK                            x       y       z     vdW  Elec       q    Type
REMARK                         _______ _______ _______ _____ _____    ______ ____
ROOT
ATOM      1  N   UNL     1       7.281   5.191 -15.573  0.00  0.00    -0.354 N 
ATOM      2  N   UNL     1       5.319   5.223 -14.342  0.00  0.00    -0.372 N 
ATOM      3  N   UNL     1       5.765   3.406 -15.671  0.00  0.00    -0.372 N 
ATOM      4  C   UNL     1       6.134   4.604 -15.205  0.00  0.00    +0.166 C 
ATOM      5  H   UNL     1       7.489   6.113 -15.207  0.00  0.00    +0.163 HD
ATOM      6  H   UNL     1       4.449   4.803 -14.043  0.00  0.00    +0.159 HD
ATOM      7  H   UNL     1       5.552   6.124 -13.942  0.00  0.00    +0.159 HD
ATOM      8  H   UNL     1       6.332   2.890 -16.330  0.00  0.00    +0.159 HD
ATOM      9  H   UNL     1       4.892   2.975 -15.393  0.00  0.00    +0.159 HD
ENDROOT
BRANCH   1  10
ATOM     10  C   UNL     1       8.263   4.578 -16.465  0.00  0.00    +0.151 C 
BRANCH  10  11
ATOM     11  C   UNL     1       9.598   5.237 -16.253  0.00  0.00    -0.028 A 
ATOM     12  C   UNL     1      10.197   5.979 -17.281  0.00  0.00    +0.005 A 
ATOM     13  C   UNL     1      10.266   5.127 -15.024  0.00  0.00    +0.005 A 
ATOM     14  C   UNL     1      11.423   6.616 -17.075  0.00  0.00    +0.000 A 
ATOM     15  C   UNL     1      11.490   5.765 -14.822  0.00  0.00    +0.000 A 
ATOM     16  C   UNL     1      12.067   6.511 -15.847  0.00  0.00    +0.000 A 
ENDBRANCH  10  11
ENDBRANCH   1  10
TORSDOF 2
ENDMDL
MODEL 7
REMARK VINA RESULT:    -4.598     22.866     24.442
REMARK INTER + INTRA:          -5.289
REMARK INTER:                  -5.194
REMARK INTRA:                  -0.095
REMARK UNBOUND:                -0.153
REMARK  Name = 1550473
REMARK  2 active torsions:
REMARK  status: ('A' for Active; 'I' for Inactive)
REMARK    1  A    between atoms: N_1  and  C_4
REMARK    2  A    between atoms: C_4  and  C_5
REMARK                            x       y       z     vdW  Elec       q    Type
REMARK                         _______ _______ _______ _____ _____    ______ ____
ROOT
ATOM      1  N   UNL     1       0.580 -15.607  -2.921  0.00  0.00    -0.354 N 
ATOM      2  N   UNL     1       2.053 -17.369  -3.218  0.00  0.00    -0.372 N 
ATOM      3  N   UNL     1       1.407 -16.811  -1.089  0.00  0.00    -0.372 N 
ATOM      4  C   UNL     1       1.337 -16.584  -2.405  0.00  0.00    +0.166 C 
ATOM      5  H   UNL     1       0.594 -15.467  -3.925  0.00  0.00    +0.163 HD
ATOM      6  H   UNL     1       2.631 -18.117  -2.858  0.00  0.00    +0.159 HD
ATOM      7  H   UNL     1       2.030 -17.256  -4.225  0.00  0.00    +0.159 HD
ATOM      8  H   UNL     1       0.895 -16.250  -0.421  0.00  0.00    +0.159 HD
ATOM      9  H   UNL     1       1.988 -17.547  -0.708  0.00  0.00    +0.159 HD
ENDROOT
BRANCH   1  10
ATOM     10  C   UNL     1      -0.279 -14.731  -2.127  0.00  0.00    +0.151 C 
BRANCH  10  11
ATOM     11  C   UNL     1      -0.920 -13.717  -3.033  0.00  0.00    -0.028 A 
ATOM     12  C   UNL     1      -1.880 -14.111  -3.976  0.00  0.00    +0.005 A 
ATOM     13  C   UNL     1      -0.575 -12.359  -2.951  0.00  0.00    +0.005 A 
ATOM     14  C   UNL     1      -2.497 -13.165  -4.798  0.00  0.00    +0.000 A 
ATOM     15  C   UNL     1      -1.193 -11.417  -3.774  0.00  0.00    +0.000 A 
ATOM     16  C   UNL     1      -2.156 -11.820  -4.695  0.00  0.00    +0.000 A 
ENDBRANCH  10  11
ENDBRANCH   1  10
TORSDOF 2
ENDMDL
MODEL 8
REMARK VINA RESULT:    -4.508     16.737     18.927
REMARK INTER + INTRA:          -5.189
REMARK INTER:                  -5.049
REMARK INTRA:                  -0.140
REMARK UNBOUND:                -0.153
REMARK  Name = 1550473
REMARK  2 active torsions:
REMARK  status: ('A' for Active; 'I' for Inactive)
REMARK    1  A    between atoms: N_1  and  C_4
REMARK    2  A    between atoms: C_4  and  C_5
REMARK                            x       y       z     vdW  Elec       q    Type
REMARK                         _______ _______ _______ _____ _____    ______ ____
ROOT
ATOM      1  N   UNL     1      -7.656  -0.976 -21.416  0.00  0.00    -0.354 N 
ATOM      2  N   UNL     1      -6.214  -2.653 -22.104  0.00  0.00    -0.372 N 
ATOM      3  N   UNL     1      -5.556  -1.250 -20.412  0.00  0.00    -0.372 N 
ATOM      4  C   UNL     1      -6.483  -1.614 -21.304  0.00  0.00    +0.166 C 
ATOM      5  H   UNL     1      -8.304  -1.281 -22.133  0.00  0.00    +0.163 HD
ATOM      6  H   UNL     1      -5.340  -3.156 -22.041  0.00  0.00    +0.159 HD
ATOM      7  H   UNL     1      -6.883  -2.985 -22.789  0.00  0.00    +0.159 HD
ATOM      8  H   UNL     1      -5.695  -0.470 -19.783  0.00  0.00    +0.159 HD
ATOM      9  H   UNL     1      -4.670  -1.734 -20.341  0.00  0.00    +0.159 HD
ENDROOT
BRANCH   1  10
ATOM     10  C   UNL     1      -8.068   0.133 -20.557  0.00  0.00    +0.151 C 
BRANCH  10  11
ATOM     11  C   UNL     1      -9.474  -0.110 -20.082  0.00  0.00    -0.028 A 
ATOM     12  C   UNL     1     -10.252  -1.128 -20.653  0.00  0.00    +0.005 A 
ATOM     13  C   UNL     1     -10.032   0.670 -19.058  0.00  0.00    +0.005 A 
ATOM     14  C   UNL     1     -11.548  -1.374 -20.192  0.00  0.00    +0.000 A 
ATOM     15  C   UNL     1     -11.327   0.422 -18.601  0.00  0.00    +0.000 A 
ATOM     16  C   UNL     1     -12.083  -0.602 -19.166  0.00  0.00    +0.000 A 
ENDBRANCH  10  11
ENDBRANCH   1  10
TORSDOF 2
ENDMDL
MODEL 9
REMARK VINA RESULT:    -4.420     17.394     18.698
REMARK INTER + INTRA:          -5.090
REMARK INTER:                  -4.935
REMARK INTRA:                  -0.155
REMARK UNBOUND:                -0.153
REMARK  Name = 1550473
REMARK  2 active torsions:
REMARK  status: ('A' for Active; 'I' for Inactive)
REMARK    1  A    between atoms: N_1  and  C_4
REMARK    2  A    between atoms: C_4  and  C_5
REMARK                            x       y       z     vdW  Elec       q    Type
REMARK                         _______ _______ _______ _____ _____    ______ ____
ROOT
ATOM      1  N   UNL     1       8.745  14.197  -0.606  0.00  0.00    -0.354 N 
ATOM      2  N   UNL     1      10.929  14.936  -0.396  0.00  0.00    -0.372 N 
ATOM      3  N   UNL     1      10.356  12.903   0.500  0.00  0.00    -0.372 N 
ATOM      4  C   UNL     1       9.996  14.005  -0.167  0.00  0.00    +0.166 C 
ATOM      5  H   UNL     1       8.528  15.067  -1.079  0.00  0.00    +0.163 HD
ATOM      6  H   UNL     1      11.882  14.818  -0.080  0.00  0.00    +0.159 HD
ATOM      7  H   UNL     1      10.721  15.784  -0.909  0.00  0.00    +0.159 HD
ATOM      8  H   UNL     1       9.697  12.165   0.710  0.00  0.00    +0.159 HD
ATOM      9  H   UNL     1      11.302  12.772   0.835  0.00  0.00    +0.159 HD
ENDROOT
BRANCH   1  10
ATOM     10  C   UNL     1       7.667  13.221  -0.455  0.00  0.00    +0.151 C 
BRANCH  10  11
ATOM     11  C   UNL     1       6.652  13.755   0.518  0.00  0.00    -0.028 A 
ATOM     12  C   UNL     1       6.502  15.137   0.703  0.00  0.00    +0.005 A 
ATOM     13  C   UNL     1       5.834  12.884   1.254  0.00  0.00    +0.005 A 
ATOM     14  C   UNL     1       5.540  15.634   1.585  0.00  0.00    +0.000 A 
ATOM     15  C   UNL     1       4.875  13.384   2.134  0.00  0.00    +0.000 A 
ATOM     16  C   UNL     1       4.727  14.760   2.298  0.00  0.00    +0.000 A 
ENDBRANCH  10  11
ENDBRANCH   1  10
TORSDOF 2
ENDMDL
