MODEL 1
REMARK VINA RESULT:    -5.518      0.000      0.000
REMARK INTER + INTRA:          -6.202
REMARK INTER:                  -6.163
REMARK INTRA:                  -0.039
REMARK UNBOUND:                -0.039
REMARK  Name = 1550473
REMARK  2 active torsions:
REMARK  status: ('A' for Active; 'I' for Inactive)
REMARK    1  A    between atoms: N_1  and  C_4
REMARK    2  A    between atoms: C_4  and  C_5
REMARK                            x       y       z     vdW  Elec       q    Type
REMARK                         _______ _______ _______ _____ _____    ______ ____
ROOT
ATOM      1  N   UNL     1      -7.701   1.089  -0.022  0.00  0.00    -0.354 N 
ATOM      2  N   UNL     1      -6.917   2.691  -1.499  0.00  0.00    -0.372 N 
ATOM      3  N   UNL     1      -5.649   0.817  -1.120  0.00  0.00    -0.372 N 
ATOM      4  C   UNL     1      -6.759   1.520  -0.871  0.00  0.00    +0.166 C 
ATOM      5  H   UNL     1      -8.505   1.682   0.147  0.00  0.00    +0.163 HD
ATOM      6  H   UNL     1      -6.225   3.041  -2.148  0.00  0.00    +0.159 HD
ATOM      7  H   UNL     1      -7.744   3.261  -1.363  0.00  0.00    +0.159 HD
ATOM      8  H   UNL     1      -5.466  -0.072  -0.674  0.00  0.00    +0.159 HD
ATOM      9  H   UNL     1      -4.939   1.156  -1.757  0.00  0.00    +0.159 HD
ENDROOT
BRANCH   1  10
ATOM     10  C   UNL     1      -7.650  -0.197   0.672  0.00  0.00    +0.151 C 
BRANCH  10  11
ATOM     11  C   UNL     1      -7.280   0.035   2.110  0.00  0.00    -0.028 A 
ATOM     12  C   UNL     1      -6.734   1.262   2.516  0.00  0.00    +0.005 A 
ATOM     13  C   UNL     1      -7.477  -0.965   3.074  0.00  0.00    +0.005 A 
ATOM     14  C   UNL     1      -6.418   1.489   3.858  0.00  0.00    +0.000 A 
ATOM     15  C   UNL     1      -7.160  -0.735   4.413  0.00  0.00    +0.000 A 
ATOM     16  C   UNL     1      -6.632   0.493   4.804  0.00  0.00    +0.000 A 
ENDBRANCH  10  11
ENDBRANCH   1  10
TORSDOF 2
ENDMDL
MODEL 2
REMARK VINA RESULT:    -4.992     19.773     20.564
REMARK INTER + INTRA:          -5.614
REMARK INTER:                  -5.496
REMARK INTRA:                  -0.119
REMARK UNBOUND:                -0.039
REMARK  Name = 1550473
REMARK  2 active torsions:
REMARK  status: ('A' for Active; 'I' for Inactive)
REMARK    1  A    between atoms: N_1  and  C_4
REMARK    2  A    between atoms: C_4  and  C_5
REMARK                            x       y       z     vdW  Elec       q    Type
REMARK                         _______ _______ _______ _____ _____    ______ ____
ROOT
ATOM      1  N   UNL     1       9.182  -5.416 -10.065  0.00  0.00    -0.354 N 
ATOM      2  N   UNL     1       8.993  -6.097 -12.271  0.00  0.00    -0.372 N 
ATOM      3  N   UNL     1       7.143  -5.253 -11.209  0.00  0.00    -0.372 N 
ATOM      4  C   UNL     1       8.438  -5.583 -11.166  0.00  0.00    +0.166 C 
ATOM      5  H   UNL     1      10.150  -5.714 -10.088  0.00  0.00    +0.163 HD
ATOM      6  H   UNL     1       8.458  -6.232 -13.118  0.00  0.00    +0.159 HD
ATOM      7  H   UNL     1       9.973  -6.352 -12.305  0.00  0.00    +0.159 HD
ATOM      8  H   UNL     1       6.663  -4.866 -10.407  0.00  0.00    +0.159 HD
ATOM      9  H   UNL     1       6.587  -5.391 -12.044  0.00  0.00    +0.159 HD
ENDROOT
BRANCH   1  10
ATOM     10  C   UNL     1       8.687  -4.815  -8.828  0.00  0.00    +0.151 C 
BRANCH  10  11
ATOM     11  C   UNL     1       9.798  -4.033  -8.183  0.00  0.00    -0.028 A 
ATOM     12  C   UNL     1      10.380  -2.944  -8.847  0.00  0.00    +0.005 A 
ATOM     13  C   UNL     1      10.268  -4.372  -6.905  0.00  0.00    +0.005 A 
ATOM     14  C   UNL     1      11.391  -2.198  -8.236  0.00  0.00    +0.000 A 
ATOM     15  C   UNL     1      11.278  -3.626  -6.299  0.00  0.00    +0.000 A 
ATOM     16  C   UNL     1      11.838  -2.538  -6.963  0.00  0.00    +0.000 A 
ENDBRANCH  10  11
ENDBRANCH   1  10
TORSDOF 2
ENDMDL
MODEL 3
REMARK VINA RESULT:    -4.732     16.726     17.762
REMARK INTER + INTRA:          -5.325
REMARK INTER:                  -5.206
REMARK INTRA:                  -0.119
REMARK UNBOUND:                -0.039
REMARK  Name = 1550473
REMARK  2 active torsions:
REMARK  status: ('A' for Active; 'I' for Inactive)
REMARK    1  A    between atoms: N_1  and  C_4
REMARK    2  A    between atoms: C_4  and  C_5
REMARK                            x       y       z     vdW  Elec       q    Type
REMARK                         _______ _______ _______ _____ _____    ______ ____
ROOT
ATOM      1  N   UNL     1      -1.533 -14.402   0.919  0.00  0.00    -0.354 N 
ATOM      2  N   UNL     1      -2.065 -12.334   0.023  0.00  0.00    -0.372 N 
ATOM      3  N   UNL     1      -0.805 -12.422   1.938  0.00  0.00    -0.372 N 
ATOM      4  C   UNL     1      -1.463 -13.065   0.968  0.00  0.00    +0.166 C 
ATOM      5  H   UNL     1      -2.073 -14.829   0.175  0.00  0.00    +0.163 HD
ATOM      6  H   UNL     1      -2.027 -11.324   0.031  0.00  0.00    +0.159 HD
ATOM      7  H   UNL     1      -2.565 -12.764  -0.746  0.00  0.00    +0.159 HD
ATOM      8  H   UNL     1      -0.334 -12.915   2.685  0.00  0.00    +0.159 HD
ATOM      9  H   UNL     1      -0.765 -11.411   1.971  0.00  0.00    +0.159 HD
ENDROOT
BRANCH   1  10
ATOM     10  C   UNL     1      -0.868 -15.292   1.869  0.00  0.00    +0.151 C 
BRANCH  10  11
ATOM     11  C   UNL     1       0.276 -15.981   1.179  0.00  0.00    -0.028 A 
ATOM     12  C   UNL     1       1.157 -16.797   1.903  0.00  0.00    +0.005 A 
ATOM     13  C   UNL     1       0.481 -15.827  -0.201  0.00  0.00    +0.005 A 
ATOM     14  C   UNL     1       2.202 -17.462   1.256  0.00  0.00    +0.000 A 
ATOM     15  C   UNL     1       1.526 -16.492  -0.843  0.00  0.00    +0.000 A 
ATOM     16  C   UNL     1       2.384 -17.311  -0.114  0.00  0.00    +0.000 A 
ENDBRANCH  10  11
ENDBRANCH   1  10
TORSDOF 2
ENDMDL
MODEL 4
REMARK VINA RESULT:    -4.670     21.754     22.565
REMARK INTER + INTRA:          -5.255
REMARK INTER:                  -5.103
REMARK INTRA:                  -0.152
REMARK UNBOUND:                -0.039
REMARK  Name = 1550473
REMARK  2 active torsions:
REMARK  status: ('A' for Active; 'I' for Inactive)
REMARK    1  A    between atoms: N_1  and  C_4
REMARK    2  A    between atoms: C_4  and  C_5
REMARK                            x       y       z     vdW  Elec       q    Type
REMARK                         _______ _______ _______ _____ _____    ______ ____
ROOT
ATOM      1  N   UNL     1      16.571   2.006   4.377  0.00  0.00    -0.354 N 
ATOM      2  N   UNL     1      16.711   4.316   4.460  0.00  0.00    -0.372 N 
ATOM      3  N   UNL     1      16.190   3.167   6.376  0.00  0.00    -0.372 N 
ATOM      4  C   UNL     1      16.489   3.147   5.073  0.00  0.00    +0.166 C 
ATOM      5  H   UNL     1      16.772   2.061   3.385  0.00  0.00    +0.163 HD
ATOM      6  H   UNL     1      16.660   5.193   4.961  0.00  0.00    +0.159 HD
ATOM      7  H   UNL     1      16.957   4.365   3.479  0.00  0.00    +0.159 HD
ATOM      8  H   UNL     1      16.005   2.319   6.896  0.00  0.00    +0.159 HD
ATOM      9  H   UNL     1      16.122   4.035   6.892  0.00  0.00    +0.159 HD
ENDROOT
BRANCH   1  10
ATOM     10  C   UNL     1      16.400   0.677   4.961  0.00  0.00    +0.151 C 
BRANCH  10  11
ATOM     11  C   UNL     1      15.183   0.029   4.360  0.00  0.00    -0.028 A 
ATOM     12  C   UNL     1      14.017  -0.141   5.121  0.00  0.00    +0.005 A 
ATOM     13  C   UNL     1      15.188  -0.412   3.027  0.00  0.00    +0.005 A 
ATOM     14  C   UNL     1      12.877  -0.716   4.554  0.00  0.00    +0.000 A 
ATOM     15  C   UNL     1      14.047  -0.986   2.465  0.00  0.00    +0.000 A 
ATOM     16  C   UNL     1      12.892  -1.135   3.228  0.00  0.00    +0.000 A 
ENDBRANCH  10  11
ENDBRANCH   1  10
TORSDOF 2
ENDMDL
MODEL 5
REMARK VINA RESULT:    -4.634     17.871     18.501
REMARK INTER + INTRA:          -5.215
REMARK INTER:                  -5.088
REMARK INTRA:                  -0.127
REMARK UNBOUND:                -0.039
REMARK  Name = 1550473
REMARK  2 active torsions:
REMARK  status: ('A' for Active; 'I' for Inactive)
REMARK    1  A    between atoms: N_1  and  C_4
REMARK    2  A    between atoms: C_4  and  C_5
REMARK                            x       y       z     vdW  Elec       q    Type
REMARK                         _______ _______ _______ _____ _____    ______ ____
ROOT
ATOM      1  N   UNL     1       5.334 -12.116  -5.796  0.00  0.00    -0.354 N 
ATOM      2  N   UNL     1       3.659 -13.396  -6.757  0.00  0.00    -0.372 N 
ATOM      3  N   UNL     1       3.907 -11.213  -7.421  0.00  0.00    -0.372 N 
ATOM      4  C   UNL     1       4.310 -12.231  -6.653  0.00  0.00    +0.166 C 
ATOM      5  H   UNL     1       5.571 -12.916  -5.220  0.00  0.00    +0.163 HD
ATOM      6  H   UNL     1       2.886 -13.513  -7.398  0.00  0.00    +0.159 HD
ATOM      7  H   UNL     1       3.928 -14.207  -6.213  0.00  0.00    +0.159 HD
ATOM      8  H   UNL     1       4.353 -10.306  -7.386  0.00  0.00    +0.159 HD
ATOM      9  H   UNL     1       3.127 -11.308  -8.060  0.00  0.00    +0.159 HD
ENDROOT
BRANCH   1  10
ATOM     10  C   UNL     1       6.142 -10.908  -5.645  0.00  0.00    +0.151 C 
BRANCH  10  11
ATOM     11  C   UNL     1       6.389 -10.661  -4.182  0.00  0.00    -0.028 A 
ATOM     12  C   UNL     1       6.484  -9.352  -3.688  0.00  0.00    +0.005 A 
ATOM     13  C   UNL     1       6.521 -11.731  -3.285  0.00  0.00    +0.005 A 
ATOM     14  C   UNL     1       6.683  -9.121  -2.324  0.00  0.00    +0.000 A 
ATOM     15  C   UNL     1       6.721 -11.497  -1.924  0.00  0.00    +0.000 A 
ATOM     16  C   UNL     1       6.799 -10.192  -1.444  0.00  0.00    +0.000 A 
ENDBRANCH  10  11
ENDBRANCH   1  10
TORSDOF 2
ENDMDL
MODEL 6
REMARK VINA RESULT:    -4.551     25.585     26.544
REMARK INTER + INTRA:          -5.122
REMARK INTER:                  -4.944
REMARK INTRA:                  -0.178
REMARK UNBOUND:                -0.039
REMARK  Name = 1550473
REMARK  2 active torsions:
REMARK  status: ('A' for Active; 'I' for Inactive)
REMARK    1  A    between atoms: N_1  and  C_4
REMARK    2  A    between atoms: C_4  and  C_5
REMARK                            x       y       z     vdW  Elec       q    Type
REMARK                         _______ _______ _______ _____ _____    ______ ____
ROOT
ATOM      1  N   UNL     1      -9.672  -6.781 -24.105  0.00  0.00    -0.354 N 
ATOM      2  N   UNL     1      -9.679  -4.564 -23.435  0.00  0.00    -0.372 N 
ATOM      3  N   UNL     1     -11.646  -5.518 -24.133  0.00  0.00    -0.372 N 
ATOM      4  C   UNL     1     -10.335  -5.636 -23.896  0.00  0.00    +0.166 C 
ATOM      5  H   UNL     1      -8.672  -6.797 -23.935  0.00  0.00    +0.163 HD
ATOM      6  H   UNL     1     -10.153  -3.687 -23.265  0.00  0.00    +0.159 HD
ATOM      7  H   UNL     1      -8.689  -4.595 -23.223  0.00  0.00    +0.159 HD
ATOM      8  H   UNL     1     -12.197  -6.289 -24.487  0.00  0.00    +0.159 HD
ATOM      9  H   UNL     1     -12.136  -4.646 -23.980  0.00  0.00    +0.159 HD
ENDROOT
BRANCH   1  10
ATOM     10  C   UNL     1     -10.302  -8.021 -24.554  0.00  0.00    +0.151 C 
BRANCH  10  11
ATOM     11  C   UNL     1     -10.567  -8.898 -23.361  0.00  0.00    -0.028 A 
ATOM     12  C   UNL     1      -9.532  -9.218 -22.469  0.00  0.00    +0.005 A 
ATOM     13  C   UNL     1     -11.851  -9.407 -23.113  0.00  0.00    +0.005 A 
ATOM     14  C   UNL     1      -9.784 -10.007 -21.345  0.00  0.00    +0.000 A 
ATOM     15  C   UNL     1     -12.098 -10.195 -21.989  0.00  0.00    +0.000 A 
ATOM     16  C   UNL     1     -11.064 -10.493 -21.104  0.00  0.00    +0.000 A 
ENDBRANCH  10  11
ENDBRANCH   1  10
TORSDOF 2
ENDMDL
MODEL 7
REMARK VINA RESULT:    -4.493     18.766     19.936
REMARK INTER + INTRA:          -5.058
REMARK INTER:                  -4.922
REMARK INTRA:                  -0.136
REMARK UNBOUND:                -0.039
REMARK  Name = 1550473
REMARK  2 active torsions:
REMARK  status: ('A' for Active; 'I' for Inactive)
REMARK    1  A    between atoms: N_1  and  C_4
REMARK    2  A    between atoms: C_4  and  C_5
REMARK                            x       y       z     vdW  Elec       q    Type
REMARK                         _______ _______ _______ _____ _____    ______ ____
ROOT
ATOM      1  N   UNL     1       5.013 -12.219  -8.105  0.00  0.00    -0.354 N 
ATOM      2  N   UNL     1       6.905 -12.622  -9.379  0.00  0.00    -0.372 N 
ATOM      3  N   UNL     1       6.809 -13.453  -7.242  0.00  0.00    -0.372 N 
ATOM      4  C   UNL     1       6.231 -12.763  -8.231  0.00  0.00    +0.166 C 
ATOM      5  H   UNL     1       4.643 -11.682  -8.881  0.00  0.00    +0.163 HD
ATOM      6  H   UNL     1       7.824 -13.025  -9.504  0.00  0.00    +0.159 HD
ATOM      7  H   UNL     1       6.514 -12.124 -10.169  0.00  0.00    +0.159 HD
ATOM      8  H   UNL     1       6.355 -13.591  -6.349  0.00  0.00    +0.159 HD
ATOM      9  H   UNL     1       7.733 -13.853  -7.345  0.00  0.00    +0.159 HD
ENDROOT
BRANCH   1  10
ATOM     10  C   UNL     1       4.173 -12.360  -6.917  0.00  0.00    +0.151 C 
BRANCH  10  11
ATOM     11  C   UNL     1       2.806 -12.825  -7.335  0.00  0.00    -0.028 A 
ATOM     12  C   UNL     1       2.618 -13.468  -8.567  0.00  0.00    +0.005 A 
ATOM     13  C   UNL     1       1.695 -12.632  -6.500  0.00  0.00    +0.005 A 
ATOM     14  C   UNL     1       1.353 -13.927  -8.942  0.00  0.00    +0.000 A 
ATOM     15  C   UNL     1       0.433 -13.091  -6.878  0.00  0.00    +0.000 A 
ATOM     16  C   UNL     1       0.263 -13.741  -8.098  0.00  0.00    +0.000 A 
ENDBRANCH  10  11
ENDBRANCH   1  10
TORSDOF 2
ENDMDL
MODEL 8
REMARK VINA RESULT:    -4.493     24.533     25.604
REMARK INTER + INTRA:          -5.057
REMARK INTER:                  -4.935
REMARK INTRA:                  -0.122
REMARK UNBOUND:                -0.039
REMARK  Name = 1550473
REMARK  2 active torsions:
REMARK  status: ('A' for Active; 'I' for Inactive)
REMARK    1  A    between atoms: N_1  and  C_4
REMARK    2  A    between atoms: C_4  and  C_5
REMARK                            x       y       z     vdW  Elec       q    Type
REMARK                         _______ _______ _______ _____ _____    ______ ____
ROOT
ATOM      1  N   UNL     1     -14.219 -16.227 -16.721  0.00  0.00    -0.354 N 
ATOM      2  N   UNL     1     -15.988 -16.435 -15.240  0.00  0.00    -0.372 N 
ATOM      3  N   UNL     1     -14.787 -18.307 -15.805  0.00  0.00    -0.372 N 
ATOM      4  C   UNL     1     -14.986 -16.991 -15.932  0.00  0.00    +0.166 C 
ATOM      5  H   UNL     1     -14.441 -15.240 -16.798  0.00  0.00    +0.163 HD
ATOM      6  H   UNL     1     -16.580 -16.986 -14.634  0.00  0.00    +0.159 HD
ATOM      7  H   UNL     1     -16.178 -15.441 -15.283  0.00  0.00    +0.159 HD
ATOM      8  H   UNL     1     -14.052 -18.789 -16.305  0.00  0.00    +0.159 HD
ATOM      9  H   UNL     1     -15.377 -18.878 -15.212  0.00  0.00    +0.159 HD
ENDROOT
BRANCH   1  10
ATOM     10  C   UNL     1     -13.070 -16.724 -17.475  0.00  0.00    +0.151 C 
BRANCH  10  11
ATOM     11  C   UNL     1     -11.886 -15.836 -17.208  0.00  0.00    -0.028 A 
ATOM     12  C   UNL     1     -10.664 -16.385 -16.792  0.00  0.00    +0.005 A 
ATOM     13  C   UNL     1     -11.977 -14.446 -17.375  0.00  0.00    +0.005 A 
ATOM     14  C   UNL     1      -9.555 -15.564 -16.572  0.00  0.00    +0.000 A 
ATOM     15  C   UNL     1     -10.868 -13.630 -17.155  0.00  0.00    +0.000 A 
ATOM     16  C   UNL     1      -9.657 -14.189 -16.755  0.00  0.00    +0.000 A 
ENDBRANCH  10  11
ENDBRANCH   1  10
TORSDOF 2
ENDMDL
MODEL 9
REMARK VINA RESULT:    -4.411     20.085     20.722
REMARK INTER + INTRA:          -4.966
REMARK INTER:                  -4.824
REMARK INTRA:                  -0.142
REMARK UNBOUND:                -0.039
REMARK  Name = 1550473
REMARK  2 active torsions:
REMARK  status: ('A' for Active; 'I' for Inactive)
REMARK    1  A    between atoms: N_1  and  C_4
REMARK    2  A    between atoms: C_4  and  C_5
REMARK                            x       y       z     vdW  Elec       q    Type
REMARK                         _______ _______ _______ _____ _____    ______ ____
ROOT
ATOM      1  N   UNL     1       9.516  -3.587  -9.039  0.00  0.00    -0.354 N 
ATOM      2  N   UNL     1       7.735  -5.032  -9.362  0.00  0.00    -0.372 N 
ATOM      3  N   UNL     1       9.735  -5.489 -10.390  0.00  0.00    -0.372 N 
ATOM      4  C   UNL     1       9.009  -4.695  -9.596  0.00  0.00    +0.166 C 
ATOM      5  H   UNL     1       8.905  -3.011  -8.471  0.00  0.00    +0.163 HD
ATOM      6  H   UNL     1       7.326  -5.864  -9.766  0.00  0.00    +0.159 HD
ATOM      7  H   UNL     1       7.140  -4.479  -8.757  0.00  0.00    +0.159 HD
ATOM      8  H   UNL     1      10.701  -5.287 -10.611  0.00  0.00    +0.159 HD
ATOM      9  H   UNL     1       9.340  -6.320 -10.813  0.00  0.00    +0.159 HD
ENDROOT
BRANCH   1  10
ATOM     10  C   UNL     1      10.906  -3.159  -9.187  0.00  0.00    +0.151 C 
BRANCH  10  11
ATOM     11  C   UNL     1      11.490  -2.907  -7.824  0.00  0.00    -0.028 A 
ATOM     12  C   UNL     1      12.138  -1.695  -7.541  0.00  0.00    +0.005 A 
ATOM     13  C   UNL     1      11.394  -3.872  -6.811  0.00  0.00    +0.005 A 
ATOM     14  C   UNL     1      12.654  -1.448  -6.267  0.00  0.00    +0.000 A 
ATOM     15  C   UNL     1      11.912  -3.621  -5.540  0.00  0.00    +0.000 A 
ATOM     16  C   UNL     1      12.540  -2.408  -5.268  0.00  0.00    +0.000 A 
ENDBRANCH  10  11
ENDBRANCH   1  10
TORSDOF 2
ENDMDL
