MODEL 1
REMARK VINA RESULT:    -5.157      0.000      0.000
REMARK INTER + INTRA:          -5.901
REMARK INTER:                  -5.760
REMARK INTRA:                  -0.141
REMARK UNBOUND:                -0.141
REMARK  Name = 1550473
REMARK  2 active torsions:
REMARK  status: ('A' for Active; 'I' for Inactive)
REMARK    1  A    between atoms: N_1  and  C_4
REMARK    2  A    between atoms: C_4  and  C_5
REMARK                            x       y       z     vdW  Elec       q    Type
REMARK                         _______ _______ _______ _____ _____    ______ ____
ROOT
ATOM      1  N   UNL     1      -8.156   2.396 -13.767  0.00  0.00    -0.354 N 
ATOM      2  N   UNL     1      -7.749   1.016 -15.582  0.00  0.00    -0.372 N 
ATOM      3  N   UNL     1      -5.967   1.841 -14.394  0.00  0.00    -0.372 N 
ATOM      4  C   UNL     1      -7.291   1.761 -14.569  0.00  0.00    +0.166 C 
ATOM      5  H   UNL     1      -9.146   2.320 -13.971  0.00  0.00    +0.163 HD
ATOM      6  H   UNL     1      -7.120   0.522 -16.201  0.00  0.00    +0.159 HD
ATOM      7  H   UNL     1      -8.740   0.904 -15.755  0.00  0.00    +0.159 HD
ATOM      8  H   UNL     1      -5.557   2.391 -13.652  0.00  0.00    +0.159 HD
ATOM      9  H   UNL     1      -5.322   1.363 -15.011  0.00  0.00    +0.159 HD
ENDROOT
BRANCH   1  10
ATOM     10  C   UNL     1      -7.762   3.189 -12.604  0.00  0.00    +0.151 C 
BRANCH  10  11
ATOM     11  C   UNL     1      -8.631   2.812 -11.436  0.00  0.00    -0.028 A 
ATOM     12  C   UNL     1      -9.528   1.738 -11.533  0.00  0.00    +0.005 A 
ATOM     13  C   UNL     1      -8.559   3.522 -10.228  0.00  0.00    +0.005 A 
ATOM     14  C   UNL     1     -10.314   1.369 -10.439  0.00  0.00    +0.000 A 
ATOM     15  C   UNL     1      -9.346   3.151  -9.138  0.00  0.00    +0.000 A 
ATOM     16  C   UNL     1     -10.221   2.073  -9.243  0.00  0.00    +0.000 A 
ENDBRANCH  10  11
ENDBRANCH   1  10
TORSDOF 2
ENDMDL
MODEL 2
REMARK VINA RESULT:    -5.125     37.745     38.978
REMARK INTER + INTRA:          -5.865
REMARK INTER:                  -5.743
REMARK INTRA:                  -0.122
REMARK UNBOUND:                -0.141
REMARK  Name = 1550473
REMARK  2 active torsions:
REMARK  status: ('A' for Active; 'I' for Inactive)
REMARK    1  A    between atoms: N_1  and  C_4
REMARK    2  A    between atoms: C_4  and  C_5
REMARK                            x       y       z     vdW  Elec       q    Type
REMARK                         _______ _______ _______ _____ _____    ______ ____
ROOT
ATOM      1  N   UNL     1      14.377  15.443  16.414  0.00  0.00    -0.354 N 
ATOM      2  N   UNL     1      14.981  16.209  14.313  0.00  0.00    -0.372 N 
ATOM      3  N   UNL     1      14.550  17.737  15.969  0.00  0.00    -0.372 N 
ATOM      4  C   UNL     1      14.631  16.460  15.580  0.00  0.00    +0.166 C 
ATOM      5  H   UNL     1      14.427  14.498  16.049  0.00  0.00    +0.163 HD
ATOM      6  H   UNL     1      15.182  16.956  13.662  0.00  0.00    +0.159 HD
ATOM      7  H   UNL     1      15.075  15.263  13.964  0.00  0.00    +0.159 HD
ATOM      8  H   UNL     1      14.286  17.994  16.911  0.00  0.00    +0.159 HD
ATOM      9  H   UNL     1      14.736  18.499  15.330  0.00  0.00    +0.159 HD
ENDROOT
BRANCH   1  10
ATOM     10  C   UNL     1      14.041  15.607  17.827  0.00  0.00    +0.151 C 
BRANCH  10  11
ATOM     11  C   UNL     1      13.322  14.377  18.307  0.00  0.00    -0.028 A 
ATOM     12  C   UNL     1      13.470  13.937  19.631  0.00  0.00    +0.005 A 
ATOM     13  C   UNL     1      12.485  13.651  17.445  0.00  0.00    +0.005 A 
ATOM     14  C   UNL     1      12.778  12.812  20.086  0.00  0.00    +0.000 A 
ATOM     15  C   UNL     1      11.797  12.528  17.903  0.00  0.00    +0.000 A 
ATOM     16  C   UNL     1      11.942  12.110  19.224  0.00  0.00    +0.000 A 
ENDBRANCH  10  11
ENDBRANCH   1  10
TORSDOF 2
ENDMDL
MODEL 3
REMARK VINA RESULT:    -4.858      4.046      5.385
REMARK INTER + INTRA:          -5.568
REMARK INTER:                  -5.397
REMARK INTRA:                  -0.170
REMARK UNBOUND:                -0.141
REMARK  Name = 1550473
REMARK  2 active torsions:
REMARK  status: ('A' for Active; 'I' for Inactive)
REMARK    1  A    between atoms: N_1  and  C_4
REMARK    2  A    between atoms: C_4  and  C_5
REMARK                            x       y       z     vdW  Elec       q    Type
REMARK                         _______ _______ _______ _____ _____    ______ ____
ROOT
ATOM      1  N   UNL     1      -7.624   4.245  -7.750  0.00  0.00    -0.354 N 
ATOM      2  N   UNL     1      -5.667   3.693  -6.640  0.00  0.00    -0.372 N 
ATOM      3  N   UNL     1      -7.651   2.815  -5.893  0.00  0.00    -0.372 N 
ATOM      4  C   UNL     1      -6.996   3.586  -6.766  0.00  0.00    +0.166 C 
ATOM      5  H   UNL     1      -7.074   4.837  -8.361  0.00  0.00    +0.163 HD
ATOM      6  H   UNL     1      -5.165   3.205  -5.910  0.00  0.00    +0.159 HD
ATOM      7  H   UNL     1      -5.114   4.249  -7.280  0.00  0.00    +0.159 HD
ATOM      8  H   UNL     1      -8.655   2.698  -5.930  0.00  0.00    +0.159 HD
ATOM      9  H   UNL     1      -7.168   2.328  -5.148  0.00  0.00    +0.159 HD
ENDROOT
BRANCH   1  10
ATOM     10  C   UNL     1      -9.060   4.153  -8.007  0.00  0.00    +0.151 C 
BRANCH  10  11
ATOM     11  C   UNL     1      -9.292   3.245  -9.182  0.00  0.00    -0.028 A 
ATOM     12  C   UNL     1     -10.243   2.216  -9.110  0.00  0.00    +0.005 A 
ATOM     13  C   UNL     1      -8.568   3.410 -10.373  0.00  0.00    +0.005 A 
ATOM     14  C   UNL     1     -10.480   1.391 -10.212  0.00  0.00    +0.000 A 
ATOM     15  C   UNL     1      -8.807   2.584 -11.470  0.00  0.00    +0.000 A 
ATOM     16  C   UNL     1      -9.765   1.576 -11.391  0.00  0.00    +0.000 A 
ENDBRANCH  10  11
ENDBRANCH   1  10
TORSDOF 2
ENDMDL
MODEL 4
REMARK VINA RESULT:    -4.772      2.560      3.346
REMARK INTER + INTRA:          -5.471
REMARK INTER:                  -5.292
REMARK INTRA:                  -0.179
REMARK UNBOUND:                -0.141
REMARK  Name = 1550473
REMARK  2 active torsions:
REMARK  status: ('A' for Active; 'I' for Inactive)
REMARK    1  A    between atoms: N_1  and  C_4
REMARK    2  A    between atoms: C_4  and  C_5
REMARK                            x       y       z     vdW  Elec       q    Type
REMARK                         _______ _______ _______ _____ _____    ______ ____
ROOT
ATOM      1  N   UNL     1      -6.262   3.908  -9.702  0.00  0.00    -0.354 N 
ATOM      2  N   UNL     1      -4.125   3.027  -9.841  0.00  0.00    -0.372 N 
ATOM      3  N   UNL     1      -5.258   3.501 -11.780  0.00  0.00    -0.372 N 
ATOM      4  C   UNL     1      -5.230   3.485 -10.443  0.00  0.00    +0.166 C 
ATOM      5  H   UNL     1      -6.190   3.841  -8.693  0.00  0.00    +0.163 HD
ATOM      6  H   UNL     1      -3.328   2.705 -10.374  0.00  0.00    +0.159 HD
ATOM      7  H   UNL     1      -4.038   3.005  -8.833  0.00  0.00    +0.159 HD
ATOM      8  H   UNL     1      -6.064   3.829 -12.294  0.00  0.00    +0.159 HD
ATOM      9  H   UNL     1      -4.475   3.171 -12.330  0.00  0.00    +0.159 HD
ENDROOT
BRANCH   1  10
ATOM     10  C   UNL     1      -7.490   4.474 -10.258  0.00  0.00    +0.151 C 
BRANCH  10  11
ATOM     11  C   UNL     1      -8.584   3.445 -10.182  0.00  0.00    -0.028 A 
ATOM     12  C   UNL     1      -8.827   2.583 -11.261  0.00  0.00    +0.005 A 
ATOM     13  C   UNL     1      -9.378   3.324  -9.031  0.00  0.00    +0.005 A 
ATOM     14  C   UNL     1      -9.823   1.607 -11.179  0.00  0.00    +0.000 A 
ATOM     15  C   UNL     1     -10.372   2.349  -8.953  0.00  0.00    +0.000 A 
ATOM     16  C   UNL     1     -10.593   1.489 -10.026  0.00  0.00    +0.000 A 
ENDBRANCH  10  11
ENDBRANCH   1  10
TORSDOF 2
ENDMDL
MODEL 5
REMARK VINA RESULT:    -4.475      2.073      2.727
REMARK INTER + INTRA:          -5.140
REMARK INTER:                  -4.999
REMARK INTRA:                  -0.140
REMARK UNBOUND:                -0.141
REMARK  Name = 1550473
REMARK  2 active torsions:
REMARK  status: ('A' for Active; 'I' for Inactive)
REMARK    1  A    between atoms: N_1  and  C_4
REMARK    2  A    between atoms: C_4  and  C_5
REMARK                            x       y       z     vdW  Elec       q    Type
REMARK                         _______ _______ _______ _____ _____    ______ ____
ROOT
ATOM      1  N   UNL     1      -6.611   3.647 -11.676  0.00  0.00    -0.354 N 
ATOM      2  N   UNL     1      -5.278   3.767 -13.566  0.00  0.00    -0.372 N 
ATOM      3  N   UNL     1      -6.622   5.551 -13.042  0.00  0.00    -0.372 N 
ATOM      4  C   UNL     1      -6.181   4.323 -12.749  0.00  0.00    +0.166 C 
ATOM      5  H   UNL     1      -6.260   2.708 -11.526  0.00  0.00    +0.163 HD
ATOM      6  H   UNL     1      -4.931   4.255 -14.381  0.00  0.00    +0.159 HD
ATOM      7  H   UNL     1      -4.894   2.847 -13.388  0.00  0.00    +0.159 HD
ATOM      8  H   UNL     1      -7.309   6.024 -12.469  0.00  0.00    +0.159 HD
ATOM      9  H   UNL     1      -6.297   6.050 -13.860  0.00  0.00    +0.159 HD
ENDROOT
BRANCH   1  10
ATOM     10  C   UNL     1      -7.552   4.184 -10.695  0.00  0.00    +0.151 C 
BRANCH  10  11
ATOM     11  C   UNL     1      -8.648   3.180 -10.465  0.00  0.00    -0.028 A 
ATOM     12  C   UNL     1      -9.268   3.077  -9.211  0.00  0.00    +0.005 A 
ATOM     13  C   UNL     1      -9.075   2.332 -11.499  0.00  0.00    +0.005 A 
ATOM     14  C   UNL     1     -10.307   2.165  -9.006  0.00  0.00    +0.000 A 
ATOM     15  C   UNL     1     -10.111   1.422 -11.289  0.00  0.00    +0.000 A 
ATOM     16  C   UNL     1     -10.729   1.341 -10.044  0.00  0.00    +0.000 A 
ENDBRANCH  10  11
ENDBRANCH   1  10
TORSDOF 2
ENDMDL
MODEL 6
REMARK VINA RESULT:    -4.288     19.706     21.122
REMARK INTER + INTRA:          -4.930
REMARK INTER:                  -4.831
REMARK INTRA:                  -0.099
REMARK UNBOUND:                -0.141
REMARK  Name = 1550473
REMARK  2 active torsions:
REMARK  status: ('A' for Active; 'I' for Inactive)
REMARK    1  A    between atoms: N_1  and  C_4
REMARK    2  A    between atoms: C_4  and  C_5
REMARK                            x       y       z     vdW  Elec       q    Type
REMARK                         _______ _______ _______ _____ _____    ______ ____
ROOT
ATOM      1  N   UNL     1       6.884 -10.748 -11.202  0.00  0.00    -0.354 N 
ATOM      2  N   UNL     1       8.464  -9.322 -10.289  0.00  0.00    -0.372 N 
ATOM      3  N   UNL     1       7.407  -8.708 -12.231  0.00  0.00    -0.372 N 
ATOM      4  C   UNL     1       7.574  -9.601 -11.249  0.00  0.00    +0.166 C 
ATOM      5  H   UNL     1       7.079 -11.397 -10.448  0.00  0.00    +0.163 HD
ATOM      6  H   UNL     1       8.997  -8.463 -10.295  0.00  0.00    +0.159 HD
ATOM      7  H   UNL     1       8.623  -9.951  -9.511  0.00  0.00    +0.159 HD
ATOM      8  H   UNL     1       6.755  -8.862 -12.988  0.00  0.00    +0.159 HD
ATOM      9  H   UNL     1       7.939  -7.848 -12.261  0.00  0.00    +0.159 HD
ENDROOT
BRANCH   1  10
ATOM     10  C   UNL     1       5.854 -11.123 -12.169  0.00  0.00    +0.151 C 
BRANCH  10  11
ATOM     11  C   UNL     1       5.803 -12.622 -12.278  0.00  0.00    -0.028 A 
ATOM     12  C   UNL     1       5.342 -13.398 -11.205  0.00  0.00    +0.005 A 
ATOM     13  C   UNL     1       6.211 -13.272 -13.453  0.00  0.00    +0.005 A 
ATOM     14  C   UNL     1       5.266 -14.789 -11.316  0.00  0.00    +0.000 A 
ATOM     15  C   UNL     1       6.135 -14.660 -13.560  0.00  0.00    +0.000 A 
ATOM     16  C   UNL     1       5.660 -15.418 -12.492  0.00  0.00    +0.000 A 
ENDBRANCH  10  11
ENDBRANCH   1  10
TORSDOF 2
ENDMDL
MODEL 7
REMARK VINA RESULT:    -4.233     31.359     32.454
REMARK INTER + INTRA:          -4.869
REMARK INTER:                  -4.750
REMARK INTRA:                  -0.119
REMARK UNBOUND:                -0.141
REMARK  Name = 1550473
REMARK  2 active torsions:
REMARK  status: ('A' for Active; 'I' for Inactive)
REMARK    1  A    between atoms: N_1  and  C_4
REMARK    2  A    between atoms: C_4  and  C_5
REMARK                            x       y       z     vdW  Elec       q    Type
REMARK                         _______ _______ _______ _____ _____    ______ ____
ROOT
ATOM      1  N   UNL     1       6.006  -7.782  14.108  0.00  0.00    -0.354 N 
ATOM      2  N   UNL     1       6.848  -9.490  12.790  0.00  0.00    -0.372 N 
ATOM      3  N   UNL     1       7.059  -7.323  12.065  0.00  0.00    -0.372 N 
ATOM      4  C   UNL     1       6.633  -8.185  12.994  0.00  0.00    +0.166 C 
ATOM      5  H   UNL     1       5.680  -8.487  14.759  0.00  0.00    +0.163 HD
ATOM      6  H   UNL     1       7.322  -9.824  11.961  0.00  0.00    +0.159 HD
ATOM      7  H   UNL     1       6.563 -10.189  13.464  0.00  0.00    +0.159 HD
ATOM      8  H   UNL     1       6.923  -6.325  12.157  0.00  0.00    +0.159 HD
ATOM      9  H   UNL     1       7.525  -7.638  11.223  0.00  0.00    +0.159 HD
ENDROOT
BRANCH   1  10
ATOM     10  C   UNL     1       5.770  -6.381  14.452  0.00  0.00    +0.151 C 
BRANCH  10  11
ATOM     11  C   UNL     1       5.558  -6.268  15.936  0.00  0.00    -0.028 A 
ATOM     12  C   UNL     1       6.343  -7.017  16.826  0.00  0.00    +0.005 A 
ATOM     13  C   UNL     1       4.578  -5.411  16.460  0.00  0.00    +0.005 A 
ATOM     14  C   UNL     1       6.167  -6.890  18.206  0.00  0.00    +0.000 A 
ATOM     15  C   UNL     1       4.405  -5.288  17.838  0.00  0.00    +0.000 A 
ATOM     16  C   UNL     1       5.201  -6.026  18.711  0.00  0.00    +0.000 A 
ENDBRANCH  10  11
ENDBRANCH   1  10
TORSDOF 2
ENDMDL
MODEL 8
REMARK VINA RESULT:    -4.229     20.939     22.613
REMARK INTER + INTRA:          -4.864
REMARK INTER:                  -4.720
REMARK INTRA:                  -0.144
REMARK UNBOUND:                -0.141
REMARK  Name = 1550473
REMARK  2 active torsions:
REMARK  status: ('A' for Active; 'I' for Inactive)
REMARK    1  A    between atoms: N_1  and  C_4
REMARK    2  A    between atoms: C_4  and  C_5
REMARK                            x       y       z     vdW  Elec       q    Type
REMARK                         _______ _______ _______ _____ _____    ______ ____
ROOT
ATOM      1  N   UNL     1      -5.868 -20.360 -19.505  0.00  0.00    -0.354 N 
ATOM      2  N   UNL     1      -5.162 -22.049 -20.924  0.00  0.00    -0.372 N 
ATOM      3  N   UNL     1      -7.374 -21.437 -20.941  0.00  0.00    -0.372 N 
ATOM      4  C   UNL     1      -6.142 -21.271 -20.448  0.00  0.00    +0.166 C 
ATOM      5  H   UNL     1      -4.920 -20.304 -19.150  0.00  0.00    +0.163 HD
ATOM      6  H   UNL     1      -5.339 -22.743 -21.638  0.00  0.00    +0.159 HD
ATOM      7  H   UNL     1      -4.207 -21.960 -20.601  0.00  0.00    +0.159 HD
ATOM      8  H   UNL     1      -8.158 -20.885 -20.620  0.00  0.00    +0.159 HD
ATOM      9  H   UNL     1      -7.572 -22.134 -21.648  0.00  0.00    +0.159 HD
ENDROOT
BRANCH   1  10
ATOM     10  C   UNL     1      -6.852 -19.427 -18.958  0.00  0.00    +0.151 C 
BRANCH  10  11
ATOM     11  C   UNL     1      -6.406 -18.019 -19.244  0.00  0.00    -0.028 A 
ATOM     12  C   UNL     1      -6.167 -17.602 -20.562  0.00  0.00    +0.005 A 
ATOM     13  C   UNL     1      -6.225 -17.097 -18.203  0.00  0.00    +0.005 A 
ATOM     14  C   UNL     1      -5.782 -16.287 -20.831  0.00  0.00    +0.000 A 
ATOM     15  C   UNL     1      -5.840 -15.784 -18.475  0.00  0.00    +0.000 A 
ATOM     16  C   UNL     1      -5.620 -15.379 -19.789  0.00  0.00    +0.000 A 
ENDBRANCH  10  11
ENDBRANCH   1  10
TORSDOF 2
ENDMDL
MODEL 9
REMARK VINA RESULT:    -4.206     33.142     34.155
REMARK INTER + INTRA:          -4.838
REMARK INTER:                  -4.660
REMARK INTRA:                  -0.179
REMARK UNBOUND:                -0.141
REMARK  Name = 1550473
REMARK  2 active torsions:
REMARK  status: ('A' for Active; 'I' for Inactive)
REMARK    1  A    between atoms: N_1  and  C_4
REMARK    2  A    between atoms: C_4  and  C_5
REMARK                            x       y       z     vdW  Elec       q    Type
REMARK                         _______ _______ _______ _____ _____    ______ ____
ROOT
ATOM      1  N   UNL     1      14.385  -3.458  11.969  0.00  0.00    -0.354 N 
ATOM      2  N   UNL     1      13.416  -3.675   9.877  0.00  0.00    -0.372 N 
ATOM      3  N   UNL     1      13.231  -1.673  10.982  0.00  0.00    -0.372 N 
ATOM      4  C   UNL     1      13.683  -2.931  10.957  0.00  0.00    +0.166 C 
ATOM      5  H   UNL     1      14.672  -4.427  11.903  0.00  0.00    +0.163 HD
ATOM      6  H   UNL     1      12.892  -3.304   9.096  0.00  0.00    +0.159 HD
ATOM      7  H   UNL     1      13.744  -4.630   9.793  0.00  0.00    +0.159 HD
ATOM      8  H   UNL     1      13.394  -1.061  11.771  0.00  0.00    +0.159 HD
ATOM      9  H   UNL     1      12.695  -1.287  10.215  0.00  0.00    +0.159 HD
ENDROOT
BRANCH   1  10
ATOM     10  C   UNL     1      14.775  -2.716  13.167  0.00  0.00    +0.151 C 
BRANCH  10  11
ATOM     11  C   UNL     1      13.819  -3.044  14.281  0.00  0.00    -0.028 A 
ATOM     12  C   UNL     1      13.684  -4.364  14.738  0.00  0.00    +0.005 A 
ATOM     13  C   UNL     1      13.051  -2.040  14.889  0.00  0.00    +0.005 A 
ATOM     14  C   UNL     1      12.819  -4.665  15.792  0.00  0.00    +0.000 A 
ATOM     15  C   UNL     1      12.188  -2.344  15.941  0.00  0.00    +0.000 A 
ATOM     16  C   UNL     1      12.074  -3.656  16.394  0.00  0.00    +0.000 A 
ENDBRANCH  10  11
ENDBRANCH   1  10
TORSDOF 2
ENDMDL
