MODEL 1
REMARK VINA RESULT:    -5.232      0.000      0.000
REMARK INTER + INTRA:          -5.981
REMARK INTER:                  -5.844
REMARK INTRA:                  -0.137
REMARK UNBOUND:                -0.137
REMARK  Name = 1550473
REMARK  2 active torsions:
REMARK  status: ('A' for Active; 'I' for Inactive)
REMARK    1  A    between atoms: N_1  and  C_4
REMARK    2  A    between atoms: C_4  and  C_5
REMARK                            x       y       z     vdW  Elec       q    Type
REMARK                         _______ _______ _______ _____ _____    ______ ____
ROOT
ATOM      1  N   UNL     1      11.573   0.503  -5.929  0.00  0.00    -0.354 N 
ATOM      2  N   UNL     1      12.264   2.472  -4.923  0.00  0.00    -0.372 N 
ATOM      3  N   UNL     1      11.550   2.531  -7.103  0.00  0.00    -0.372 N 
ATOM      4  C   UNL     1      11.791   1.824  -5.994  0.00  0.00    +0.166 C 
ATOM      5  H   UNL     1      11.804   0.019  -5.069  0.00  0.00    +0.163 HD
ATOM      6  H   UNL     1      12.435   3.468  -4.941  0.00  0.00    +0.159 HD
ATOM      7  H   UNL     1      12.451   1.993  -4.050  0.00  0.00    +0.159 HD
ATOM      8  H   UNL     1      11.198   2.101  -7.947  0.00  0.00    +0.159 HD
ATOM      9  H   UNL     1      11.726   3.527  -7.144  0.00  0.00    +0.159 HD
ENDROOT
BRANCH   1  10
ATOM     10  C   UNL     1      11.008  -0.287  -7.021  0.00  0.00    +0.151 C 
BRANCH  10  11
ATOM     11  C   UNL     1       9.947  -1.199  -6.471  0.00  0.00    -0.028 A 
ATOM     12  C   UNL     1       9.053  -1.852  -7.331  0.00  0.00    +0.005 A 
ATOM     13  C   UNL     1       9.834  -1.419  -5.089  0.00  0.00    +0.005 A 
ATOM     14  C   UNL     1       8.086  -2.723  -6.822  0.00  0.00    +0.000 A 
ATOM     15  C   UNL     1       8.867  -2.288  -4.585  0.00  0.00    +0.000 A 
ATOM     16  C   UNL     1       7.994  -2.941  -5.452  0.00  0.00    +0.000 A 
ENDBRANCH  10  11
ENDBRANCH   1  10
TORSDOF 2
ENDMDL
MODEL 2
REMARK VINA RESULT:    -4.805      2.265      3.017
REMARK INTER + INTRA:          -5.504
REMARK INTER:                  -5.321
REMARK INTRA:                  -0.183
REMARK UNBOUND:                -0.137
REMARK  Name = 1550473
REMARK  2 active torsions:
REMARK  status: ('A' for Active; 'I' for Inactive)
REMARK    1  A    between atoms: N_1  and  C_4
REMARK    2  A    between atoms: C_4  and  C_5
REMARK                            x       y       z     vdW  Elec       q    Type
REMARK                         _______ _______ _______ _____ _____    ______ ____
ROOT
ATOM      1  N   UNL     1      11.907  -1.534  -7.679  0.00  0.00    -0.354 N 
ATOM      2  N   UNL     1      13.553  -3.025  -8.338  0.00  0.00    -0.372 N 
ATOM      3  N   UNL     1      13.522  -2.298  -6.162  0.00  0.00    -0.372 N 
ATOM      4  C   UNL     1      12.984  -2.276  -7.386  0.00  0.00    +0.166 C 
ATOM      5  H   UNL     1      11.566  -1.537  -8.634  0.00  0.00    +0.163 HD
ATOM      6  H   UNL     1      14.364  -3.597  -8.146  0.00  0.00    +0.159 HD
ATOM      7  H   UNL     1      13.182  -3.062  -9.280  0.00  0.00    +0.159 HD
ATOM      8  H   UNL     1      13.143  -1.751  -5.401  0.00  0.00    +0.159 HD
ATOM      9  H   UNL     1      14.340  -2.856  -5.953  0.00  0.00    +0.159 HD
ENDROOT
BRANCH   1  10
ATOM     10  C   UNL     1      11.181  -0.725  -6.702  0.00  0.00    +0.151 C 
BRANCH  10  11
ATOM     11  C   UNL     1       9.968  -1.485  -6.240  0.00  0.00    -0.028 A 
ATOM     12  C   UNL     1       8.969  -1.854  -7.152  0.00  0.00    +0.005 A 
ATOM     13  C   UNL     1       9.816  -1.843  -4.892  0.00  0.00    +0.005 A 
ATOM     14  C   UNL     1       7.857  -2.585  -6.728  0.00  0.00    +0.000 A 
ATOM     15  C   UNL     1       8.704  -2.573  -4.472  0.00  0.00    +0.000 A 
ATOM     16  C   UNL     1       7.726  -2.946  -5.391  0.00  0.00    +0.000 A 
ENDBRANCH  10  11
ENDBRANCH   1  10
TORSDOF 2
ENDMDL
MODEL 3
REMARK VINA RESULT:    -4.716      3.471      4.313
REMARK INTER + INTRA:          -5.405
REMARK INTER:                  -5.267
REMARK INTRA:                  -0.137
REMARK UNBOUND:                -0.137
REMARK  Name = 1550473
REMARK  2 active torsions:
REMARK  status: ('A' for Active; 'I' for Inactive)
REMARK    1  A    between atoms: N_1  and  C_4
REMARK    2  A    between atoms: C_4  and  C_5
REMARK                            x       y       z     vdW  Elec       q    Type
REMARK                         _______ _______ _______ _____ _____    ______ ____
ROOT
ATOM      1  N   UNL     1      10.787  -3.380  -2.945  0.00  0.00    -0.354 N 
ATOM      2  N   UNL     1      10.796  -3.528  -0.634  0.00  0.00    -0.372 N 
ATOM      3  N   UNL     1      12.250  -2.078  -1.657  0.00  0.00    -0.372 N 
ATOM      4  C   UNL     1      11.280  -2.992  -1.761  0.00  0.00    +0.166 C 
ATOM      5  H   UNL     1      10.074  -4.099  -2.957  0.00  0.00    +0.163 HD
ATOM      6  H   UNL     1      11.146  -3.253   0.274  0.00  0.00    +0.159 HD
ATOM      7  H   UNL     1      10.051  -4.214  -0.647  0.00  0.00    +0.159 HD
ATOM      8  H   UNL     1      12.662  -1.640  -2.470  0.00  0.00    +0.159 HD
ATOM      9  H   UNL     1      12.621  -1.798  -0.758  0.00  0.00    +0.159 HD
ENDROOT
BRANCH   1  10
ATOM     10  C   UNL     1      11.208  -2.819  -4.228  0.00  0.00    +0.151 C 
BRANCH  10  11
ATOM     11  C   UNL     1       9.995  -2.606  -5.092  0.00  0.00    -0.028 A 
ATOM     12  C   UNL     1      10.119  -2.025  -6.362  0.00  0.00    +0.005 A 
ATOM     13  C   UNL     1       8.720  -2.987  -4.647  0.00  0.00    +0.005 A 
ATOM     14  C   UNL     1       8.997  -1.854  -7.177  0.00  0.00    +0.000 A 
ATOM     15  C   UNL     1       7.602  -2.814  -5.463  0.00  0.00    +0.000 A 
ATOM     16  C   UNL     1       7.741  -2.250  -6.729  0.00  0.00    +0.000 A 
ENDBRANCH  10  11
ENDBRANCH   1  10
TORSDOF 2
ENDMDL
MODEL 4
REMARK VINA RESULT:    -4.561     20.071     20.607
REMARK INTER + INTRA:          -5.232
REMARK INTER:                  -5.109
REMARK INTRA:                  -0.123
REMARK UNBOUND:                -0.137
REMARK  Name = 1550473
REMARK  2 active torsions:
REMARK  status: ('A' for Active; 'I' for Inactive)
REMARK    1  A    between atoms: N_1  and  C_4
REMARK    2  A    between atoms: C_4  and  C_5
REMARK                            x       y       z     vdW  Elec       q    Type
REMARK                         _______ _______ _______ _____ _____    ______ ____
ROOT
ATOM      1  N   UNL     1      -6.842   8.835  -4.585  0.00  0.00    -0.354 N 
ATOM      2  N   UNL     1      -4.567   9.184  -4.329  0.00  0.00    -0.372 N 
ATOM      3  N   UNL     1      -6.013  10.898  -3.845  0.00  0.00    -0.372 N 
ATOM      4  C   UNL     1      -5.823   9.639  -4.254  0.00  0.00    +0.166 C 
ATOM      5  H   UNL     1      -6.630   7.901  -4.916  0.00  0.00    +0.163 HD
ATOM      6  H   UNL     1      -3.778   9.767  -4.083  0.00  0.00    +0.159 HD
ATOM      7  H   UNL     1      -4.360   8.235  -4.617  0.00  0.00    +0.159 HD
ATOM      8  H   UNL     1      -6.937  11.304  -3.772  0.00  0.00    +0.159 HD
ATOM      9  H   UNL     1      -5.236  11.501  -3.605  0.00  0.00    +0.159 HD
ENDROOT
BRANCH   1  10
ATOM     10  C   UNL     1      -8.250   9.216  -4.486  0.00  0.00    +0.151 C 
BRANCH  10  11
ATOM     11  C   UNL     1      -9.031   8.488  -5.545  0.00  0.00    -0.028 A 
ATOM     12  C   UNL     1      -8.596   8.491  -6.879  0.00  0.00    +0.005 A 
ATOM     13  C   UNL     1     -10.204   7.789  -5.221  0.00  0.00    +0.005 A 
ATOM     14  C   UNL     1      -9.305   7.790  -7.858  0.00  0.00    +0.000 A 
ATOM     15  C   UNL     1     -10.909   7.092  -6.202  0.00  0.00    +0.000 A 
ATOM     16  C   UNL     1     -10.458   7.091  -7.519  0.00  0.00    +0.000 A 
ENDBRANCH  10  11
ENDBRANCH   1  10
TORSDOF 2
ENDMDL
MODEL 5
REMARK VINA RESULT:    -4.556      1.533      2.441
REMARK INTER + INTRA:          -5.226
REMARK INTER:                  -5.132
REMARK INTRA:                  -0.094
REMARK UNBOUND:                -0.137
REMARK  Name = 1550473
REMARK  2 active torsions:
REMARK  status: ('A' for Active; 'I' for Inactive)
REMARK    1  A    between atoms: N_1  and  C_4
REMARK    2  A    between atoms: C_4  and  C_5
REMARK                            x       y       z     vdW  Elec       q    Type
REMARK                         _______ _______ _______ _____ _____    ______ ____
ROOT
ATOM      1  N   UNL     1      11.516  -0.677  -7.577  0.00  0.00    -0.354 N 
ATOM      2  N   UNL     1      13.540  -0.608  -8.700  0.00  0.00    -0.372 N 
ATOM      3  N   UNL     1      12.921   1.192  -7.419  0.00  0.00    -0.372 N 
ATOM      4  C   UNL     1      12.646  -0.029  -7.890  0.00  0.00    +0.166 C 
ATOM      5  H   UNL     1      11.353  -1.588  -7.991  0.00  0.00    +0.163 HD
ATOM      6  H   UNL     1      14.403  -0.145  -8.951  0.00  0.00    +0.159 HD
ATOM      7  H   UNL     1      13.396  -1.537  -9.075  0.00  0.00    +0.159 HD
ATOM      8  H   UNL     1      12.284   1.686  -6.808  0.00  0.00    +0.159 HD
ATOM      9  H   UNL     1      13.774   1.677  -7.669  0.00  0.00    +0.159 HD
ENDROOT
BRANCH   1  10
ATOM     10  C   UNL     1      10.502  -0.157  -6.661  0.00  0.00    +0.151 C 
BRANCH  10  11
ATOM     11  C   UNL     1       9.642  -1.294  -6.184  0.00  0.00    -0.028 A 
ATOM     12  C   UNL     1       9.766  -1.781  -4.874  0.00  0.00    +0.005 A 
ATOM     13  C   UNL     1       8.696  -1.886  -7.035  0.00  0.00    +0.005 A 
ATOM     14  C   UNL     1       8.946  -2.817  -4.422  0.00  0.00    +0.000 A 
ATOM     15  C   UNL     1       7.879  -2.921  -6.580  0.00  0.00    +0.000 A 
ATOM     16  C   UNL     1       8.003  -3.384  -5.272  0.00  0.00    +0.000 A 
ENDBRANCH  10  11
ENDBRANCH   1  10
TORSDOF 2
ENDMDL
MODEL 6
REMARK VINA RESULT:    -4.514      9.933     10.995
REMARK INTER + INTRA:          -5.179
REMARK INTER:                  -5.032
REMARK INTRA:                  -0.147
REMARK UNBOUND:                -0.137
REMARK  Name = 1550473
REMARK  2 active torsions:
REMARK  status: ('A' for Active; 'I' for Inactive)
REMARK    1  A    between atoms: N_1  and  C_4
REMARK    2  A    between atoms: C_4  and  C_5
REMARK                            x       y       z     vdW  Elec       q    Type
REMARK                         _______ _______ _______ _____ _____    ______ ____
ROOT
ATOM      1  N   UNL     1       6.287   7.745  -3.683  0.00  0.00    -0.354 N 
ATOM      2  N   UNL     1       6.968   5.800  -2.627  0.00  0.00    -0.372 N 
ATOM      3  N   UNL     1       6.849   5.834  -4.918  0.00  0.00    -0.372 N 
ATOM      4  C   UNL     1       6.697   6.471  -3.752  0.00  0.00    +0.166 C 
ATOM      5  H   UNL     1       6.162   8.161  -2.768  0.00  0.00    +0.163 HD
ATOM      6  H   UNL     1       7.283   4.839  -2.647  0.00  0.00    +0.159 HD
ATOM      7  H   UNL     1       6.887   6.233  -1.715  0.00  0.00    +0.159 HD
ATOM      8  H   UNL     1       6.655   6.283  -5.803  0.00  0.00    +0.159 HD
ATOM      9  H   UNL     1       7.152   4.868  -4.959  0.00  0.00    +0.159 HD
ENDROOT
BRANCH   1  10
ATOM     10  C   UNL     1       6.017   8.581  -4.851  0.00  0.00    +0.151 C 
BRANCH  10  11
ATOM     11  C   UNL     1       4.576   9.012  -4.825  0.00  0.00    -0.028 A 
ATOM     12  C   UNL     1       3.877   9.233  -6.020  0.00  0.00    +0.005 A 
ATOM     13  C   UNL     1       3.903   9.194  -3.607  0.00  0.00    +0.005 A 
ATOM     14  C   UNL     1       2.530   9.604  -5.996  0.00  0.00    +0.000 A 
ATOM     15  C   UNL     1       2.558   9.565  -3.587  0.00  0.00    +0.000 A 
ATOM     16  C   UNL     1       1.872   9.768  -4.782  0.00  0.00    +0.000 A 
ENDBRANCH  10  11
ENDBRANCH   1  10
TORSDOF 2
ENDMDL
MODEL 7
REMARK VINA RESULT:    -4.476      2.558      3.259
REMARK INTER + INTRA:          -5.136
REMARK INTER:                  -5.003
REMARK INTRA:                  -0.133
REMARK UNBOUND:                -0.137
REMARK  Name = 1550473
REMARK  2 active torsions:
REMARK  status: ('A' for Active; 'I' for Inactive)
REMARK    1  A    between atoms: N_1  and  C_4
REMARK    2  A    between atoms: C_4  and  C_5
REMARK                            x       y       z     vdW  Elec       q    Type
REMARK                         _______ _______ _______ _____ _____    ______ ____
ROOT
ATOM      1  N   UNL     1      12.057  -1.934  -5.419  0.00  0.00    -0.354 N 
ATOM      2  N   UNL     1      13.930  -2.507  -4.183  0.00  0.00    -0.372 N 
ATOM      3  N   UNL     1      13.892  -2.987  -6.427  0.00  0.00    -0.372 N 
ATOM      4  C   UNL     1      13.281  -2.474  -5.354  0.00  0.00    +0.166 C 
ATOM      5  H   UNL     1      11.637  -1.589  -4.564  0.00  0.00    +0.163 HD
ATOM      6  H   UNL     1      14.856  -2.905  -4.104  0.00  0.00    +0.159 HD
ATOM      7  H   UNL     1      13.526  -2.120  -3.339  0.00  0.00    +0.159 HD
ATOM      8  H   UNL     1      13.454  -2.998  -7.338  0.00  0.00    +0.159 HD
ATOM      9  H   UNL     1      14.814  -3.401  -6.365  0.00  0.00    +0.159 HD
ENDROOT
BRANCH   1  10
ATOM     10  C   UNL     1      11.287  -1.800  -6.655  0.00  0.00    +0.151 C 
BRANCH  10  11
ATOM     11  C   UNL     1       9.832  -2.033  -6.355  0.00  0.00    -0.028 A 
ATOM     12  C   UNL     1       9.447  -2.953  -5.369  0.00  0.00    +0.005 A 
ATOM     13  C   UNL     1       8.834  -1.335  -7.051  0.00  0.00    +0.005 A 
ATOM     14  C   UNL     1       8.097  -3.148  -5.069  0.00  0.00    +0.000 A 
ATOM     15  C   UNL     1       7.487  -1.533  -6.750  0.00  0.00    +0.000 A 
ATOM     16  C   UNL     1       7.119  -2.438  -5.757  0.00  0.00    +0.000 A 
ENDBRANCH  10  11
ENDBRANCH   1  10
TORSDOF 2
ENDMDL
MODEL 8
REMARK VINA RESULT:    -4.384      3.095      4.056
REMARK INTER + INTRA:          -5.033
REMARK INTER:                  -4.938
REMARK INTRA:                  -0.095
REMARK UNBOUND:                -0.137
REMARK  Name = 1550473
REMARK  2 active torsions:
REMARK  status: ('A' for Active; 'I' for Inactive)
REMARK    1  A    between atoms: N_1  and  C_4
REMARK    2  A    between atoms: C_4  and  C_5
REMARK                            x       y       z     vdW  Elec       q    Type
REMARK                         _______ _______ _______ _____ _____    ______ ____
ROOT
ATOM      1  N   UNL     1      11.809  -2.759  -3.666  0.00  0.00    -0.354 N 
ATOM      2  N   UNL     1      13.909  -3.430  -2.955  0.00  0.00    -0.372 N 
ATOM      3  N   UNL     1      12.691  -2.009  -1.628  0.00  0.00    -0.372 N 
ATOM      4  C   UNL     1      12.788  -2.726  -2.752  0.00  0.00    +0.166 C 
ATOM      5  H   UNL     1      11.957  -3.298  -4.511  0.00  0.00    +0.163 HD
ATOM      6  H   UNL     1      14.663  -3.428  -2.282  0.00  0.00    +0.159 HD
ATOM      7  H   UNL     1      14.035  -4.005  -3.779  0.00  0.00    +0.159 HD
ATOM      8  H   UNL     1      11.874  -1.451  -1.418  0.00  0.00    +0.159 HD
ATOM      9  H   UNL     1      13.440  -1.984  -0.948  0.00  0.00    +0.159 HD
ENDROOT
BRANCH   1  10
ATOM     10  C   UNL     1      10.528  -2.071  -3.516  0.00  0.00    +0.151 C 
BRANCH  10  11
ATOM     11  C   UNL     1       9.732  -2.234  -4.781  0.00  0.00    -0.028 A 
ATOM     12  C   UNL     1       8.590  -3.048  -4.804  0.00  0.00    +0.005 A 
ATOM     13  C   UNL     1      10.111  -1.573  -5.959  0.00  0.00    +0.005 A 
ATOM     14  C   UNL     1       7.833  -3.175  -5.971  0.00  0.00    +0.000 A 
ATOM     15  C   UNL     1       9.354  -1.704  -7.123  0.00  0.00    +0.000 A 
ATOM     16  C   UNL     1       8.213  -2.503  -7.128  0.00  0.00    +0.000 A 
ENDBRANCH  10  11
ENDBRANCH   1  10
TORSDOF 2
ENDMDL
MODEL 9
REMARK VINA RESULT:    -4.346     21.793     23.093
REMARK INTER + INTRA:          -4.991
REMARK INTER:                  -4.873
REMARK INTRA:                  -0.118
REMARK UNBOUND:                -0.137
REMARK  Name = 1550473
REMARK  2 active torsions:
REMARK  status: ('A' for Active; 'I' for Inactive)
REMARK    1  A    between atoms: N_1  and  C_4
REMARK    2  A    between atoms: C_4  and  C_5
REMARK                            x       y       z     vdW  Elec       q    Type
REMARK                         _______ _______ _______ _____ _____    ______ ____
ROOT
ATOM      1  N   UNL     1     -11.026  -2.544 -12.087  0.00  0.00    -0.354 N 
ATOM      2  N   UNL     1     -10.180  -4.227 -13.434  0.00  0.00    -0.372 N 
ATOM      3  N   UNL     1      -8.781  -3.198 -11.935  0.00  0.00    -0.372 N 
ATOM      4  C   UNL     1      -9.999  -3.311 -12.475  0.00  0.00    +0.166 C 
ATOM      5  H   UNL     1     -11.916  -2.658 -12.557  0.00  0.00    +0.163 HD
ATOM      6  H   UNL     1      -9.424  -4.822 -13.746  0.00  0.00    +0.159 HD
ATOM      7  H   UNL     1     -11.083  -4.370 -13.870  0.00  0.00    +0.159 HD
ATOM      8  H   UNL     1      -8.577  -2.522 -11.211  0.00  0.00    +0.159 HD
ATOM      9  H   UNL     1      -8.009  -3.777 -12.241  0.00  0.00    +0.159 HD
ENDROOT
BRANCH   1  10
ATOM     10  C   UNL     1     -10.947  -1.554 -11.014  0.00  0.00    +0.151 C 
BRANCH  10  11
ATOM     11  C   UNL     1     -12.320  -1.344 -10.438  0.00  0.00    -0.028 A 
ATOM     12  C   UNL     1     -12.830  -0.049 -10.265  0.00  0.00    +0.005 A 
ATOM     13  C   UNL     1     -13.120  -2.437 -10.068  0.00  0.00    +0.005 A 
ATOM     14  C   UNL     1     -14.117   0.146  -9.758  0.00  0.00    +0.000 A 
ATOM     15  C   UNL     1     -14.404  -2.238  -9.561  0.00  0.00    +0.000 A 
ATOM     16  C   UNL     1     -14.903  -0.947  -9.409  0.00  0.00    +0.000 A 
ENDBRANCH  10  11
ENDBRANCH   1  10
TORSDOF 2
ENDMDL
