MODEL 1
REMARK VINA RESULT:    -5.783      0.000      0.000
REMARK INTER + INTRA:          -6.563
REMARK INTER:                  -6.459
REMARK INTRA:                  -0.104
REMARK UNBOUND:                -0.104
REMARK  Name = 1550473
REMARK  2 active torsions:
REMARK  status: ('A' for Active; 'I' for Inactive)
REMARK    1  A    between atoms: N_1  and  C_4
REMARK    2  A    between atoms: C_4  and  C_5
REMARK                            x       y       z     vdW  Elec       q    Type
REMARK                         _______ _______ _______ _____ _____    ______ ____
ROOT
ATOM      1  N   UNL     1      -5.985   3.991   3.597  0.00  0.00    -0.354 N 
ATOM      2  N   UNL     1      -5.613   5.306   1.727  0.00  0.00    -0.372 N 
ATOM      3  N   UNL     1      -7.235   3.685   1.639  0.00  0.00    -0.372 N 
ATOM      4  C   UNL     1      -6.282   4.317   2.332  0.00  0.00    +0.166 C 
ATOM      5  H   UNL     1      -5.232   4.489   4.058  0.00  0.00    +0.163 HD
ATOM      6  H   UNL     1      -5.818   5.577   0.775  0.00  0.00    +0.159 HD
ATOM      7  H   UNL     1      -4.892   5.832   2.206  0.00  0.00    +0.159 HD
ATOM      8  H   UNL     1      -7.772   2.926   2.036  0.00  0.00    +0.159 HD
ATOM      9  H   UNL     1      -7.446   3.933   0.680  0.00  0.00    +0.159 HD
ENDROOT
BRANCH   1  10
ATOM     10  C   UNL     1      -6.690   2.966   4.365  0.00  0.00    +0.151 C 
BRANCH  10  11
ATOM     11  C   UNL     1      -7.538   3.633   5.412  0.00  0.00    -0.028 A 
ATOM     12  C   UNL     1      -8.503   4.583   5.048  0.00  0.00    +0.005 A 
ATOM     13  C   UNL     1      -7.386   3.314   6.770  0.00  0.00    +0.005 A 
ATOM     14  C   UNL     1      -9.312   5.181   6.017  0.00  0.00    +0.000 A 
ATOM     15  C   UNL     1      -8.195   3.913   7.735  0.00  0.00    +0.000 A 
ATOM     16  C   UNL     1      -9.160   4.845   7.358  0.00  0.00    +0.000 A 
ENDBRANCH  10  11
ENDBRANCH   1  10
TORSDOF 2
ENDMDL
MODEL 2
REMARK VINA RESULT:    -5.674      9.118     11.443
REMARK INTER + INTRA:          -6.441
REMARK INTER:                  -6.298
REMARK INTRA:                  -0.144
REMARK UNBOUND:                -0.104
REMARK  Name = 1550473
REMARK  2 active torsions:
REMARK  status: ('A' for Active; 'I' for Inactive)
REMARK    1  A    between atoms: N_1  and  C_4
REMARK    2  A    between atoms: C_4  and  C_5
REMARK                            x       y       z     vdW  Elec       q    Type
REMARK                         _______ _______ _______ _____ _____    ______ ____
ROOT
ATOM      1  N   UNL     1      -7.409   2.507  -4.386  0.00  0.00    -0.354 N 
ATOM      2  N   UNL     1      -5.844   2.145  -2.718  0.00  0.00    -0.372 N 
ATOM      3  N   UNL     1      -5.924   0.698  -4.497  0.00  0.00    -0.372 N 
ATOM      4  C   UNL     1      -6.402   1.784  -3.880  0.00  0.00    +0.166 C 
ATOM      5  H   UNL     1      -7.746   3.302  -3.854  0.00  0.00    +0.163 HD
ATOM      6  H   UNL     1      -5.080   1.621  -2.313  0.00  0.00    +0.159 HD
ATOM      7  H   UNL     1      -6.152   2.967  -2.212  0.00  0.00    +0.159 HD
ATOM      8  H   UNL     1      -6.306   0.369  -5.374  0.00  0.00    +0.159 HD
ATOM      9  H   UNL     1      -5.168   0.154  -4.102  0.00  0.00    +0.159 HD
ENDROOT
BRANCH   1  10
ATOM     10  C   UNL     1      -8.051   2.230  -5.670  0.00  0.00    +0.151 C 
BRANCH  10  11
ATOM     11  C   UNL     1      -8.092   3.495  -6.482  0.00  0.00    -0.028 A 
ATOM     12  C   UNL     1      -7.674   4.713  -5.925  0.00  0.00    +0.005 A 
ATOM     13  C   UNL     1      -8.541   3.482  -7.812  0.00  0.00    +0.005 A 
ATOM     14  C   UNL     1      -7.684   5.883  -6.688  0.00  0.00    +0.000 A 
ATOM     15  C   UNL     1      -8.550   4.652  -8.570  0.00  0.00    +0.000 A 
ATOM     16  C   UNL     1      -8.119   5.852  -8.009  0.00  0.00    +0.000 A 
ENDBRANCH  10  11
ENDBRANCH   1  10
TORSDOF 2
ENDMDL
MODEL 3
REMARK VINA RESULT:    -5.370     19.378     20.832
REMARK INTER + INTRA:          -6.101
REMARK INTER:                  -5.932
REMARK INTRA:                  -0.169
REMARK UNBOUND:                -0.104
REMARK  Name = 1550473
REMARK  2 active torsions:
REMARK  status: ('A' for Active; 'I' for Inactive)
REMARK    1  A    between atoms: N_1  and  C_4
REMARK    2  A    between atoms: C_4  and  C_5
REMARK                            x       y       z     vdW  Elec       q    Type
REMARK                         _______ _______ _______ _____ _____    ______ ____
ROOT
ATOM      1  N   UNL     1       2.108   5.965 -15.105  0.00  0.00    -0.354 N 
ATOM      2  N   UNL     1       4.025   7.100 -14.471  0.00  0.00    -0.372 N 
ATOM      3  N   UNL     1       2.386   8.238 -15.604  0.00  0.00    -0.372 N 
ATOM      4  C   UNL     1       2.825   7.096 -15.066  0.00  0.00    +0.166 C 
ATOM      5  H   UNL     1       2.511   5.125 -14.705  0.00  0.00    +0.163 HD
ATOM      6  H   UNL     1       4.587   7.939 -14.422  0.00  0.00    +0.159 HD
ATOM      7  H   UNL     1       4.405   6.270 -14.032  0.00  0.00    +0.159 HD
ATOM      8  H   UNL     1       1.492   8.300 -16.072  0.00  0.00    +0.159 HD
ATOM      9  H   UNL     1       2.939   9.085 -15.576  0.00  0.00    +0.159 HD
ENDROOT
BRANCH   1  10
ATOM     10  C   UNL     1       0.768   5.867 -15.681  0.00  0.00    +0.151 C 
BRANCH  10  11
ATOM     11  C   UNL     1      -0.250   6.089 -14.597  0.00  0.00    -0.028 A 
ATOM     12  C   UNL     1      -1.282   7.024 -14.771  0.00  0.00    +0.005 A 
ATOM     13  C   UNL     1      -0.193   5.365 -13.397  0.00  0.00    +0.005 A 
ATOM     14  C   UNL     1      -2.245   7.210 -13.776  0.00  0.00    +0.000 A 
ATOM     15  C   UNL     1      -1.156   5.553 -12.407  0.00  0.00    +0.000 A 
ATOM     16  C   UNL     1      -2.184   6.474 -12.598  0.00  0.00    +0.000 A 
ENDBRANCH  10  11
ENDBRANCH   1  10
TORSDOF 2
ENDMDL
MODEL 4
REMARK VINA RESULT:    -5.323      3.634      5.175
REMARK INTER + INTRA:          -6.049
REMARK INTER:                  -5.909
REMARK INTRA:                  -0.140
REMARK UNBOUND:                -0.104
REMARK  Name = 1550473
REMARK  2 active torsions:
REMARK  status: ('A' for Active; 'I' for Inactive)
REMARK    1  A    between atoms: N_1  and  C_4
REMARK    2  A    between atoms: C_4  and  C_5
REMARK                            x       y       z     vdW  Elec       q    Type
REMARK                         _______ _______ _______ _____ _____    ______ ____
ROOT
ATOM      1  N   UNL     1      -7.003   3.705   8.833  0.00  0.00    -0.354 N 
ATOM      2  N   UNL     1      -6.254   4.990  10.609  0.00  0.00    -0.372 N 
ATOM      3  N   UNL     1      -8.511   4.832  10.227  0.00  0.00    -0.372 N 
ATOM      4  C   UNL     1      -7.264   4.501   9.878  0.00  0.00    +0.166 C 
ATOM      5  H   UNL     1      -6.034   3.517   8.602  0.00  0.00    +0.163 HD
ATOM      6  H   UNL     1      -6.420   5.590  11.405  0.00  0.00    +0.159 HD
ATOM      7  H   UNL     1      -5.289   4.762  10.403  0.00  0.00    +0.159 HD
ATOM      8  H   UNL     1      -9.317   4.502   9.713  0.00  0.00    +0.159 HD
ATOM      9  H   UNL     1      -8.697   5.441  11.014  0.00  0.00    +0.159 HD
ENDROOT
BRANCH   1  10
ATOM     10  C   UNL     1      -8.032   3.078   8.005  0.00  0.00    +0.151 C 
BRANCH  10  11
ATOM     11  C   UNL     1      -7.798   3.448   6.566  0.00  0.00    -0.028 A 
ATOM     12  C   UNL     1      -8.396   4.592   6.019  0.00  0.00    +0.005 A 
ATOM     13  C   UNL     1      -6.974   2.661   5.747  0.00  0.00    +0.005 A 
ATOM     14  C   UNL     1      -8.155   4.952   4.691  0.00  0.00    +0.000 A 
ATOM     15  C   UNL     1      -6.736   3.024   4.421  0.00  0.00    +0.000 A 
ATOM     16  C   UNL     1      -7.325   4.170   3.894  0.00  0.00    +0.000 A 
ENDBRANCH  10  11
ENDBRANCH   1  10
TORSDOF 2
ENDMDL
MODEL 5
REMARK VINA RESULT:    -5.060     21.425     22.357
REMARK INTER + INTRA:          -5.756
REMARK INTER:                  -5.653
REMARK INTRA:                  -0.103
REMARK UNBOUND:                -0.104
REMARK  Name = 1550473
REMARK  2 active torsions:
REMARK  status: ('A' for Active; 'I' for Inactive)
REMARK    1  A    between atoms: N_1  and  C_4
REMARK    2  A    between atoms: C_4  and  C_5
REMARK                            x       y       z     vdW  Elec       q    Type
REMARK                         _______ _______ _______ _____ _____    ______ ____
ROOT
ATOM      1  N   UNL     1       3.928   7.135 -14.157  0.00  0.00    -0.354 N 
ATOM      2  N   UNL     1       5.631   7.118 -12.589  0.00  0.00    -0.372 N 
ATOM      3  N   UNL     1       6.142   6.692 -14.785  0.00  0.00    -0.372 N 
ATOM      4  C   UNL     1       5.224   6.981 -13.856  0.00  0.00    +0.166 C 
ATOM      5  H   UNL     1       3.277   7.323 -13.403  0.00  0.00    +0.163 HD
ATOM      6  H   UNL     1       6.603   7.012 -12.332  0.00  0.00    +0.159 HD
ATOM      7  H   UNL     1       4.986   7.352 -11.844  0.00  0.00    +0.159 HD
ATOM      8  H   UNL     1       5.898   6.570 -15.759  0.00  0.00    +0.159 HD
ATOM      9  H   UNL     1       7.118   6.570 -14.545  0.00  0.00    +0.159 HD
ENDROOT
BRANCH   1  10
ATOM     10  C   UNL     1       3.389   7.059 -15.514  0.00  0.00    +0.151 C 
BRANCH  10  11
ATOM     11  C   UNL     1       1.908   6.809 -15.442  0.00  0.00    -0.028 A 
ATOM     12  C   UNL     1       1.416   5.564 -15.020  0.00  0.00    +0.005 A 
ATOM     13  C   UNL     1       0.991   7.813 -15.787  0.00  0.00    +0.005 A 
ATOM     14  C   UNL     1       0.041   5.341 -14.924  0.00  0.00    +0.000 A 
ATOM     15  C   UNL     1      -0.382   7.586 -15.690  0.00  0.00    +0.000 A 
ATOM     16  C   UNL     1      -0.857   6.350 -15.256  0.00  0.00    +0.000 A 
ENDBRANCH  10  11
ENDBRANCH   1  10
TORSDOF 2
ENDMDL
MODEL 6
REMARK VINA RESULT:    -5.047     20.693     22.021
REMARK INTER + INTRA:          -5.741
REMARK INTER:                  -5.612
REMARK INTRA:                  -0.129
REMARK UNBOUND:                -0.104
REMARK  Name = 1550473
REMARK  2 active torsions:
REMARK  status: ('A' for Active; 'I' for Inactive)
REMARK    1  A    between atoms: N_1  and  C_4
REMARK    2  A    between atoms: C_4  and  C_5
REMARK                            x       y       z     vdW  Elec       q    Type
REMARK                         _______ _______ _______ _____ _____    ______ ____
ROOT
ATOM      1  N   UNL     1       2.361   6.268 -15.725  0.00  0.00    -0.354 N 
ATOM      2  N   UNL     1       4.214   7.498 -16.370  0.00  0.00    -0.372 N 
ATOM      3  N   UNL     1       3.851   7.128 -14.134  0.00  0.00    -0.372 N 
ATOM      4  C   UNL     1       3.463   6.957 -15.403  0.00  0.00    +0.166 C 
ATOM      5  H   UNL     1       2.105   6.200 -16.703  0.00  0.00    +0.163 HD
ATOM      6  H   UNL     1       5.054   8.020 -16.157  0.00  0.00    +0.159 HD
ATOM      7  H   UNL     1       3.981   7.389 -17.349  0.00  0.00    +0.159 HD
ATOM      8  H   UNL     1       3.325   6.750 -13.358  0.00  0.00    +0.159 HD
ATOM      9  H   UNL     1       4.682   7.657 -13.901  0.00  0.00    +0.159 HD
ENDROOT
BRANCH   1  10
ATOM     10  C   UNL     1       1.504   5.594 -14.751  0.00  0.00    +0.151 C 
BRANCH  10  11
ATOM     11  C   UNL     1       0.065   5.798 -15.139  0.00  0.00    -0.028 A 
ATOM     12  C   UNL     1      -0.945   5.769 -14.166  0.00  0.00    +0.005 A 
ATOM     13  C   UNL     1      -0.294   6.027 -16.476  0.00  0.00    +0.005 A 
ATOM     14  C   UNL     1      -2.278   5.988 -14.521  0.00  0.00    +0.000 A 
ATOM     15  C   UNL     1      -1.626   6.244 -16.826  0.00  0.00    +0.000 A 
ATOM     16  C   UNL     1      -2.618   6.228 -15.848  0.00  0.00    +0.000 A 
ENDBRANCH  10  11
ENDBRANCH   1  10
TORSDOF 2
ENDMDL
MODEL 7
REMARK VINA RESULT:    -5.007     19.156     21.101
REMARK INTER + INTRA:          -5.696
REMARK INTER:                  -5.560
REMARK INTRA:                  -0.135
REMARK UNBOUND:                -0.104
REMARK  Name = 1550473
REMARK  2 active torsions:
REMARK  status: ('A' for Active; 'I' for Inactive)
REMARK    1  A    between atoms: N_1  and  C_4
REMARK    2  A    between atoms: C_4  and  C_5
REMARK                            x       y       z     vdW  Elec       q    Type
REMARK                         _______ _______ _______ _____ _____    ______ ____
ROOT
ATOM      1  N   UNL     1      -2.199   6.345 -17.067  0.00  0.00    -0.354 N 
ATOM      2  N   UNL     1      -3.242   7.481 -18.795  0.00  0.00    -0.372 N 
ATOM      3  N   UNL     1      -0.979   7.728 -18.513  0.00  0.00    -0.372 N 
ATOM      4  C   UNL     1      -2.131   7.178 -18.114  0.00  0.00    +0.166 C 
ATOM      5  H   UNL     1      -3.108   5.985 -16.797  0.00  0.00    +0.163 HD
ATOM      6  H   UNL     1      -3.221   8.105 -19.591  0.00  0.00    +0.159 HD
ATOM      7  H   UNL     1      -4.142   7.085 -18.551  0.00  0.00    +0.159 HD
ATOM      8  H   UNL     1      -0.105   7.544 -18.037  0.00  0.00    +0.159 HD
ATOM      9  H   UNL     1      -0.939   8.363 -19.300  0.00  0.00    +0.159 HD
ENDROOT
BRANCH   1  10
ATOM     10  C   UNL     1      -1.039   5.908 -16.292  0.00  0.00    +0.151 C 
BRANCH  10  11
ATOM     11  C   UNL     1      -1.418   5.840 -14.838  0.00  0.00    -0.028 A 
ATOM     12  C   UNL     1      -2.747   6.038 -14.439  0.00  0.00    +0.005 A 
ATOM     13  C   UNL     1      -0.452   5.572 -13.856  0.00  0.00    +0.005 A 
ATOM     14  C   UNL     1      -3.104   5.945 -13.091  0.00  0.00    +0.000 A 
ATOM     15  C   UNL     1      -0.812   5.481 -12.512  0.00  0.00    +0.000 A 
ATOM     16  C   UNL     1      -2.139   5.665 -12.130  0.00  0.00    +0.000 A 
ENDBRANCH  10  11
ENDBRANCH   1  10
TORSDOF 2
ENDMDL
MODEL 8
REMARK VINA RESULT:    -4.998     13.328     14.407
REMARK INTER + INTRA:          -5.686
REMARK INTER:                  -5.545
REMARK INTRA:                  -0.142
REMARK UNBOUND:                -0.104
REMARK  Name = 1550473
REMARK  2 active torsions:
REMARK  status: ('A' for Active; 'I' for Inactive)
REMARK    1  A    between atoms: N_1  and  C_4
REMARK    2  A    between atoms: C_4  and  C_5
REMARK                            x       y       z     vdW  Elec       q    Type
REMARK                         _______ _______ _______ _____ _____    ______ ____
ROOT
ATOM      1  N   UNL     1     -14.006  -3.070  -5.654  0.00  0.00    -0.354 N 
ATOM      2  N   UNL     1     -15.770  -1.935  -6.637  0.00  0.00    -0.372 N 
ATOM      3  N   UNL     1     -14.901  -3.772  -7.703  0.00  0.00    -0.372 N 
ATOM      4  C   UNL     1     -14.881  -2.935  -6.660  0.00  0.00    +0.166 C 
ATOM      5  H   UNL     1     -14.022  -2.385  -4.907  0.00  0.00    +0.163 HD
ATOM      6  H   UNL     1     -16.444  -1.810  -7.380  0.00  0.00    +0.159 HD
ATOM      7  H   UNL     1     -15.814  -1.279  -5.866  0.00  0.00    +0.159 HD
ATOM      8  H   UNL     1     -14.252  -4.543  -7.784  0.00  0.00    +0.159 HD
ATOM      9  H   UNL     1     -15.561  -3.656  -8.463  0.00  0.00    +0.159 HD
ENDROOT
BRANCH   1  10
ATOM     10  C   UNL     1     -13.032  -4.156  -5.557  0.00  0.00    +0.151 C 
BRANCH  10  11
ATOM     11  C   UNL     1     -13.190  -4.840  -4.228  0.00  0.00    -0.028 A 
ATOM     12  C   UNL     1     -13.762  -4.162  -3.141  0.00  0.00    +0.005 A 
ATOM     13  C   UNL     1     -12.775  -6.169  -4.049  0.00  0.00    +0.005 A 
ATOM     14  C   UNL     1     -13.936  -4.807  -1.914  0.00  0.00    +0.000 A 
ATOM     15  C   UNL     1     -12.950  -6.809  -2.823  0.00  0.00    +0.000 A 
ATOM     16  C   UNL     1     -13.533  -6.129  -1.756  0.00  0.00    +0.000 A 
ENDBRANCH  10  11
ENDBRANCH   1  10
TORSDOF 2
ENDMDL
MODEL 9
REMARK VINA RESULT:    -4.943     18.865     20.407
REMARK INTER + INTRA:          -5.625
REMARK INTER:                  -5.477
REMARK INTRA:                  -0.148
REMARK UNBOUND:                -0.104
REMARK  Name = 1550473
REMARK  2 active torsions:
REMARK  status: ('A' for Active; 'I' for Inactive)
REMARK    1  A    between atoms: N_1  and  C_4
REMARK    2  A    between atoms: C_4  and  C_5
REMARK                            x       y       z     vdW  Elec       q    Type
REMARK                         _______ _______ _______ _____ _____    ______ ____
ROOT
ATOM      1  N   UNL     1      -0.969   6.544 -16.434  0.00  0.00    -0.354 N 
ATOM      2  N   UNL     1      -1.168   4.992 -18.142  0.00  0.00    -0.372 N 
ATOM      3  N   UNL     1       0.103   4.465 -16.306  0.00  0.00    -0.372 N 
ATOM      4  C   UNL     1      -0.675   5.342 -16.948  0.00  0.00    +0.166 C 
ATOM      5  H   UNL     1      -1.540   7.176 -16.984  0.00  0.00    +0.163 HD
ATOM      6  H   UNL     1      -0.966   4.090 -18.553  0.00  0.00    +0.159 HD
ATOM      7  H   UNL     1      -1.776   5.607 -18.668  0.00  0.00    +0.159 HD
ATOM      8  H   UNL     1       0.512   4.671 -15.404  0.00  0.00    +0.159 HD
ATOM      9  H   UNL     1       0.327   3.562 -16.706  0.00  0.00    +0.159 HD
ENDROOT
BRANCH   1  10
ATOM     10  C   UNL     1      -0.527   7.002 -15.118  0.00  0.00    +0.151 C 
BRANCH  10  11
ATOM     11  C   UNL     1      -1.529   6.568 -14.085  0.00  0.00    -0.028 A 
ATOM     12  C   UNL     1      -2.839   7.069 -14.108  0.00  0.00    +0.005 A 
ATOM     13  C   UNL     1      -1.177   5.650 -13.083  0.00  0.00    +0.005 A 
ATOM     14  C   UNL     1      -3.779   6.644 -13.166  0.00  0.00    +0.000 A 
ATOM     15  C   UNL     1      -2.118   5.229 -12.144  0.00  0.00    +0.000 A 
ATOM     16  C   UNL     1      -3.419   5.723 -12.187  0.00  0.00    +0.000 A 
ENDBRANCH  10  11
ENDBRANCH   1  10
TORSDOF 2
ENDMDL
