MODEL 1
REMARK VINA RESULT:    -4.605      0.000      0.000
REMARK INTER + INTRA:          -5.288
REMARK INTER:                  -5.143
REMARK INTRA:                  -0.145
REMARK UNBOUND:                -0.145
REMARK  Name = 1550473
REMARK  2 active torsions:
REMARK  status: ('A' for Active; 'I' for Inactive)
REMARK    1  A    between atoms: N_1  and  C_4
REMARK    2  A    between atoms: C_4  and  C_5
REMARK                            x       y       z     vdW  Elec       q    Type
REMARK                         _______ _______ _______ _____ _____    ______ ____
ROOT
ATOM      1  N   UNL     1       6.184  -6.061   3.020  0.00  0.00    -0.354 N 
ATOM      2  N   UNL     1       4.524  -5.488   1.510  0.00  0.00    -0.372 N 
ATOM      3  N   UNL     1       6.694  -4.906   1.047  0.00  0.00    -0.372 N 
ATOM      4  C   UNL     1       5.814  -5.487   1.868  0.00  0.00    +0.166 C 
ATOM      5  H   UNL     1       5.464  -6.458   3.613  0.00  0.00    +0.163 HD
ATOM      6  H   UNL     1       4.215  -5.066   0.645  0.00  0.00    +0.159 HD
ATOM      7  H   UNL     1       3.813  -5.926   2.083  0.00  0.00    +0.159 HD
ATOM      8  H   UNL     1       7.682  -4.866   1.261  0.00  0.00    +0.159 HD
ATOM      9  H   UNL     1       6.403  -4.467   0.182  0.00  0.00    +0.159 HD
ENDROOT
BRANCH   1  10
ATOM     10  C   UNL     1       7.569  -6.162   3.476  0.00  0.00    +0.151 C 
BRANCH  10  11
ATOM     11  C   UNL     1       7.843  -5.061   4.464  0.00  0.00    -0.028 A 
ATOM     12  C   UNL     1       9.135  -4.535   4.603  0.00  0.00    +0.005 A 
ATOM     13  C   UNL     1       6.812  -4.536   5.259  0.00  0.00    +0.005 A 
ATOM     14  C   UNL     1       9.384  -3.492   5.499  0.00  0.00    +0.000 A 
ATOM     15  C   UNL     1       7.065  -3.496   6.152  0.00  0.00    +0.000 A 
ATOM     16  C   UNL     1       8.350  -2.972   6.270  0.00  0.00    +0.000 A 
ENDBRANCH  10  11
ENDBRANCH   1  10
TORSDOF 2
ENDMDL
MODEL 2
REMARK VINA RESULT:    -4.215     19.133     19.728
REMARK INTER + INTRA:          -4.853
REMARK INTER:                  -4.719
REMARK INTRA:                  -0.134
REMARK UNBOUND:                -0.145
REMARK  Name = 1550473
REMARK  2 active torsions:
REMARK  status: ('A' for Active; 'I' for Inactive)
REMARK    1  A    between atoms: N_1  and  C_4
REMARK    2  A    between atoms: C_4  and  C_5
REMARK                            x       y       z     vdW  Elec       q    Type
REMARK                         _______ _______ _______ _____ _____    ______ ____
ROOT
ATOM      1  N   UNL     1     -10.625   2.881  -1.567  0.00  0.00    -0.354 N 
ATOM      2  N   UNL     1     -11.960   1.060  -2.082  0.00  0.00    -0.372 N 
ATOM      3  N   UNL     1     -10.461   0.883  -0.354  0.00  0.00    -0.372 N 
ATOM      4  C   UNL     1     -11.005   1.618  -1.329  0.00  0.00    +0.166 C 
ATOM      5  H   UNL     1     -11.055   3.375  -2.341  0.00  0.00    +0.163 HD
ATOM      6  H   UNL     1     -12.270   0.110  -1.924  0.00  0.00    +0.159 HD
ATOM      7  H   UNL     1     -12.421   1.571  -2.825  0.00  0.00    +0.159 HD
ATOM      8  H   UNL     1      -9.732   1.244   0.246  0.00  0.00    +0.159 HD
ATOM      9  H   UNL     1     -10.750  -0.073  -0.187  0.00  0.00    +0.159 HD
ENDROOT
BRANCH   1  10
ATOM     10  C   UNL     1      -9.632   3.600  -0.771  0.00  0.00    +0.151 C 
BRANCH  10  11
ATOM     11  C   UNL     1      -8.836   4.500  -1.676  0.00  0.00    -0.028 A 
ATOM     12  C   UNL     1      -8.022   5.508  -1.139  0.00  0.00    +0.005 A 
ATOM     13  C   UNL     1      -8.887   4.346  -3.069  0.00  0.00    +0.005 A 
ATOM     14  C   UNL     1      -7.259   6.325  -1.977  0.00  0.00    +0.000 A 
ATOM     15  C   UNL     1      -8.125   5.164  -3.903  0.00  0.00    +0.000 A 
ATOM     16  C   UNL     1      -7.309   6.152  -3.356  0.00  0.00    +0.000 A 
ENDBRANCH  10  11
ENDBRANCH   1  10
TORSDOF 2
ENDMDL
MODEL 3
REMARK VINA RESULT:    -4.204      5.571      8.493
REMARK INTER + INTRA:          -4.841
REMARK INTER:                  -4.708
REMARK INTRA:                  -0.132
REMARK UNBOUND:                -0.145
REMARK  Name = 1550473
REMARK  2 active torsions:
REMARK  status: ('A' for Active; 'I' for Inactive)
REMARK    1  A    between atoms: N_1  and  C_4
REMARK    2  A    between atoms: C_4  and  C_5
REMARK                            x       y       z     vdW  Elec       q    Type
REMARK                         _______ _______ _______ _____ _____    ______ ____
ROOT
ATOM      1  N   UNL     1       6.212  -7.692  -1.031  0.00  0.00    -0.354 N 
ATOM      2  N   UNL     1       6.588  -6.637   0.997  0.00  0.00    -0.372 N 
ATOM      3  N   UNL     1       4.426  -6.947   0.292  0.00  0.00    -0.372 N 
ATOM      4  C   UNL     1       5.737  -7.098   0.073  0.00  0.00    +0.166 C 
ATOM      5  H   UNL     1       7.216  -7.749  -1.152  0.00  0.00    +0.163 HD
ATOM      6  H   UNL     1       6.259  -6.187   1.841  0.00  0.00    +0.159 HD
ATOM      7  H   UNL     1       7.590  -6.736   0.894  0.00  0.00    +0.159 HD
ATOM      8  H   UNL     1       3.732  -7.268  -0.369  0.00  0.00    +0.159 HD
ATOM      9  H   UNL     1       4.078  -6.489   1.125  0.00  0.00    +0.159 HD
ENDROOT
BRANCH   1  10
ATOM     10  C   UNL     1       5.369  -8.277  -2.072  0.00  0.00    +0.151 C 
BRANCH  10  11
ATOM     11  C   UNL     1       5.864  -7.822  -3.417  0.00  0.00    -0.028 A 
ATOM     12  C   UNL     1       7.224  -7.549  -3.620  0.00  0.00    +0.005 A 
ATOM     13  C   UNL     1       4.977  -7.668  -4.495  0.00  0.00    +0.005 A 
ATOM     14  C   UNL     1       7.689  -7.156  -4.878  0.00  0.00    +0.000 A 
ATOM     15  C   UNL     1       5.445  -7.274  -5.748  0.00  0.00    +0.000 A 
ATOM     16  C   UNL     1       6.801  -7.021  -5.940  0.00  0.00    +0.000 A 
ENDBRANCH  10  11
ENDBRANCH   1  10
TORSDOF 2
ENDMDL
MODEL 4
REMARK VINA RESULT:    -4.164     14.167     15.733
REMARK INTER + INTRA:          -4.795
REMARK INTER:                  -4.679
REMARK INTRA:                  -0.117
REMARK UNBOUND:                -0.145
REMARK  Name = 1550473
REMARK  2 active torsions:
REMARK  status: ('A' for Active; 'I' for Inactive)
REMARK    1  A    between atoms: N_1  and  C_4
REMARK    2  A    between atoms: C_4  and  C_5
REMARK                            x       y       z     vdW  Elec       q    Type
REMARK                         _______ _______ _______ _____ _____    ______ ____
ROOT
ATOM      1  N   UNL     1      -6.576  -9.064  -4.757  0.00  0.00    -0.354 N 
ATOM      2  N   UNL     1      -7.998  -7.398  -5.508  0.00  0.00    -0.372 N 
ATOM      3  N   UNL     1      -8.020  -7.954  -3.282  0.00  0.00    -0.372 N 
ATOM      4  C   UNL     1      -7.523  -8.150  -4.508  0.00  0.00    +0.166 C 
ATOM      5  H   UNL     1      -6.262  -9.185  -5.713  0.00  0.00    +0.163 HD
ATOM      6  H   UNL     1      -8.710  -6.698  -5.351  0.00  0.00    +0.159 HD
ATOM      7  H   UNL     1      -7.650  -7.488  -6.455  0.00  0.00    +0.159 HD
ATOM      8  H   UNL     1      -7.709  -8.494  -2.486  0.00  0.00    +0.159 HD
ATOM      9  H   UNL     1      -8.742  -7.267  -3.107  0.00  0.00    +0.159 HD
ENDROOT
BRANCH   1  10
ATOM     10  C   UNL     1      -5.953  -9.897  -3.729  0.00  0.00    +0.151 C 
BRANCH  10  11
ATOM     11  C   UNL     1      -4.482 -10.015  -4.017  0.00  0.00    -0.028 A 
ATOM     12  C   UNL     1      -3.542  -9.883  -2.985  0.00  0.00    +0.005 A 
ATOM     13  C   UNL     1      -4.022 -10.265  -5.319  0.00  0.00    +0.005 A 
ATOM     14  C   UNL     1      -2.177 -10.022  -3.247  0.00  0.00    +0.000 A 
ATOM     15  C   UNL     1      -2.659 -10.403  -5.577  0.00  0.00    +0.000 A 
ATOM     16  C   UNL     1      -1.736 -10.284  -4.540  0.00  0.00    +0.000 A 
ENDBRANCH  10  11
ENDBRANCH   1  10
TORSDOF 2
ENDMDL
MODEL 5
REMARK VINA RESULT:    -4.132     10.460     11.894
REMARK INTER + INTRA:          -4.759
REMARK INTER:                  -4.583
REMARK INTRA:                  -0.177
REMARK UNBOUND:                -0.145
REMARK  Name = 1550473
REMARK  2 active torsions:
REMARK  status: ('A' for Active; 'I' for Inactive)
REMARK    1  A    between atoms: N_1  and  C_4
REMARK    2  A    between atoms: C_4  and  C_5
REMARK                            x       y       z     vdW  Elec       q    Type
REMARK                         _______ _______ _______ _____ _____    ______ ____
ROOT
ATOM      1  N   UNL     1       4.648  -8.138  -8.983  0.00  0.00    -0.354 N 
ATOM      2  N   UNL     1       4.510  -6.649 -10.752  0.00  0.00    -0.372 N 
ATOM      3  N   UNL     1       3.431  -6.145  -8.790  0.00  0.00    -0.372 N 
ATOM      4  C   UNL     1       4.195  -6.986  -9.495  0.00  0.00    +0.166 C 
ATOM      5  H   UNL     1       5.199  -8.746  -9.579  0.00  0.00    +0.163 HD
ATOM      6  H   UNL     1       4.185  -5.784 -11.164  0.00  0.00    +0.159 HD
ATOM      7  H   UNL     1       5.098  -7.237 -11.330  0.00  0.00    +0.159 HD
ATOM      8  H   UNL     1       3.153  -6.344  -7.838  0.00  0.00    +0.159 HD
ATOM      9  H   UNL     1       3.087  -5.281  -9.189  0.00  0.00    +0.159 HD
ENDROOT
BRANCH   1  10
ATOM     10  C   UNL     1       4.408  -8.572  -7.608  0.00  0.00    +0.151 C 
BRANCH  10  11
ATOM     11  C   UNL     1       5.564  -8.141  -6.748  0.00  0.00    -0.028 A 
ATOM     12  C   UNL     1       6.828  -8.728  -6.906  0.00  0.00    +0.005 A 
ATOM     13  C   UNL     1       5.403  -7.140  -5.777  0.00  0.00    +0.005 A 
ATOM     14  C   UNL     1       7.908  -8.307  -6.127  0.00  0.00    +0.000 A 
ATOM     15  C   UNL     1       6.484  -6.723  -5.001  0.00  0.00    +0.000 A 
ATOM     16  C   UNL     1       7.737  -7.304  -5.178  0.00  0.00    +0.000 A 
ENDBRANCH  10  11
ENDBRANCH   1  10
TORSDOF 2
ENDMDL
MODEL 6
REMARK VINA RESULT:    -4.117     16.939     18.140
REMARK INTER + INTRA:          -4.743
REMARK INTER:                  -4.605
REMARK INTRA:                  -0.138
REMARK UNBOUND:                -0.145
REMARK  Name = 1550473
REMARK  2 active torsions:
REMARK  status: ('A' for Active; 'I' for Inactive)
REMARK    1  A    between atoms: N_1  and  C_4
REMARK    2  A    between atoms: C_4  and  C_5
REMARK                            x       y       z     vdW  Elec       q    Type
REMARK                         _______ _______ _______ _____ _____    ______ ____
ROOT
ATOM      1  N   UNL     1      -4.089   9.267   1.997  0.00  0.00    -0.354 N 
ATOM      2  N   UNL     1      -4.063   8.486   4.177  0.00  0.00    -0.372 N 
ATOM      3  N   UNL     1      -2.067   8.848   3.105  0.00  0.00    -0.372 N 
ATOM      4  C   UNL     1      -3.404   8.872   3.078  0.00  0.00    +0.166 C 
ATOM      5  H   UNL     1      -5.102   9.234   2.030  0.00  0.00    +0.163 HD
ATOM      6  H   UNL     1      -3.573   8.186   5.009  0.00  0.00    +0.159 HD
ATOM      7  H   UNL     1      -5.075   8.498   4.223  0.00  0.00    +0.159 HD
ATOM      8  H   UNL     1      -1.510   9.121   2.306  0.00  0.00    +0.159 HD
ATOM      9  H   UNL     1      -1.559   8.539   3.924  0.00  0.00    +0.159 HD
ENDROOT
BRANCH   1  10
ATOM     10  C   UNL     1      -3.467   9.758   0.769  0.00  0.00    +0.151 C 
BRANCH  10  11
ATOM     11  C   UNL     1      -3.782   8.809  -0.354  0.00  0.00    -0.028 A 
ATOM     12  C   UNL     1      -4.372   9.277  -1.537  0.00  0.00    +0.005 A 
ATOM     13  C   UNL     1      -3.488   7.441  -0.244  0.00  0.00    +0.005 A 
ATOM     14  C   UNL     1      -4.638   8.401  -2.593  0.00  0.00    +0.000 A 
ATOM     15  C   UNL     1      -3.756   6.569  -1.299  0.00  0.00    +0.000 A 
ATOM     16  C   UNL     1      -4.329   7.050  -2.474  0.00  0.00    +0.000 A 
ENDBRANCH  10  11
ENDBRANCH   1  10
TORSDOF 2
ENDMDL
MODEL 7
REMARK VINA RESULT:    -4.110      9.596     12.393
REMARK INTER + INTRA:          -4.735
REMARK INTER:                  -4.634
REMARK INTRA:                  -0.101
REMARK UNBOUND:                -0.145
REMARK  Name = 1550473
REMARK  2 active torsions:
REMARK  status: ('A' for Active; 'I' for Inactive)
REMARK    1  A    between atoms: N_1  and  C_4
REMARK    2  A    between atoms: C_4  and  C_5
REMARK                            x       y       z     vdW  Elec       q    Type
REMARK                         _______ _______ _______ _____ _____    ______ ____
ROOT
ATOM      1  N   UNL     1       6.084  -7.879  -5.311  0.00  0.00    -0.354 N 
ATOM      2  N   UNL     1       8.146  -8.294  -4.342  0.00  0.00    -0.372 N 
ATOM      3  N   UNL     1       7.727  -6.211  -5.210  0.00  0.00    -0.372 N 
ATOM      4  C   UNL     1       7.306  -7.456  -4.962  0.00  0.00    +0.166 C 
ATOM      5  H   UNL     1       5.835  -8.843  -5.122  0.00  0.00    +0.163 HD
ATOM      6  H   UNL     1       9.073  -8.002  -4.063  0.00  0.00    +0.159 HD
ATOM      7  H   UNL     1       7.878  -9.244  -4.113  0.00  0.00    +0.159 HD
ATOM      8  H   UNL     1       7.144  -5.532  -5.680  0.00  0.00    +0.159 HD
ATOM      9  H   UNL     1       8.656  -5.904  -4.949  0.00  0.00    +0.159 HD
ENDROOT
BRANCH   1  10
ATOM     10  C   UNL     1       5.074  -7.030  -5.942  0.00  0.00    +0.151 C 
BRANCH  10  11
ATOM     11  C   UNL     1       4.972  -7.388  -7.399  0.00  0.00    -0.028 A 
ATOM     12  C   UNL     1       5.683  -8.481  -7.915  0.00  0.00    +0.005 A 
ATOM     13  C   UNL     1       4.161  -6.641  -8.267  0.00  0.00    +0.005 A 
ATOM     14  C   UNL     1       5.565  -8.832  -9.262  0.00  0.00    +0.000 A 
ATOM     15  C   UNL     1       4.046  -6.994  -9.612  0.00  0.00    +0.000 A 
ATOM     16  C   UNL     1       4.747  -8.091 -10.108  0.00  0.00    +0.000 A 
ENDBRANCH  10  11
ENDBRANCH   1  10
TORSDOF 2
ENDMDL
MODEL 8
REMARK VINA RESULT:    -4.089     18.112     18.910
REMARK INTER + INTRA:          -4.712
REMARK INTER:                  -4.586
REMARK INTRA:                  -0.126
REMARK UNBOUND:                -0.145
REMARK  Name = 1550473
REMARK  2 active torsions:
REMARK  status: ('A' for Active; 'I' for Inactive)
REMARK    1  A    between atoms: N_1  and  C_4
REMARK    2  A    between atoms: C_4  and  C_5
REMARK                            x       y       z     vdW  Elec       q    Type
REMARK                         _______ _______ _______ _____ _____    ______ ____
ROOT
ATOM      1  N   UNL     1      -5.636  -6.979  -8.646  0.00  0.00    -0.354 N 
ATOM      2  N   UNL     1      -7.403  -7.061  -7.151  0.00  0.00    -0.372 N 
ATOM      3  N   UNL     1      -6.157  -8.956  -7.500  0.00  0.00    -0.372 N 
ATOM      4  C   UNL     1      -6.386  -7.668  -7.776  0.00  0.00    +0.166 C 
ATOM      5  H   UNL     1      -5.881  -6.014  -8.834  0.00  0.00    +0.163 HD
ATOM      6  H   UNL     1      -7.984  -7.554  -6.487  0.00  0.00    +0.159 HD
ATOM      7  H   UNL     1      -7.617  -6.083  -7.307  0.00  0.00    +0.159 HD
ATOM      8  H   UNL     1      -5.408  -9.473  -7.942  0.00  0.00    +0.159 HD
ATOM      9  H   UNL     1      -6.735  -9.469  -6.847  0.00  0.00    +0.159 HD
ENDROOT
BRANCH   1  10
ATOM     10  C   UNL     1      -4.473  -7.531  -9.339  0.00  0.00    +0.151 C 
BRANCH  10  11
ATOM     11  C   UNL     1      -4.141  -6.656 -10.515  0.00  0.00    -0.028 A 
ATOM     12  C   UNL     1      -3.064  -6.972 -11.356  0.00  0.00    +0.005 A 
ATOM     13  C   UNL     1      -4.902  -5.511 -10.798  0.00  0.00    +0.005 A 
ATOM     14  C   UNL     1      -2.773  -6.175 -12.467  0.00  0.00    +0.000 A 
ATOM     15  C   UNL     1      -4.608  -4.718 -11.907  0.00  0.00    +0.000 A 
ATOM     16  C   UNL     1      -3.545  -5.052 -12.742  0.00  0.00    +0.000 A 
ENDBRANCH  10  11
ENDBRANCH   1  10
TORSDOF 2
ENDMDL
MODEL 9
REMARK VINA RESULT:    -4.042      6.265      8.533
REMARK INTER + INTRA:          -4.659
REMARK INTER:                  -4.530
REMARK INTRA:                  -0.129
REMARK UNBOUND:                -0.145
REMARK  Name = 1550473
REMARK  2 active torsions:
REMARK  status: ('A' for Active; 'I' for Inactive)
REMARK    1  A    between atoms: N_1  and  C_4
REMARK    2  A    between atoms: C_4  and  C_5
REMARK                            x       y       z     vdW  Elec       q    Type
REMARK                         _______ _______ _______ _____ _____    ______ ____
ROOT
ATOM      1  N   UNL     1       4.117  -7.910  -1.435  0.00  0.00    -0.354 N 
ATOM      2  N   UNL     1       2.819  -6.697   0.051  0.00  0.00    -0.372 N 
ATOM      3  N   UNL     1       4.904  -7.392   0.710  0.00  0.00    -0.372 N 
ATOM      4  C   UNL     1       3.957  -7.341  -0.233  0.00  0.00    +0.166 C 
ATOM      5  H   UNL     1       3.349  -7.863  -2.096  0.00  0.00    +0.163 HD
ATOM      6  H   UNL     1       2.672  -6.255   0.948  0.00  0.00    +0.159 HD
ATOM      7  H   UNL     1       2.072  -6.611  -0.628  0.00  0.00    +0.159 HD
ATOM      8  H   UNL     1       5.784  -7.868   0.561  0.00  0.00    +0.159 HD
ATOM      9  H   UNL     1       4.771  -6.965   1.618  0.00  0.00    +0.159 HD
ENDROOT
BRANCH   1  10
ATOM     10  C   UNL     1       5.338  -8.590  -1.863  0.00  0.00    +0.151 C 
BRANCH  10  11
ATOM     11  C   UNL     1       5.772  -8.031  -3.190  0.00  0.00    -0.028 A 
ATOM     12  C   UNL     1       4.835  -7.808  -4.209  0.00  0.00    +0.005 A 
ATOM     13  C   UNL     1       7.118  -7.716  -3.432  0.00  0.00    +0.005 A 
ATOM     14  C   UNL     1       5.233  -7.260  -5.431  0.00  0.00    +0.000 A 
ATOM     15  C   UNL     1       7.512  -7.171  -4.654  0.00  0.00    +0.000 A 
ATOM     16  C   UNL     1       6.569  -6.940  -5.652  0.00  0.00    +0.000 A 
ENDBRANCH  10  11
ENDBRANCH   1  10
TORSDOF 2
ENDMDL
