MODEL 1
REMARK VINA RESULT:    -6.096      0.000      0.000
REMARK INTER + INTRA:          -6.867
REMARK INTER:                  -6.809
REMARK INTRA:                  -0.058
REMARK UNBOUND:                -0.058
REMARK  Name = 1550473
REMARK  2 active torsions:
REMARK  status: ('A' for Active; 'I' for Inactive)
REMARK    1  A    between atoms: N_1  and  C_4
REMARK    2  A    between atoms: C_4  and  C_5
REMARK                            x       y       z     vdW  Elec       q    Type
REMARK                         _______ _______ _______ _____ _____    ______ ____
ROOT
ATOM      1  N   UNL     1       0.965  -1.267  -6.788  0.00  0.00    -0.354 N 
ATOM      2  N   UNL     1       0.409   0.760  -7.762  0.00  0.00    -0.372 N 
ATOM      3  N   UNL     1      -0.974  -1.043  -8.085  0.00  0.00    -0.372 N 
ATOM      4  C   UNL     1       0.135  -0.532  -7.540  0.00  0.00    +0.166 C 
ATOM      5  H   UNL     1       1.805  -0.828  -6.429  0.00  0.00    +0.163 HD
ATOM      6  H   UNL     1      -0.201   1.340  -8.322  0.00  0.00    +0.159 HD
ATOM      7  H   UNL     1       1.225   1.207  -7.364  0.00  0.00    +0.159 HD
ATOM      8  H   UNL     1      -1.235  -2.012  -7.960  0.00  0.00    +0.159 HD
ATOM      9  H   UNL     1      -1.591  -0.481  -8.658  0.00  0.00    +0.159 HD
ENDROOT
BRANCH   1  10
ATOM     10  C   UNL     1       0.730  -2.667  -6.442  0.00  0.00    +0.151 C 
BRANCH  10  11
ATOM     11  C   UNL     1       1.473  -3.545  -7.411  0.00  0.00    -0.028 A 
ATOM     12  C   UNL     1       2.447  -3.001  -8.261  0.00  0.00    +0.005 A 
ATOM     13  C   UNL     1       1.211  -4.922  -7.481  0.00  0.00    +0.005 A 
ATOM     14  C   UNL     1       3.159  -3.821  -9.140  0.00  0.00    +0.000 A 
ATOM     15  C   UNL     1       1.923  -5.737  -8.361  0.00  0.00    +0.000 A 
ATOM     16  C   UNL     1       2.898  -5.186  -9.189  0.00  0.00    +0.000 A 
ENDBRANCH  10  11
ENDBRANCH   1  10
TORSDOF 2
ENDMDL
MODEL 2
REMARK VINA RESULT:    -5.798     22.463     23.374
REMARK INTER + INTRA:          -6.535
REMARK INTER:                  -6.421
REMARK INTRA:                  -0.113
REMARK UNBOUND:                -0.058
REMARK  Name = 1550473
REMARK  2 active torsions:
REMARK  status: ('A' for Active; 'I' for Inactive)
REMARK    1  A    between atoms: N_1  and  C_4
REMARK    2  A    between atoms: C_4  and  C_5
REMARK                            x       y       z     vdW  Elec       q    Type
REMARK                         _______ _______ _______ _____ _____    ______ ____
ROOT
ATOM      1  N   UNL     1      23.538   0.676   0.927  0.00  0.00    -0.354 N 
ATOM      2  N   UNL     1      25.810   0.624   0.478  0.00  0.00    -0.372 N 
ATOM      3  N   UNL     1      25.035  -0.370   2.396  0.00  0.00    -0.372 N 
ATOM      4  C   UNL     1      24.779   0.309   1.273  0.00  0.00    +0.166 C 
ATOM      5  H   UNL     1      23.415   1.216   0.078  0.00  0.00    +0.163 HD
ATOM      6  H   UNL     1      26.757   0.357   0.711  0.00  0.00    +0.159 HD
ATOM      7  H   UNL     1      25.678   1.123  -0.393  0.00  0.00    +0.159 HD
ATOM      8  H   UNL     1      24.302  -0.632   3.041  0.00  0.00    +0.159 HD
ATOM      9  H   UNL     1      25.978  -0.635   2.652  0.00  0.00    +0.159 HD
ENDROOT
BRANCH   1  10
ATOM     10  C   UNL     1      22.341   0.337   1.695  0.00  0.00    +0.151 C 
BRANCH  10  11
ATOM     11  C   UNL     1      21.212   1.232   1.265  0.00  0.00    -0.028 A 
ATOM     12  C   UNL     1      21.394   2.620   1.185  0.00  0.00    +0.005 A 
ATOM     13  C   UNL     1      19.958   0.697   0.931  0.00  0.00    +0.005 A 
ATOM     14  C   UNL     1      20.354   3.449   0.757  0.00  0.00    +0.000 A 
ATOM     15  C   UNL     1      18.922   1.528   0.505  0.00  0.00    +0.000 A 
ATOM     16  C   UNL     1      19.121   2.903   0.415  0.00  0.00    +0.000 A 
ENDBRANCH  10  11
ENDBRANCH   1  10
TORSDOF 2
ENDMDL
MODEL 3
REMARK VINA RESULT:    -5.746      2.103      2.371
REMARK INTER + INTRA:          -6.476
REMARK INTER:                  -6.331
REMARK INTRA:                  -0.145
REMARK UNBOUND:                -0.058
REMARK  Name = 1550473
REMARK  2 active torsions:
REMARK  status: ('A' for Active; 'I' for Inactive)
REMARK    1  A    between atoms: N_1  and  C_4
REMARK    2  A    between atoms: C_4  and  C_5
REMARK                            x       y       z     vdW  Elec       q    Type
REMARK                         _______ _______ _______ _____ _____    ______ ____
ROOT
ATOM      1  N   UNL     1      -0.360  -1.696  -8.092  0.00  0.00    -0.354 N 
ATOM      2  N   UNL     1       0.196   0.540  -8.328  0.00  0.00    -0.372 N 
ATOM      3  N   UNL     1       1.474  -0.782  -6.955  0.00  0.00    -0.372 N 
ATOM      4  C   UNL     1       0.435  -0.661  -7.788  0.00  0.00    +0.166 C 
ATOM      5  H   UNL     1      -1.149  -1.532  -8.707  0.00  0.00    +0.163 HD
ATOM      6  H   UNL     1       0.781   1.339  -8.120  0.00  0.00    +0.159 HD
ATOM      7  H   UNL     1      -0.566   0.691  -8.978  0.00  0.00    +0.159 HD
ATOM      8  H   UNL     1       1.704  -1.660  -6.510  0.00  0.00    +0.159 HD
ATOM      9  H   UNL     1       2.064   0.008  -6.726  0.00  0.00    +0.159 HD
ENDROOT
BRANCH   1  10
ATOM     10  C   UNL     1      -0.155  -3.057  -7.601  0.00  0.00    +0.151 C 
BRANCH  10  11
ATOM     11  C   UNL     1      -0.050  -3.992  -8.774  0.00  0.00    -0.028 A 
ATOM     12  C   UNL     1      -0.268  -3.525 -10.078  0.00  0.00    +0.005 A 
ATOM     13  C   UNL     1       0.274  -5.345  -8.588  0.00  0.00    +0.005 A 
ATOM     14  C   UNL     1      -0.142  -4.387 -11.171  0.00  0.00    +0.000 A 
ATOM     15  C   UNL     1       0.399  -6.202  -9.682  0.00  0.00    +0.000 A 
ATOM     16  C   UNL     1       0.193  -5.722 -10.973  0.00  0.00    +0.000 A 
ENDBRANCH  10  11
ENDBRANCH   1  10
TORSDOF 2
ENDMDL
MODEL 4
REMARK VINA RESULT:    -5.598     20.547     21.388
REMARK INTER + INTRA:          -6.310
REMARK INTER:                  -6.213
REMARK INTRA:                  -0.098
REMARK UNBOUND:                -0.058
REMARK  Name = 1550473
REMARK  2 active torsions:
REMARK  status: ('A' for Active; 'I' for Inactive)
REMARK    1  A    between atoms: N_1  and  C_4
REMARK    2  A    between atoms: C_4  and  C_5
REMARK                            x       y       z     vdW  Elec       q    Type
REMARK                         _______ _______ _______ _____ _____    ______ ____
ROOT
ATOM      1  N   UNL     1      18.605   0.019   3.846  0.00  0.00    -0.354 N 
ATOM      2  N   UNL     1      17.144  -0.341   5.607  0.00  0.00    -0.372 N 
ATOM      3  N   UNL     1      17.316  -1.934   3.964  0.00  0.00    -0.372 N 
ATOM      4  C   UNL     1      17.697  -0.752   4.460  0.00  0.00    +0.166 C 
ATOM      5  H   UNL     1      18.829   0.918   4.257  0.00  0.00    +0.163 HD
ATOM      6  H   UNL     1      16.459  -0.903   6.094  0.00  0.00    +0.159 HD
ATOM      7  H   UNL     1      17.404   0.537   6.039  0.00  0.00    +0.159 HD
ATOM      8  H   UNL     1      17.691  -2.299   3.099  0.00  0.00    +0.159 HD
ATOM      9  H   UNL     1      16.623  -2.506   4.431  0.00  0.00    +0.159 HD
ENDROOT
BRANCH   1  10
ATOM     10  C   UNL     1      19.307  -0.360   2.621  0.00  0.00    +0.151 C 
BRANCH  10  11
ATOM     11  C   UNL     1      19.787   0.883   1.925  0.00  0.00    -0.028 A 
ATOM     12  C   UNL     1      18.953   1.564   1.027  0.00  0.00    +0.005 A 
ATOM     13  C   UNL     1      21.074   1.389   2.165  0.00  0.00    +0.005 A 
ATOM     14  C   UNL     1      19.388   2.736   0.403  0.00  0.00    +0.000 A 
ATOM     15  C   UNL     1      21.505   2.559   1.539  0.00  0.00    +0.000 A 
ATOM     16  C   UNL     1      20.661   3.233   0.660  0.00  0.00    +0.000 A 
ENDBRANCH  10  11
ENDBRANCH   1  10
TORSDOF 2
ENDMDL
MODEL 5
REMARK VINA RESULT:    -5.539      1.970      2.653
REMARK INTER + INTRA:          -6.245
REMARK INTER:                  -6.134
REMARK INTRA:                  -0.111
REMARK UNBOUND:                -0.058
REMARK  Name = 1550473
REMARK  2 active torsions:
REMARK  status: ('A' for Active; 'I' for Inactive)
REMARK    1  A    between atoms: N_1  and  C_4
REMARK    2  A    between atoms: C_4  and  C_5
REMARK                            x       y       z     vdW  Elec       q    Type
REMARK                         _______ _______ _______ _____ _____    ______ ____
ROOT
ATOM      1  N   UNL     1      -1.012  -1.075  -8.530  0.00  0.00    -0.354 N 
ATOM      2  N   UNL     1       0.098   0.576  -7.345  0.00  0.00    -0.372 N 
ATOM      3  N   UNL     1       1.274  -0.681  -8.861  0.00  0.00    -0.372 N 
ATOM      4  C   UNL     1       0.115  -0.405  -8.255  0.00  0.00    +0.166 C 
ATOM      5  H   UNL     1      -1.851  -0.839  -8.014  0.00  0.00    +0.163 HD
ATOM      6  H   UNL     1       0.932   1.102  -7.118  0.00  0.00    +0.159 HD
ATOM      7  H   UNL     1      -0.753   0.841  -6.863  0.00  0.00    +0.159 HD
ATOM      8  H   UNL     1       1.356  -1.413  -9.554  0.00  0.00    +0.159 HD
ATOM      9  H   UNL     1       2.122  -0.174  -8.640  0.00  0.00    +0.159 HD
ENDROOT
BRANCH   1  10
ATOM     10  C   UNL     1      -1.112  -2.125  -9.543  0.00  0.00    +0.151 C 
BRANCH  10  11
ATOM     11  C   UNL     1      -0.705  -3.437  -8.932  0.00  0.00    -0.028 A 
ATOM     12  C   UNL     1       0.390  -4.151  -9.440  0.00  0.00    +0.005 A 
ATOM     13  C   UNL     1      -1.408  -3.970  -7.840  0.00  0.00    +0.005 A 
ATOM     14  C   UNL     1       0.786  -5.355  -8.854  0.00  0.00    +0.000 A 
ATOM     15  C   UNL     1      -1.010  -5.174  -7.258  0.00  0.00    +0.000 A 
ATOM     16  C   UNL     1       0.089  -5.864  -7.764  0.00  0.00    +0.000 A 
ENDBRANCH  10  11
ENDBRANCH   1  10
TORSDOF 2
ENDMDL
MODEL 6
REMARK VINA RESULT:    -5.347     22.452     23.379
REMARK INTER + INTRA:          -6.031
REMARK INTER:                  -5.921
REMARK INTRA:                  -0.109
REMARK UNBOUND:                -0.058
REMARK  Name = 1550473
REMARK  2 active torsions:
REMARK  status: ('A' for Active; 'I' for Inactive)
REMARK    1  A    between atoms: N_1  and  C_4
REMARK    2  A    between atoms: C_4  and  C_5
REMARK                            x       y       z     vdW  Elec       q    Type
REMARK                         _______ _______ _______ _____ _____    ______ ____
ROOT
ATOM      1  N   UNL     1      22.420   0.996   3.428  0.00  0.00    -0.354 N 
ATOM      2  N   UNL     1      23.020  -0.166   5.339  0.00  0.00    -0.372 N 
ATOM      3  N   UNL     1      24.521  -0.027   3.609  0.00  0.00    -0.372 N 
ATOM      4  C   UNL     1      23.319   0.275   4.111  0.00  0.00    +0.166 C 
ATOM      5  H   UNL     1      21.516   1.165   3.852  0.00  0.00    +0.163 HD
ATOM      6  H   UNL     1      23.679  -0.709   5.880  0.00  0.00    +0.159 HD
ATOM      7  H   UNL     1      22.133   0.044   5.779  0.00  0.00    +0.159 HD
ATOM      8  H   UNL     1      24.805   0.271   2.685  0.00  0.00    +0.159 HD
ATOM      9  H   UNL     1      25.190  -0.580   4.130  0.00  0.00    +0.159 HD
ENDROOT
BRANCH   1  10
ATOM     10  C   UNL     1      22.667   1.569   2.106  0.00  0.00    +0.151 C 
BRANCH  10  11
ATOM     11  C   UNL     1      21.349   1.881   1.452  0.00  0.00    -0.028 A 
ATOM     12  C   UNL     1      20.412   0.863   1.217  0.00  0.00    +0.005 A 
ATOM     13  C   UNL     1      21.028   3.193   1.071  0.00  0.00    +0.005 A 
ATOM     14  C   UNL     1      19.176   1.157   0.637  0.00  0.00    +0.000 A 
ATOM     15  C   UNL     1      19.793   3.482   0.491  0.00  0.00    +0.000 A 
ATOM     16  C   UNL     1      18.866   2.464   0.277  0.00  0.00    +0.000 A 
ENDBRANCH  10  11
ENDBRANCH   1  10
TORSDOF 2
ENDMDL
MODEL 7
REMARK VINA RESULT:    -5.208      3.347      4.741
REMARK INTER + INTRA:          -5.875
REMARK INTER:                  -5.718
REMARK INTRA:                  -0.157
REMARK UNBOUND:                -0.058
REMARK  Name = 1550473
REMARK  2 active torsions:
REMARK  status: ('A' for Active; 'I' for Inactive)
REMARK    1  A    between atoms: N_1  and  C_4
REMARK    2  A    between atoms: C_4  and  C_5
REMARK                            x       y       z     vdW  Elec       q    Type
REMARK                         _______ _______ _______ _____ _____    ______ ____
ROOT
ATOM      1  N   UNL     1       0.946  -4.608 -10.770  0.00  0.00    -0.354 N 
ATOM      2  N   UNL     1       1.715  -4.341 -12.938  0.00  0.00    -0.372 N 
ATOM      3  N   UNL     1       3.125  -3.856 -11.194  0.00  0.00    -0.372 N 
ATOM      4  C   UNL     1       1.926  -4.269 -11.619  0.00  0.00    +0.166 C 
ATOM      5  H   UNL     1       0.050  -4.884 -11.155  0.00  0.00    +0.163 HD
ATOM      6  H   UNL     1       2.437  -4.096 -13.603  0.00  0.00    +0.159 HD
ATOM      7  H   UNL     1       0.834  -4.661 -13.321  0.00  0.00    +0.159 HD
ATOM      8  H   UNL     1       3.346  -3.775 -10.211  0.00  0.00    +0.159 HD
ATOM      9  H   UNL     1       3.856  -3.595 -11.844  0.00  0.00    +0.159 HD
ENDROOT
BRANCH   1  10
ATOM     10  C   UNL     1       1.091  -4.616  -9.315  0.00  0.00    +0.151 C 
BRANCH  10  11
ATOM     11  C   UNL     1       0.659  -3.282  -8.771  0.00  0.00    -0.028 A 
ATOM     12  C   UNL     1       1.480  -2.578  -7.879  0.00  0.00    +0.005 A 
ATOM     13  C   UNL     1      -0.567  -2.714  -9.150  0.00  0.00    +0.005 A 
ATOM     14  C   UNL     1       1.094  -1.325  -7.396  0.00  0.00    +0.000 A 
ATOM     15  C   UNL     1      -0.950  -1.463  -8.665  0.00  0.00    +0.000 A 
ATOM     16  C   UNL     1      -0.118  -0.768  -7.791  0.00  0.00    +0.000 A 
ENDBRANCH  10  11
ENDBRANCH   1  10
TORSDOF 2
ENDMDL
MODEL 8
REMARK VINA RESULT:    -5.201     21.788     22.664
REMARK INTER + INTRA:          -5.868
REMARK INTER:                  -5.711
REMARK INTRA:                  -0.157
REMARK UNBOUND:                -0.058
REMARK  Name = 1550473
REMARK  2 active torsions:
REMARK  status: ('A' for Active; 'I' for Inactive)
REMARK    1  A    between atoms: N_1  and  C_4
REMARK    2  A    between atoms: C_4  and  C_5
REMARK                            x       y       z     vdW  Elec       q    Type
REMARK                         _______ _______ _______ _____ _____    ______ ____
ROOT
ATOM      1  N   UNL     1      21.821   0.446   3.742  0.00  0.00    -0.354 N 
ATOM      2  N   UNL     1      21.708   0.945   6.001  0.00  0.00    -0.372 N 
ATOM      3  N   UNL     1      19.833   0.146   4.946  0.00  0.00    -0.372 N 
ATOM      4  C   UNL     1      21.119   0.508   4.881  0.00  0.00    +0.166 C 
ATOM      5  H   UNL     1      22.784   0.764   3.752  0.00  0.00    +0.163 HD
ATOM      6  H   UNL     1      21.205   0.999   6.876  0.00  0.00    +0.159 HD
ATOM      7  H   UNL     1      22.683   1.218   6.018  0.00  0.00    +0.159 HD
ATOM      8  H   UNL     1      19.329  -0.186   4.135  0.00  0.00    +0.159 HD
ATOM      9  H   UNL     1      19.309   0.205   5.810  0.00  0.00    +0.159 HD
ENDROOT
BRANCH   1  10
ATOM     10  C   UNL     1      21.288  -0.064   2.480  0.00  0.00    +0.151 C 
BRANCH  10  11
ATOM     11  C   UNL     1      20.719   1.080   1.688  0.00  0.00    -0.028 A 
ATOM     12  C   UNL     1      19.434   0.992   1.133  0.00  0.00    +0.005 A 
ATOM     13  C   UNL     1      21.457   2.258   1.494  0.00  0.00    +0.005 A 
ATOM     14  C   UNL     1      18.892   2.067   0.423  0.00  0.00    +0.000 A 
ATOM     15  C   UNL     1      20.913   3.328   0.784  0.00  0.00    +0.000 A 
ATOM     16  C   UNL     1      19.630   3.233   0.251  0.00  0.00    +0.000 A 
ENDBRANCH  10  11
ENDBRANCH   1  10
TORSDOF 2
ENDMDL
MODEL 9
REMARK VINA RESULT:    -5.123     21.841     22.634
REMARK INTER + INTRA:          -5.781
REMARK INTER:                  -5.669
REMARK INTRA:                  -0.111
REMARK UNBOUND:                -0.058
REMARK  Name = 1550473
REMARK  2 active torsions:
REMARK  status: ('A' for Active; 'I' for Inactive)
REMARK    1  A    between atoms: N_1  and  C_4
REMARK    2  A    between atoms: C_4  and  C_5
REMARK                            x       y       z     vdW  Elec       q    Type
REMARK                         _______ _______ _______ _____ _____    ______ ____
ROOT
ATOM      1  N   UNL     1      20.221   0.497   5.310  0.00  0.00    -0.354 N 
ATOM      2  N   UNL     1      19.451   0.666   7.488  0.00  0.00    -0.372 N 
ATOM      3  N   UNL     1      18.624  -1.001   6.146  0.00  0.00    -0.372 N 
ATOM      4  C   UNL     1      19.435   0.051   6.300  0.00  0.00    +0.166 C 
ATOM      5  H   UNL     1      20.791   1.318   5.481  0.00  0.00    +0.163 HD
ATOM      6  H   UNL     1      18.872   0.350   8.255  0.00  0.00    +0.159 HD
ATOM      7  H   UNL     1      20.056   1.458   7.671  0.00  0.00    +0.159 HD
ATOM      8  H   UNL     1      18.561  -1.505   5.272  0.00  0.00    +0.159 HD
ATOM      9  H   UNL     1      18.029  -1.325   6.898  0.00  0.00    +0.159 HD
ENDROOT
BRANCH   1  10
ATOM     10  C   UNL     1      20.318  -0.134   3.995  0.00  0.00    +0.151 C 
BRANCH  10  11
ATOM     11  C   UNL     1      20.348   0.935   2.938  0.00  0.00    -0.028 A 
ATOM     12  C   UNL     1      21.558   1.547   2.578  0.00  0.00    +0.005 A 
ATOM     13  C   UNL     1      19.171   1.337   2.289  0.00  0.00    +0.005 A 
ATOM     14  C   UNL     1      21.591   2.518   1.575  0.00  0.00    +0.000 A 
ATOM     15  C   UNL     1      19.208   2.308   1.288  0.00  0.00    +0.000 A 
ATOM     16  C   UNL     1      20.418   2.897   0.930  0.00  0.00    +0.000 A 
ENDBRANCH  10  11
ENDBRANCH   1  10
TORSDOF 2
ENDMDL
