MODEL 1
REMARK VINA RESULT:    -5.021      0.000      0.000
REMARK INTER + INTRA:          -5.769
REMARK INTER:                  -5.609
REMARK INTRA:                  -0.161
REMARK UNBOUND:                -0.161
REMARK  Name = 1550473
REMARK  2 active torsions:
REMARK  status: ('A' for Active; 'I' for Inactive)
REMARK    1  A    between atoms: N_1  and  C_4
REMARK    2  A    between atoms: C_4  and  C_5
REMARK                            x       y       z     vdW  Elec       q    Type
REMARK                         _______ _______ _______ _____ _____    ______ ____
ROOT
ATOM      1  N   UNL     1      -4.617   9.967   1.625  0.00  0.00    -0.354 N 
ATOM      2  N   UNL     1      -3.607  10.512  -0.387  0.00  0.00    -0.372 N 
ATOM      3  N   UNL     1      -2.433  10.815   1.561  0.00  0.00    -0.372 N 
ATOM      4  C   UNL     1      -3.557  10.429   0.948  0.00  0.00    +0.166 C 
ATOM      5  H   UNL     1      -5.450   9.719   1.104  0.00  0.00    +0.163 HD
ATOM      6  H   UNL     1      -2.822  10.853  -0.925  0.00  0.00    +0.159 HD
ATOM      7  H   UNL     1      -4.425  10.220  -0.909  0.00  0.00    +0.159 HD
ATOM      8  H   UNL     1      -2.333  10.783   2.567  0.00  0.00    +0.159 HD
ATOM      9  H   UNL     1      -1.641  11.170   1.041  0.00  0.00    +0.159 HD
ENDROOT
BRANCH   1  10
ATOM     10  C   UNL     1      -4.645   9.787   3.075  0.00  0.00    +0.151 C 
BRANCH  10  11
ATOM     11  C   UNL     1      -4.803   8.324   3.385  0.00  0.00    -0.028 A 
ATOM     12  C   UNL     1      -6.022   7.825   3.867  0.00  0.00    +0.005 A 
ATOM     13  C   UNL     1      -3.739   7.429   3.193  0.00  0.00    +0.005 A 
ATOM     14  C   UNL     1      -6.178   6.461   4.126  0.00  0.00    +0.000 A 
ATOM     15  C   UNL     1      -3.899   6.068   3.453  0.00  0.00    +0.000 A 
ATOM     16  C   UNL     1      -5.119   5.585   3.918  0.00  0.00    +0.000 A 
ENDBRANCH  10  11
ENDBRANCH   1  10
TORSDOF 2
ENDMDL
MODEL 2
REMARK VINA RESULT:    -4.696     16.714     18.174
REMARK INTER + INTRA:          -5.405
REMARK INTER:                  -5.271
REMARK INTRA:                  -0.135
REMARK UNBOUND:                -0.161
REMARK  Name = 1550473
REMARK  2 active torsions:
REMARK  status: ('A' for Active; 'I' for Inactive)
REMARK    1  A    between atoms: N_1  and  C_4
REMARK    2  A    between atoms: C_4  and  C_5
REMARK                            x       y       z     vdW  Elec       q    Type
REMARK                         _______ _______ _______ _____ _____    ______ ____
ROOT
ATOM      1  N   UNL     1       7.688  -2.148   9.363  0.00  0.00    -0.354 N 
ATOM      2  N   UNL     1       6.463  -3.380  10.894  0.00  0.00    -0.372 N 
ATOM      3  N   UNL     1       5.460  -1.603   9.845  0.00  0.00    -0.372 N 
ATOM      4  C   UNL     1       6.543  -2.367  10.023  0.00  0.00    +0.166 C 
ATOM      5  H   UNL     1       8.482  -2.744   9.565  0.00  0.00    +0.163 HD
ATOM      6  H   UNL     1       5.612  -3.572  11.405  0.00  0.00    +0.159 HD
ATOM      7  H   UNL     1       7.244  -4.003  11.060  0.00  0.00    +0.159 HD
ATOM      8  H   UNL     1       5.458  -0.819   9.206  0.00  0.00    +0.159 HD
ATOM      9  H   UNL     1       4.603  -1.772  10.355  0.00  0.00    +0.159 HD
ENDROOT
BRANCH   1  10
ATOM     10  C   UNL     1       7.863  -1.105   8.353  0.00  0.00    +0.151 C 
BRANCH  10  11
ATOM     11  C   UNL     1       9.266  -0.570   8.438  0.00  0.00    -0.028 A 
ATOM     12  C   UNL     1      10.123  -0.979   9.471  0.00  0.00    +0.005 A 
ATOM     13  C   UNL     1       9.747   0.341   7.485  0.00  0.00    +0.005 A 
ATOM     14  C   UNL     1      11.436  -0.506   9.532  0.00  0.00    +0.000 A 
ATOM     15  C   UNL     1      11.058   0.812   7.551  0.00  0.00    +0.000 A 
ATOM     16  C   UNL     1      11.903   0.386   8.573  0.00  0.00    +0.000 A 
ENDBRANCH  10  11
ENDBRANCH   1  10
TORSDOF 2
ENDMDL
MODEL 3
REMARK VINA RESULT:    -4.684     16.055     17.483
REMARK INTER + INTRA:          -5.392
REMARK INTER:                  -5.249
REMARK INTRA:                  -0.143
REMARK UNBOUND:                -0.161
REMARK  Name = 1550473
REMARK  2 active torsions:
REMARK  status: ('A' for Active; 'I' for Inactive)
REMARK    1  A    between atoms: N_1  and  C_4
REMARK    2  A    between atoms: C_4  and  C_5
REMARK                            x       y       z     vdW  Elec       q    Type
REMARK                         _______ _______ _______ _____ _____    ______ ____
ROOT
ATOM      1  N   UNL     1       6.829  -0.141  10.676  0.00  0.00    -0.354 N 
ATOM      2  N   UNL     1       4.632  -0.745  10.264  0.00  0.00    -0.372 N 
ATOM      3  N   UNL     1       6.189  -2.395  10.607  0.00  0.00    -0.372 N 
ATOM      4  C   UNL     1       5.899  -1.092  10.518  0.00  0.00    +0.166 C 
ATOM      5  H   UNL     1       6.551   0.827  10.567  0.00  0.00    +0.163 HD
ATOM      6  H   UNL     1       3.907  -1.440  10.144  0.00  0.00    +0.159 HD
ATOM      7  H   UNL     1       4.347   0.225  10.201  0.00  0.00    +0.159 HD
ATOM      8  H   UNL     1       7.128  -2.723  10.790  0.00  0.00    +0.159 HD
ATOM      9  H   UNL     1       5.480  -3.106  10.478  0.00  0.00    +0.159 HD
ENDROOT
BRANCH   1  10
ATOM     10  C   UNL     1       8.227  -0.412  11.008  0.00  0.00    +0.151 C 
BRANCH  10  11
ATOM     11  C   UNL     1       9.100   0.045   9.872  0.00  0.00    -0.028 A 
ATOM     12  C   UNL     1       8.902  -0.457   8.577  0.00  0.00    +0.005 A 
ATOM     13  C   UNL     1      10.122   0.983  10.082  0.00  0.00    +0.005 A 
ATOM     14  C   UNL     1       9.693  -0.010   7.515  0.00  0.00    +0.000 A 
ATOM     15  C   UNL     1      10.910   1.425   9.020  0.00  0.00    +0.000 A 
ATOM     16  C   UNL     1      10.693   0.930   7.736  0.00  0.00    +0.000 A 
ENDBRANCH  10  11
ENDBRANCH   1  10
TORSDOF 2
ENDMDL
MODEL 4
REMARK VINA RESULT:    -4.325     28.017     29.042
REMARK INTER + INTRA:          -4.991
REMARK INTER:                  -4.855
REMARK INTRA:                  -0.136
REMARK UNBOUND:                -0.161
REMARK  Name = 1550473
REMARK  2 active torsions:
REMARK  status: ('A' for Active; 'I' for Inactive)
REMARK    1  A    between atoms: N_1  and  C_4
REMARK    2  A    between atoms: C_4  and  C_5
REMARK                            x       y       z     vdW  Elec       q    Type
REMARK                         _______ _______ _______ _____ _____    ______ ____
ROOT
ATOM      1  N   UNL     1       3.828  -8.676 -18.994  0.00  0.00    -0.354 N 
ATOM      2  N   UNL     1       4.304  -7.131 -20.653  0.00  0.00    -0.372 N 
ATOM      3  N   UNL     1       4.105  -6.406 -18.485  0.00  0.00    -0.372 N 
ATOM      4  C   UNL     1       4.076  -7.413 -19.364  0.00  0.00    +0.166 C 
ATOM      5  H   UNL     1       3.789  -9.390 -19.713  0.00  0.00    +0.163 HD
ATOM      6  H   UNL     1       4.497  -6.188 -20.961  0.00  0.00    +0.159 HD
ATOM      7  H   UNL     1       4.310  -7.853 -21.363  0.00  0.00    +0.159 HD
ATOM      8  H   UNL     1       3.935  -6.551 -17.499  0.00  0.00    +0.159 HD
ATOM      9  H   UNL     1       4.285  -5.453 -18.776  0.00  0.00    +0.159 HD
ENDROOT
BRANCH   1  10
ATOM     10  C   UNL     1       3.620  -9.097 -17.610  0.00  0.00    +0.151 C 
BRANCH  10  11
ATOM     11  C   UNL     1       4.375 -10.374 -17.366  0.00  0.00    -0.028 A 
ATOM     12  C   UNL     1       3.848 -11.363 -16.522  0.00  0.00    +0.005 A 
ATOM     13  C   UNL     1       5.616 -10.604 -17.980  0.00  0.00    +0.005 A 
ATOM     14  C   UNL     1       4.535 -12.562 -16.318  0.00  0.00    +0.000 A 
ATOM     15  C   UNL     1       6.299 -11.803 -17.774  0.00  0.00    +0.000 A 
ATOM     16  C   UNL     1       5.757 -12.782 -16.945  0.00  0.00    +0.000 A 
ENDBRANCH  10  11
ENDBRANCH   1  10
TORSDOF 2
ENDMDL
MODEL 5
REMARK VINA RESULT:    -4.243     14.373     15.771
REMARK INTER + INTRA:          -4.900
REMARK INTER:                  -4.739
REMARK INTRA:                  -0.161
REMARK UNBOUND:                -0.161
REMARK  Name = 1550473
REMARK  2 active torsions:
REMARK  status: ('A' for Active; 'I' for Inactive)
REMARK    1  A    between atoms: N_1  and  C_4
REMARK    2  A    between atoms: C_4  and  C_5
REMARK                            x       y       z     vdW  Elec       q    Type
REMARK                         _______ _______ _______ _____ _____    ______ ____
ROOT
ATOM      1  N   UNL     1       5.443   1.617  11.409  0.00  0.00    -0.354 N 
ATOM      2  N   UNL     1       4.792   3.799  10.986  0.00  0.00    -0.372 N 
ATOM      3  N   UNL     1       6.973   3.385  11.567  0.00  0.00    -0.372 N 
ATOM      4  C   UNL     1       5.743   2.920  11.324  0.00  0.00    +0.166 C 
ATOM      5  H   UNL     1       4.485   1.332  11.243  0.00  0.00    +0.163 HD
ATOM      6  H   UNL     1       4.990   4.788  10.911  0.00  0.00    +0.159 HD
ATOM      7  H   UNL     1       3.846   3.506  10.775  0.00  0.00    +0.159 HD
ATOM      8  H   UNL     1       7.734   2.774  11.832  0.00  0.00    +0.159 HD
ATOM      9  H   UNL     1       7.188   4.373  11.508  0.00  0.00    +0.159 HD
ENDROOT
BRANCH   1  10
ATOM     10  C   UNL     1       6.418   0.572  11.717  0.00  0.00    +0.151 C 
BRANCH  10  11
ATOM     11  C   UNL     1       6.649  -0.262  10.487  0.00  0.00    -0.028 A 
ATOM     12  C   UNL     1       7.876  -0.208   9.810  0.00  0.00    +0.005 A 
ATOM     13  C   UNL     1       5.646  -1.113   9.997  0.00  0.00    +0.005 A 
ATOM     14  C   UNL     1       8.101  -1.005   8.685  0.00  0.00    +0.000 A 
ATOM     15  C   UNL     1       5.875  -1.907   8.873  0.00  0.00    +0.000 A 
ATOM     16  C   UNL     1       7.104  -1.854   8.219  0.00  0.00    +0.000 A 
ENDBRANCH  10  11
ENDBRANCH   1  10
TORSDOF 2
ENDMDL
MODEL 6
REMARK VINA RESULT:    -4.233      4.480      5.906
REMARK INTER + INTRA:          -4.889
REMARK INTER:                  -4.795
REMARK INTRA:                  -0.094
REMARK UNBOUND:                -0.161
REMARK  Name = 1550473
REMARK  2 active torsions:
REMARK  status: ('A' for Active; 'I' for Inactive)
REMARK    1  A    between atoms: N_1  and  C_4
REMARK    2  A    between atoms: C_4  and  C_5
REMARK                            x       y       z     vdW  Elec       q    Type
REMARK                         _______ _______ _______ _____ _____    ______ ____
ROOT
ATOM      1  N   UNL     1       0.339  11.194   5.762  0.00  0.00    -0.354 N 
ATOM      2  N   UNL     1       2.308  12.412   5.803  0.00  0.00    -0.372 N 
ATOM      3  N   UNL     1       2.398  10.174   5.304  0.00  0.00    -0.372 N 
ATOM      4  C   UNL     1       1.670  11.250   5.622  0.00  0.00    +0.166 C 
ATOM      5  H   UNL     1      -0.152  12.038   6.035  0.00  0.00    +0.163 HD
ATOM      6  H   UNL     1       3.311  12.485   5.701  0.00  0.00    +0.159 HD
ATOM      7  H   UNL     1       1.810  13.264   6.030  0.00  0.00    +0.159 HD
ATOM      8  H   UNL     1       1.977   9.266   5.160  0.00  0.00    +0.159 HD
ATOM      9  H   UNL     1       3.405  10.225   5.209  0.00  0.00    +0.159 HD
ENDROOT
BRANCH   1  10
ATOM     10  C   UNL     1      -0.458   9.990   5.535  0.00  0.00    +0.151 C 
BRANCH  10  11
ATOM     11  C   UNL     1      -1.258  10.161   4.273  0.00  0.00    -0.028 A 
ATOM     12  C   UNL     1      -1.109  11.313   3.487  0.00  0.00    +0.005 A 
ATOM     13  C   UNL     1      -2.162   9.172   3.855  0.00  0.00    +0.005 A 
ATOM     14  C   UNL     1      -1.830  11.458   2.299  0.00  0.00    +0.000 A 
ATOM     15  C   UNL     1      -2.880   9.322   2.669  0.00  0.00    +0.000 A 
ATOM     16  C   UNL     1      -2.712  10.464   1.890  0.00  0.00    +0.000 A 
ENDBRANCH  10  11
ENDBRANCH   1  10
TORSDOF 2
ENDMDL
MODEL 7
REMARK VINA RESULT:    -4.118     16.569     17.101
REMARK INTER + INTRA:          -4.761
REMARK INTER:                  -4.638
REMARK INTRA:                  -0.122
REMARK UNBOUND:                -0.161
REMARK  Name = 1550473
REMARK  2 active torsions:
REMARK  status: ('A' for Active; 'I' for Inactive)
REMARK    1  A    between atoms: N_1  and  C_4
REMARK    2  A    between atoms: C_4  and  C_5
REMARK                            x       y       z     vdW  Elec       q    Type
REMARK                         _______ _______ _______ _____ _____    ______ ____
ROOT
ATOM      1  N   UNL     1      10.401   1.051   8.339  0.00  0.00    -0.354 N 
ATOM      2  N   UNL     1      11.887   2.825   8.241  0.00  0.00    -0.372 N 
ATOM      3  N   UNL     1      11.962   1.224   6.599  0.00  0.00    -0.372 N 
ATOM      4  C   UNL     1      11.408   1.687   7.725  0.00  0.00    +0.166 C 
ATOM      5  H   UNL     1      10.045   1.438   9.206  0.00  0.00    +0.163 HD
ATOM      6  H   UNL     1      12.644   3.329   7.798  0.00  0.00    +0.159 HD
ATOM      7  H   UNL     1      11.499   3.234   9.083  0.00  0.00    +0.159 HD
ATOM      8  H   UNL     1      11.650   0.367   6.162  0.00  0.00    +0.159 HD
ATOM      9  H   UNL     1      12.728   1.708   6.148  0.00  0.00    +0.159 HD
ENDROOT
BRANCH   1  10
ATOM     10  C   UNL     1       9.771  -0.166   7.831  0.00  0.00    +0.151 C 
BRANCH  10  11
ATOM     11  C   UNL     1       8.557  -0.475   8.662  0.00  0.00    -0.028 A 
ATOM     12  C   UNL     1       8.350   0.173   9.889  0.00  0.00    +0.005 A 
ATOM     13  C   UNL     1       7.607  -1.411   8.227  0.00  0.00    +0.005 A 
ATOM     14  C   UNL     1       7.208  -0.092  10.648  0.00  0.00    +0.000 A 
ATOM     15  C   UNL     1       6.467  -1.673   8.987  0.00  0.00    +0.000 A 
ATOM     16  C   UNL     1       6.267  -1.012  10.196  0.00  0.00    +0.000 A 
ENDBRANCH  10  11
ENDBRANCH   1  10
TORSDOF 2
ENDMDL
MODEL 8
REMARK VINA RESULT:    -4.087     16.780     17.892
REMARK INTER + INTRA:          -4.725
REMARK INTER:                  -4.614
REMARK INTRA:                  -0.111
REMARK UNBOUND:                -0.161
REMARK  Name = 1550473
REMARK  2 active torsions:
REMARK  status: ('A' for Active; 'I' for Inactive)
REMARK    1  A    between atoms: N_1  and  C_4
REMARK    2  A    between atoms: C_4  and  C_5
REMARK                            x       y       z     vdW  Elec       q    Type
REMARK                         _______ _______ _______ _____ _____    ______ ____
ROOT
ATOM      1  N   UNL     1     -18.986  -0.194  -3.976  0.00  0.00    -0.354 N 
ATOM      2  N   UNL     1     -19.421   0.619  -6.101  0.00  0.00    -0.372 N 
ATOM      3  N   UNL     1     -18.287   1.950  -4.614  0.00  0.00    -0.372 N 
ATOM      4  C   UNL     1     -18.894   0.789  -4.882  0.00  0.00    +0.166 C 
ATOM      5  H   UNL     1     -19.486  -1.038  -4.231  0.00  0.00    +0.163 HD
ATOM      6  H   UNL     1     -19.364   1.342  -6.806  0.00  0.00    +0.159 HD
ATOM      7  H   UNL     1     -19.879  -0.243  -6.368  0.00  0.00    +0.159 HD
ATOM      8  H   UNL     1     -17.874   2.143  -3.712  0.00  0.00    +0.159 HD
ATOM      9  H   UNL     1     -18.230   2.689  -5.303  0.00  0.00    +0.159 HD
ENDROOT
BRANCH   1  10
ATOM     10  C   UNL     1     -18.400  -0.131  -2.639  0.00  0.00    +0.151 C 
BRANCH  10  11
ATOM     11  C   UNL     1     -18.115  -1.528  -2.161  0.00  0.00    -0.028 A 
ATOM     12  C   UNL     1     -19.051  -2.553  -2.360  0.00  0.00    +0.005 A 
ATOM     13  C   UNL     1     -16.908  -1.834  -1.513  0.00  0.00    +0.005 A 
ATOM     14  C   UNL     1     -18.774  -3.858  -1.943  0.00  0.00    +0.000 A 
ATOM     15  C   UNL     1     -16.636  -3.137  -1.097  0.00  0.00    +0.000 A 
ATOM     16  C   UNL     1     -17.568  -4.149  -1.315  0.00  0.00    +0.000 A 
ENDBRANCH  10  11
ENDBRANCH   1  10
TORSDOF 2
ENDMDL
MODEL 9
REMARK VINA RESULT:    -3.960     16.762     17.397
REMARK INTER + INTRA:          -4.583
REMARK INTER:                  -4.441
REMARK INTRA:                  -0.142
REMARK UNBOUND:                -0.161
REMARK  Name = 1550473
REMARK  2 active torsions:
REMARK  status: ('A' for Active; 'I' for Inactive)
REMARK    1  A    between atoms: N_1  and  C_4
REMARK    2  A    between atoms: C_4  and  C_5
REMARK                            x       y       z     vdW  Elec       q    Type
REMARK                         _______ _______ _______ _____ _____    ______ ____
ROOT
ATOM      1  N   UNL     1      11.282   1.118   8.194  0.00  0.00    -0.354 N 
ATOM      2  N   UNL     1      12.402   1.983   6.361  0.00  0.00    -0.372 N 
ATOM      3  N   UNL     1      11.559   3.430   7.930  0.00  0.00    -0.372 N 
ATOM      4  C   UNL     1      11.739   2.173   7.508  0.00  0.00    +0.166 C 
ATOM      5  H   UNL     1      11.425   0.192   7.805  0.00  0.00    +0.163 HD
ATOM      6  H   UNL     1      12.762   2.760   5.823  0.00  0.00    +0.159 HD
ATOM      7  H   UNL     1      12.583   1.055   5.998  0.00  0.00    +0.159 HD
ATOM      8  H   UNL     1      11.062   3.641   8.785  0.00  0.00    +0.159 HD
ATOM      9  H   UNL     1      11.902   4.221   7.400  0.00  0.00    +0.159 HD
ENDROOT
BRANCH   1  10
ATOM     10  C   UNL     1      10.595   1.214   9.481  0.00  0.00    +0.151 C 
BRANCH  10  11
ATOM     11  C   UNL     1       9.372   0.339   9.452  0.00  0.00    -0.028 A 
ATOM     12  C   UNL     1       8.930  -0.226   8.247  0.00  0.00    +0.005 A 
ATOM     13  C   UNL     1       8.655   0.066  10.627  0.00  0.00    +0.005 A 
ATOM     14  C   UNL     1       7.812  -1.064   8.225  0.00  0.00    +0.000 A 
ATOM     15  C   UNL     1       7.539  -0.769  10.600  0.00  0.00    +0.000 A 
ATOM     16  C   UNL     1       7.119  -1.336   9.399  0.00  0.00    +0.000 A 
ENDBRANCH  10  11
ENDBRANCH   1  10
TORSDOF 2
ENDMDL
