MODEL 1
REMARK VINA RESULT:    -4.879      0.000      0.000
REMARK INTER + INTRA:          -5.584
REMARK INTER:                  -5.449
REMARK INTRA:                  -0.135
REMARK UNBOUND:                -0.135
REMARK  Name = 1550473
REMARK  2 active torsions:
REMARK  status: ('A' for Active; 'I' for Inactive)
REMARK    1  A    between atoms: N_1  and  C_4
REMARK    2  A    between atoms: C_4  and  C_5
REMARK                            x       y       z     vdW  Elec       q    Type
REMARK                         _______ _______ _______ _____ _____    ______ ____
ROOT
ATOM      1  N   UNL     1      -4.587   5.485 -17.253  0.00  0.00    -0.354 N 
ATOM      2  N   UNL     1      -5.659   5.868 -19.270  0.00  0.00    -0.372 N 
ATOM      3  N   UNL     1      -3.366   5.922 -19.205  0.00  0.00    -0.372 N 
ATOM      4  C   UNL     1      -4.527   5.756 -18.563  0.00  0.00    +0.166 C 
ATOM      5  H   UNL     1      -5.499   5.401 -16.819  0.00  0.00    +0.163 HD
ATOM      6  H   UNL     1      -5.645   6.068 -20.261  0.00  0.00    +0.159 HD
ATOM      7  H   UNL     1      -6.568   5.737 -18.843  0.00  0.00    +0.159 HD
ATOM      8  H   UNL     1      -2.477   5.857 -18.727  0.00  0.00    +0.159 HD
ATOM      9  H   UNL     1      -3.332   6.135 -20.194  0.00  0.00    +0.159 HD
ENDROOT
BRANCH   1  10
ATOM     10  C   UNL     1      -3.412   5.291 -16.404  0.00  0.00    +0.151 C 
BRANCH  10  11
ATOM     11  C   UNL     1      -3.717   4.233 -15.379  0.00  0.00    -0.028 A 
ATOM     12  C   UNL     1      -4.905   3.491 -15.453  0.00  0.00    +0.005 A 
ATOM     13  C   UNL     1      -2.819   3.964 -14.335  0.00  0.00    +0.005 A 
ATOM     14  C   UNL     1      -5.174   2.488 -14.519  0.00  0.00    +0.000 A 
ATOM     15  C   UNL     1      -3.092   2.962 -13.404  0.00  0.00    +0.000 A 
ATOM     16  C   UNL     1      -4.268   2.223 -13.497  0.00  0.00    +0.000 A 
ENDBRANCH  10  11
ENDBRANCH   1  10
TORSDOF 2
ENDMDL
MODEL 2
REMARK VINA RESULT:    -4.703     12.980     14.758
REMARK INTER + INTRA:          -5.387
REMARK INTER:                  -5.216
REMARK INTRA:                  -0.171
REMARK UNBOUND:                -0.135
REMARK  Name = 1550473
REMARK  2 active torsions:
REMARK  status: ('A' for Active; 'I' for Inactive)
REMARK    1  A    between atoms: N_1  and  C_4
REMARK    2  A    between atoms: C_4  and  C_5
REMARK                            x       y       z     vdW  Elec       q    Type
REMARK                         _______ _______ _______ _____ _____    ______ ____
ROOT
ATOM      1  N   UNL     1       5.785   0.988  -4.564  0.00  0.00    -0.354 N 
ATOM      2  N   UNL     1       5.749  -0.178  -2.563  0.00  0.00    -0.372 N 
ATOM      3  N   UNL     1       5.455   2.098  -2.527  0.00  0.00    -0.372 N 
ATOM      4  C   UNL     1       5.663   0.980  -3.230  0.00  0.00    +0.166 C 
ATOM      5  H   UNL     1       5.972   0.111  -5.036  0.00  0.00    +0.163 HD
ATOM      6  H   UNL     1       5.658  -0.215  -1.556  0.00  0.00    +0.159 HD
ATOM      7  H   UNL     1       5.890  -1.059  -3.041  0.00  0.00    +0.159 HD
ATOM      8  H   UNL     1       5.386   3.004  -2.970  0.00  0.00    +0.159 HD
ATOM      9  H   UNL     1       5.372   2.082  -1.518  0.00  0.00    +0.159 HD
ENDROOT
BRANCH   1  10
ATOM     10  C   UNL     1       5.653   2.187  -5.390  0.00  0.00    +0.151 C 
BRANCH  10  11
ATOM     11  C   UNL     1       4.224   2.321  -5.837  0.00  0.00    -0.028 A 
ATOM     12  C   UNL     1       3.477   3.461  -5.505  0.00  0.00    +0.005 A 
ATOM     13  C   UNL     1       3.611   1.314  -6.598  0.00  0.00    +0.005 A 
ATOM     14  C   UNL     1       2.159   3.599  -5.945  0.00  0.00    +0.000 A 
ATOM     15  C   UNL     1       2.294   1.455  -7.036  0.00  0.00    +0.000 A 
ATOM     16  C   UNL     1       1.569   2.599  -6.711  0.00  0.00    +0.000 A 
ENDBRANCH  10  11
ENDBRANCH   1  10
TORSDOF 2
ENDMDL
MODEL 3
REMARK VINA RESULT:    -4.684      1.955      2.322
REMARK INTER + INTRA:          -5.366
REMARK INTER:                  -5.191
REMARK INTRA:                  -0.175
REMARK UNBOUND:                -0.135
REMARK  Name = 1550473
REMARK  2 active torsions:
REMARK  status: ('A' for Active; 'I' for Inactive)
REMARK    1  A    between atoms: N_1  and  C_4
REMARK    2  A    between atoms: C_4  and  C_5
REMARK                            x       y       z     vdW  Elec       q    Type
REMARK                         _______ _______ _______ _____ _____    ______ ____
ROOT
ATOM      1  N   UNL     1      -3.000   4.275 -16.997  0.00  0.00    -0.354 N 
ATOM      2  N   UNL     1      -1.967   3.202 -18.771  0.00  0.00    -0.372 N 
ATOM      3  N   UNL     1      -0.749   3.635 -16.875  0.00  0.00    -0.372 N 
ATOM      4  C   UNL     1      -1.909   3.711 -17.534  0.00  0.00    +0.166 C 
ATOM      5  H   UNL     1      -3.841   4.328 -17.560  0.00  0.00    +0.163 HD
ATOM      6  H   UNL     1      -1.161   2.768 -19.201  0.00  0.00    +0.159 HD
ATOM      7  H   UNL     1      -2.822   3.216 -19.314  0.00  0.00    +0.159 HD
ATOM      8  H   UNL     1      -0.638   4.006 -15.941  0.00  0.00    +0.159 HD
ATOM      9  H   UNL     1       0.072   3.215 -17.293  0.00  0.00    +0.159 HD
ENDROOT
BRANCH   1  10
ATOM     10  C   UNL     1      -3.058   4.810 -15.638  0.00  0.00    +0.151 C 
BRANCH  10  11
ATOM     11  C   UNL     1      -3.582   3.747 -14.713  0.00  0.00    -0.028 A 
ATOM     12  C   UNL     1      -4.809   3.118 -14.973  0.00  0.00    +0.005 A 
ATOM     13  C   UNL     1      -2.854   3.359 -13.578  0.00  0.00    +0.005 A 
ATOM     14  C   UNL     1      -5.281   2.109 -14.130  0.00  0.00    +0.000 A 
ATOM     15  C   UNL     1      -3.329   2.351 -12.739  0.00  0.00    +0.000 A 
ATOM     16  C   UNL     1      -4.542   1.725 -13.016  0.00  0.00    +0.000 A 
ENDBRANCH  10  11
ENDBRANCH   1  10
TORSDOF 2
ENDMDL
MODEL 4
REMARK VINA RESULT:    -4.657      3.833      5.593
REMARK INTER + INTRA:          -5.336
REMARK INTER:                  -5.171
REMARK INTRA:                  -0.165
REMARK UNBOUND:                -0.135
REMARK  Name = 1550473
REMARK  2 active torsions:
REMARK  status: ('A' for Active; 'I' for Inactive)
REMARK    1  A    between atoms: N_1  and  C_4
REMARK    2  A    between atoms: C_4  and  C_5
REMARK                            x       y       z     vdW  Elec       q    Type
REMARK                         _______ _______ _______ _____ _____    ______ ____
ROOT
ATOM      1  N   UNL     1      -3.044   0.978 -13.758  0.00  0.00    -0.354 N 
ATOM      2  N   UNL     1      -1.231  -0.447 -13.540  0.00  0.00    -0.372 N 
ATOM      3  N   UNL     1      -1.479   1.270 -12.038  0.00  0.00    -0.372 N 
ATOM      4  C   UNL     1      -1.929   0.612 -13.111  0.00  0.00    +0.166 C 
ATOM      5  H   UNL     1      -3.316   0.456 -14.583  0.00  0.00    +0.163 HD
ATOM      6  H   UNL     1      -0.388  -0.750 -13.070  0.00  0.00    +0.159 HD
ATOM      7  H   UNL     1      -1.530  -0.995 -14.337  0.00  0.00    +0.159 HD
ATOM      8  H   UNL     1      -1.956   2.081 -11.668  0.00  0.00    +0.159 HD
ATOM      9  H   UNL     1      -0.631   0.990 -11.562  0.00  0.00    +0.159 HD
ENDROOT
BRANCH   1  10
ATOM     10  C   UNL     1      -3.905   2.083 -13.341  0.00  0.00    +0.151 C 
BRANCH  10  11
ATOM     11  C   UNL     1      -3.843   3.172 -14.375  0.00  0.00    -0.028 A 
ATOM     12  C   UNL     1      -2.705   3.985 -14.485  0.00  0.00    +0.005 A 
ATOM     13  C   UNL     1      -4.915   3.393 -15.253  0.00  0.00    +0.005 A 
ATOM     14  C   UNL     1      -2.634   4.978 -15.466  0.00  0.00    +0.000 A 
ATOM     15  C   UNL     1      -4.841   4.385 -16.230  0.00  0.00    +0.000 A 
ATOM     16  C   UNL     1      -3.700   5.176 -16.338  0.00  0.00    +0.000 A 
ENDBRANCH  10  11
ENDBRANCH   1  10
TORSDOF 2
ENDMDL
MODEL 5
REMARK VINA RESULT:    -4.488     19.530     20.619
REMARK INTER + INTRA:          -5.147
REMARK INTER:                  -4.997
REMARK INTRA:                  -0.151
REMARK UNBOUND:                -0.135
REMARK  Name = 1550473
REMARK  2 active torsions:
REMARK  status: ('A' for Active; 'I' for Inactive)
REMARK    1  A    between atoms: N_1  and  C_4
REMARK    2  A    between atoms: C_4  and  C_5
REMARK                            x       y       z     vdW  Elec       q    Type
REMARK                         _______ _______ _______ _____ _____    ______ ____
ROOT
ATOM      1  N   UNL     1     -15.171  -5.433  -0.512  0.00  0.00    -0.354 N 
ATOM      2  N   UNL     1     -13.463  -6.899   0.033  0.00  0.00    -0.372 N 
ATOM      3  N   UNL     1     -14.307  -6.922  -2.101  0.00  0.00    -0.372 N 
ATOM      4  C   UNL     1     -14.326  -6.409  -0.866  0.00  0.00    +0.166 C 
ATOM      5  H   UNL     1     -15.156  -5.108   0.448  0.00  0.00    +0.163 HD
ATOM      6  H   UNL     1     -12.811  -7.634  -0.207  0.00  0.00    +0.159 HD
ATOM      7  H   UNL     1     -13.419  -6.541   0.979  0.00  0.00    +0.159 HD
ATOM      8  H   UNL     1     -14.936  -6.600  -2.824  0.00  0.00    +0.159 HD
ATOM      9  H   UNL     1     -13.669  -7.666  -2.357  0.00  0.00    +0.159 HD
ENDROOT
BRANCH   1  10
ATOM     10  C   UNL     1     -16.113  -4.793  -1.429  0.00  0.00    +0.151 C 
BRANCH  10  11
ATOM     11  C   UNL     1     -15.758  -3.338  -1.562  0.00  0.00    -0.028 A 
ATOM     12  C   UNL     1     -16.213  -2.591  -2.658  0.00  0.00    +0.005 A 
ATOM     13  C   UNL     1     -14.972  -2.698  -0.591  0.00  0.00    +0.005 A 
ATOM     14  C   UNL     1     -15.909  -1.232  -2.766  0.00  0.00    +0.000 A 
ATOM     15  C   UNL     1     -14.670  -1.341  -0.703  0.00  0.00    +0.000 A 
ATOM     16  C   UNL     1     -15.140  -0.608  -1.789  0.00  0.00    +0.000 A 
ENDBRANCH  10  11
ENDBRANCH   1  10
TORSDOF 2
ENDMDL
MODEL 6
REMARK VINA RESULT:    -4.386     10.727     11.662
REMARK INTER + INTRA:          -5.034
REMARK INTER:                  -4.872
REMARK INTRA:                  -0.162
REMARK UNBOUND:                -0.135
REMARK  Name = 1550473
REMARK  2 active torsions:
REMARK  status: ('A' for Active; 'I' for Inactive)
REMARK    1  A    between atoms: N_1  and  C_4
REMARK    2  A    between atoms: C_4  and  C_5
REMARK                            x       y       z     vdW  Elec       q    Type
REMARK                         _______ _______ _______ _____ _____    ______ ____
ROOT
ATOM      1  N   UNL     1       3.874   5.353  -7.965  0.00  0.00    -0.354 N 
ATOM      2  N   UNL     1       5.109   6.659  -6.504  0.00  0.00    -0.372 N 
ATOM      3  N   UNL     1       2.833   6.541  -6.234  0.00  0.00    -0.372 N 
ATOM      4  C   UNL     1       3.928   6.176  -6.910  0.00  0.00    +0.166 C 
ATOM      5  H   UNL     1       4.737   5.139  -8.453  0.00  0.00    +0.163 HD
ATOM      6  H   UNL     1       5.181   7.280  -5.709  0.00  0.00    +0.159 HD
ATOM      7  H   UNL     1       5.974   6.407  -6.965  0.00  0.00    +0.159 HD
ATOM      8  H   UNL     1       1.911   6.216  -6.493  0.00  0.00    +0.159 HD
ATOM      9  H   UNL     1       2.883   7.170  -5.443  0.00  0.00    +0.159 HD
ENDROOT
BRANCH   1  10
ATOM     10  C   UNL     1       2.646   4.730  -8.454  0.00  0.00    +0.151 C 
BRANCH  10  11
ATOM     11  C   UNL     1       2.743   3.240  -8.269  0.00  0.00    -0.028 A 
ATOM     12  C   UNL     1       2.957   2.398  -9.370  0.00  0.00    +0.005 A 
ATOM     13  C   UNL     1       2.627   2.666  -6.994  0.00  0.00    +0.005 A 
ATOM     14  C   UNL     1       3.077   1.017  -9.194  0.00  0.00    +0.000 A 
ATOM     15  C   UNL     1       2.747   1.287  -6.823  0.00  0.00    +0.000 A 
ATOM     16  C   UNL     1       2.974   0.463  -7.923  0.00  0.00    +0.000 A 
ENDBRANCH  10  11
ENDBRANCH   1  10
TORSDOF 2
ENDMDL
MODEL 7
REMARK VINA RESULT:    -4.379      1.465      2.183
REMARK INTER + INTRA:          -5.026
REMARK INTER:                  -4.907
REMARK INTRA:                  -0.119
REMARK UNBOUND:                -0.135
REMARK  Name = 1550473
REMARK  2 active torsions:
REMARK  status: ('A' for Active; 'I' for Inactive)
REMARK    1  A    between atoms: N_1  and  C_4
REMARK    2  A    between atoms: C_4  and  C_5
REMARK                            x       y       z     vdW  Elec       q    Type
REMARK                         _______ _______ _______ _____ _____    ______ ____
ROOT
ATOM      1  N   UNL     1      -6.253   4.830 -16.950  0.00  0.00    -0.354 N 
ATOM      2  N   UNL     1      -8.229   5.379 -18.027  0.00  0.00    -0.372 N 
ATOM      3  N   UNL     1      -6.282   6.390 -18.698  0.00  0.00    -0.372 N 
ATOM      4  C   UNL     1      -6.906   5.531 -17.886  0.00  0.00    +0.166 C 
ATOM      5  H   UNL     1      -6.789   4.217 -16.346  0.00  0.00    +0.163 HD
ATOM      6  H   UNL     1      -8.748   5.892 -18.726  0.00  0.00    +0.159 HD
ATOM      7  H   UNL     1      -8.755   4.732 -17.452  0.00  0.00    +0.159 HD
ATOM      8  H   UNL     1      -5.286   6.556 -18.639  0.00  0.00    +0.159 HD
ATOM      9  H   UNL     1      -6.786   6.922 -19.397  0.00  0.00    +0.159 HD
ENDROOT
BRANCH   1  10
ATOM     10  C   UNL     1      -4.806   4.883 -16.751  0.00  0.00    +0.151 C 
BRANCH  10  11
ATOM     11  C   UNL     1      -4.439   4.014 -15.579  0.00  0.00    -0.028 A 
ATOM     12  C   UNL     1      -3.233   4.216 -14.892  0.00  0.00    +0.005 A 
ATOM     13  C   UNL     1      -5.296   2.990 -15.147  0.00  0.00    +0.005 A 
ATOM     14  C   UNL     1      -2.906   3.429 -13.786  0.00  0.00    +0.000 A 
ATOM     15  C   UNL     1      -4.966   2.206 -14.043  0.00  0.00    +0.000 A 
ATOM     16  C   UNL     1      -3.772   2.427 -13.360  0.00  0.00    +0.000 A 
ENDBRANCH  10  11
ENDBRANCH   1  10
TORSDOF 2
ENDMDL
MODEL 8
REMARK VINA RESULT:    -4.372     12.272     14.083
REMARK INTER + INTRA:          -5.018
REMARK INTER:                  -4.877
REMARK INTRA:                  -0.141
REMARK UNBOUND:                -0.135
REMARK  Name = 1550473
REMARK  2 active torsions:
REMARK  status: ('A' for Active; 'I' for Inactive)
REMARK    1  A    between atoms: N_1  and  C_4
REMARK    2  A    between atoms: C_4  and  C_5
REMARK                            x       y       z     vdW  Elec       q    Type
REMARK                         _______ _______ _______ _____ _____    ______ ____
ROOT
ATOM      1  N   UNL     1       5.106   3.363  -4.606  0.00  0.00    -0.354 N 
ATOM      2  N   UNL     1       7.224   2.823  -3.840  0.00  0.00    -0.372 N 
ATOM      3  N   UNL     1       5.398   2.120  -2.641  0.00  0.00    -0.372 N 
ATOM      4  C   UNL     1       5.894   2.771  -3.699  0.00  0.00    +0.166 C 
ATOM      5  H   UNL     1       5.544   3.867  -5.369  0.00  0.00    +0.163 HD
ATOM      6  H   UNL     1       7.844   2.383  -3.173  0.00  0.00    +0.159 HD
ATOM      7  H   UNL     1       7.658   3.288  -4.628  0.00  0.00    +0.159 HD
ATOM      8  H   UNL     1       4.403   2.050  -2.474  0.00  0.00    +0.159 HD
ATOM      9  H   UNL     1       6.003   1.684  -1.957  0.00  0.00    +0.159 HD
ENDROOT
BRANCH   1  10
ATOM     10  C   UNL     1       3.645   3.319  -4.573  0.00  0.00    +0.151 C 
BRANCH  10  11
ATOM     11  C   UNL     1       3.139   2.806  -5.894  0.00  0.00    -0.028 A 
ATOM     12  C   UNL     1       2.091   3.461  -6.557  0.00  0.00    +0.005 A 
ATOM     13  C   UNL     1       3.707   1.670  -6.489  0.00  0.00    +0.005 A 
ATOM     14  C   UNL     1       1.641   3.003  -7.798  0.00  0.00    +0.000 A 
ATOM     15  C   UNL     1       3.255   1.215  -7.727  0.00  0.00    +0.000 A 
ATOM     16  C   UNL     1       2.223   1.883  -8.383  0.00  0.00    +0.000 A 
ENDBRANCH  10  11
ENDBRANCH   1  10
TORSDOF 2
ENDMDL
MODEL 9
REMARK VINA RESULT:    -4.336     15.145     16.543
REMARK INTER + INTRA:          -4.978
REMARK INTER:                  -4.802
REMARK INTRA:                  -0.176
REMARK UNBOUND:                -0.135
REMARK  Name = 1550473
REMARK  2 active torsions:
REMARK  status: ('A' for Active; 'I' for Inactive)
REMARK    1  A    between atoms: N_1  and  C_4
REMARK    2  A    between atoms: C_4  and  C_5
REMARK                            x       y       z     vdW  Elec       q    Type
REMARK                         _______ _______ _______ _____ _____    ______ ____
ROOT
ATOM      1  N   UNL     1      -5.646   6.549  -1.740  0.00  0.00    -0.354 N 
ATOM      2  N   UNL     1      -3.371   6.752  -2.122  0.00  0.00    -0.372 N 
ATOM      3  N   UNL     1      -4.495   8.507  -1.162  0.00  0.00    -0.372 N 
ATOM      4  C   UNL     1      -4.519   7.271  -1.671  0.00  0.00    +0.166 C 
ATOM      5  H   UNL     1      -5.604   5.630  -2.165  0.00  0.00    +0.163 HD
ATOM      6  H   UNL     1      -2.504   7.271  -2.080  0.00  0.00    +0.159 HD
ATOM      7  H   UNL     1      -3.323   5.815  -2.505  0.00  0.00    +0.159 HD
ATOM      8  H   UNL     1      -5.329   8.957  -0.810  0.00  0.00    +0.159 HD
ATOM      9  H   UNL     1      -3.639   9.047  -1.122  0.00  0.00    +0.159 HD
ENDROOT
BRANCH   1  10
ATOM     10  C   UNL     1      -6.939   7.001  -1.228  0.00  0.00    +0.151 C 
BRANCH  10  11
ATOM     11  C   UNL     1      -7.256   6.249   0.035  0.00  0.00    -0.028 A 
ATOM     12  C   UNL     1      -6.867   6.758   1.283  0.00  0.00    +0.005 A 
ATOM     13  C   UNL     1      -7.951   5.031  -0.008  0.00  0.00    +0.005 A 
ATOM     14  C   UNL     1      -7.188   6.076   2.459  0.00  0.00    +0.000 A 
ATOM     15  C   UNL     1      -8.268   4.352   1.168  0.00  0.00    +0.000 A 
ATOM     16  C   UNL     1      -7.889   4.876   2.402  0.00  0.00    +0.000 A 
ENDBRANCH  10  11
ENDBRANCH   1  10
TORSDOF 2
ENDMDL
